No_4276-gen_results/8p0m/2024-11-26-14-13-15/
     RDKit          3D

 21 22  0  0  0  0  0  0  0  0999 V2000
  -28.0162   -0.8135   28.8779 C   0  0  0  0  0  0  0  0  0  0  0  0
  -27.0636   -0.1189   28.6079 C   0  0  0  0  0  0  0  0  0  0  0  0
  -25.7647   -0.3897   29.0360 C   0  0  0  0  0  0  0  0  0  0  0  0
  -25.5296   -1.5302   29.9014 C   0  0  0  0  0  0  0  0  0  0  0  0
  -24.2910   -1.8751   30.3797 C   0  0  0  0  0  0  0  0  0  0  0  0
  -27.9084   -1.9224   29.8277 C   0  0  0  0  0  0  0  0  0  0  0  0
  -26.6512   -2.2902   30.3071 C   0  0  0  0  0  0  0  0  0  0  0  0
  -23.6026   -0.8489   31.1561 C   0  0  0  0  0  0  0  0  0  0  0  0
  -29.1228   -2.5331   30.3284 C   0  0  0  0  0  0  0  0  0  0  0  0
  -29.4117   -2.4273   31.5965 O   0  0  0  0  0  0  0  0  0  0  0  0
  -23.8339   -0.8187   32.3474 F   0  0  0  0  0  0  0  0  0  0  0  0
  -22.1911   -0.9513   31.0849 F   0  0  0  0  0  0  0  0  0  0  0  0
  -23.8122    0.3856   30.6160 F   0  0  0  0  0  0  0  0  0  0  0  0
  -27.3244    1.0588   27.8226 C   0  0  0  0  0  0  0  0  0  0  0  0
  -26.5231    2.1278   27.9452 N   0  0  0  0  0  0  0  0  0  0  0  0
  -26.4282    2.8699   28.7557 C   0  0  0  0  0  0  0  0  0  0  0  0
  -26.1804    3.9931   28.9867 C   0  0  0  0  0  0  0  0  0  0  0  0
  -25.9872    4.6542   30.1780 N   0  0  0  0  0  0  0  0  0  0  0  0
  -26.5031    2.4460   30.2424 N   0  0  0  0  0  0  0  0  0  0  0  0
  -26.2405    3.5471   30.9826 C   0  0  0  0  0  0  0  0  0  0  0  0
  -25.5618    2.2712   26.8087 C   0  0  0  0  0  0  0  0  0  0  0  0
  4  5  1  0
  5  8  1  0
  6  9  1  0
  9 10  1  0
  8 11  1  0
  8 12  1  0
  8 13  1  0
  2 14  1  0
 14 15  1  0
 15 16  1  0
 16 17  2  0
 17 18  2  0
 16 19  1  0
 18 20  1  0
 19 20  1  0
 15 21  1  0
  1  2  2  0
  2  3  1  0
  3  4  2  0
  4  7  1  0
  7  6  2  0
  6  1  1  0
M  END

$$$$
