No_4882-gen_results/8p0m/2024-11-26-14-13-15/
     RDKit          3D

 22 24  0  0  0  0  0  0  0  0999 V2000
  -28.0162   -0.8135   28.8779 C   0  0  0  0  0  0  0  0  0  0  0  0
  -28.4690   -0.7850   29.8287 C   0  0  0  0  0  0  0  0  0  0  0  0
  -26.5042   -0.7777   28.8766 C   0  0  0  0  0  0  0  0  0  0  0  0
  -25.6540   -0.6597   27.7191 C   0  0  0  0  0  0  0  0  0  0  0  0
  -27.9180   -0.9374   31.1824 C   0  0  0  0  0  0  0  0  0  0  0  0
  -26.5423   -0.9399   31.2606 C   0  0  0  0  0  0  0  0  0  0  0  0
  -25.7832   -0.8935   30.1201 C   0  0  0  0  0  0  0  0  0  0  0  0
  -24.3096   -0.3015   27.8531 C   0  0  0  0  0  0  0  0  0  0  0  0
  -23.6669   -0.4595   29.0986 C   0  0  0  0  0  0  0  0  0  0  0  0
  -24.3700   -0.6645   30.2027 C   0  0  0  0  0  0  0  0  0  0  0  0
  -22.1946   -0.2290   29.1314 C   0  0  0  0  0  0  0  0  0  0  0  0
  -21.2882    0.5665   28.7715 N   0  0  0  0  0  0  0  0  0  0  0  0
  -21.6674   -1.0322   30.0762 O   0  0  0  0  0  0  0  0  0  0  0  0
  -30.0674   -0.8839   29.8756 C   0  0  0  0  0  0  0  0  0  0  0  0
  -30.5368   -0.3006   29.0066 O   0  0  0  0  0  0  0  0  0  0  0  0
  -30.7167   -1.1366   30.9611 O   0  0  0  0  0  0  0  0  0  0  0  0
  -21.6144    1.5598   27.7289 C   0  0  0  0  0  0  0  0  0  0  0  0
  -22.7827    1.6736   27.3148 C   0  0  0  0  0  0  0  0  0  0  0  0
  -23.9024    0.7976   27.1754 C   0  0  0  0  0  0  0  0  0  0  0  0
  -30.8065    0.7354   28.6698 C   0  0  0  0  0  0  0  0  0  0  0  0
  -31.8047    1.0789   27.9080 C   0  0  0  0  0  0  0  0  0  0  0  0
  -32.1281    2.4396   27.5069 C   0  0  0  0  0  0  0  0  0  0  0  0
  9 11  1  0
 11 12  1  0
 11 13  2  0
  2 14  1  0
 14 15  1  0
 14 16  2  0
 12 17  1  0
 17 18  2  0
  8 19  1  0
 18 19  1  0
 15 20  1  0
 20 21  2  3
 21 22  1  0
  1  2  2  0
  2  5  1  0
  5  6  2  0
  6  7  1  0
  3  1  1  0
  3  4  2  0
  4  8  1  0
  8  9  2  0
  9 10  1  0
 10  7  2  0
  7  3  1  0
M  END

$$$$
