No_4592-gen_results/8p0m/2024-11-26-14-13-15/
     RDKit          3D

 26 27  0  0  0  0  0  0  0  0999 V2000
  -28.0162   -0.8135   28.8779 C   0  0  0  0  0  0  0  0  0  0  0  0
  -27.0636   -0.1190   28.6079 C   0  0  0  0  0  0  0  0  0  0  0  0
  -27.0010    0.6913   27.4910 C   0  0  0  0  0  0  0  0  0  0  0  0
  -25.8548    1.4825   27.0830 C   0  0  0  0  0  0  0  0  0  0  0  0
  -24.6901    1.4526   27.8807 C   0  0  0  0  0  0  0  0  0  0  0  0
  -24.7379    0.6010   29.0416 C   0  0  0  0  0  0  0  0  0  0  0  0
  -25.8234   -0.1688   29.3887 C   0  0  0  0  0  0  0  0  0  0  0  0
  -29.2150   -0.1726   29.0132 N   0  0  0  0  0  0  0  0  0  0  0  0
  -30.2463   -0.7736   29.6388 C   0  0  0  0  0  0  0  0  0  0  0  0
  -23.5190    2.2034   27.5550 C   0  0  0  0  0  0  0  0  0  0  0  0
  -22.5145    2.1984   28.3585 N   0  0  0  0  0  0  0  0  0  0  0  0
  -23.4844    2.8071   26.4255 O   0  0  0  0  0  0  0  0  0  0  0  0
  -31.5424   -0.4932   29.2554 C   0  0  0  0  0  0  0  0  0  0  0  0
  -30.0132   -0.8692   31.0943 C   0  0  0  0  0  0  0  0  0  0  0  0
  -31.0208   -1.5374   31.8940 C   0  0  0  0  0  0  0  0  0  0  0  0
  -32.6038   -1.1395   30.0965 C   0  0  0  0  0  0  0  0  0  0  0  0
  -32.3563   -1.3546   31.4335 C   0  0  0  0  0  0  0  0  0  0  0  0
  -27.9483   -1.9185   29.4207 O   0  0  0  0  0  0  0  0  0  0  0  0
  -31.8839   -0.1866   27.9251 C   0  0  0  0  0  0  0  0  0  0  0  0
  -32.4423   -0.8851   27.1126 O   0  0  0  0  0  0  0  0  0  0  0  0
  -31.0858    0.9422   27.3747 N   0  0  0  0  0  0  0  0  0  0  0  0
  -31.3146    1.3470   26.0180 C   0  0  0  0  0  0  0  0  0  0  0  0
  -30.4648    2.3456   25.7577 C   0  0  0  0  0  0  0  0  0  0  0  0
  -29.5562    2.2367   24.6507 C   0  0  0  0  0  0  0  0  0  0  0  0
  -28.6069    3.3472   24.4573 C   0  0  0  0  0  0  0  0  0  0  0  0
  -28.5379    4.3989   25.3181 C   0  0  0  0  0  0  0  0  0  0  0  0
  1  2  1  0
  1  8  1  0
  8  9  1  0
  5 10  1  0
 10 11  1  0
 10 12  2  0
  1 18  2  0
 13 19  1  0
 19 20  2  0
 19 21  1  0
 21 22  1  0
 22 23  2  3
 23 24  1  0
 24 25  2  3
 25 26  1  0
  2  3  2  0
  3  4  1  0
  4  5  2  0
  5  6  1  0
  6  7  2  0
  7  2  1  0
  9 13  2  0
 13 16  1  0
 16 17  2  0
 17 15  1  0
 15 14  2  0
 14  9  1  0
M  END

$$$$
