No_4841-gen_results/8p0m/2024-11-26-14-13-15/
     RDKit          3D

 16 17  0  0  0  0  0  0  0  0999 V2000
  -28.0162   -0.8135   28.8779 C   0  0  0  0  0  0  0  0  0  0  0  0
  -27.0636   -0.1189   28.6079 C   0  0  0  0  0  0  0  0  0  0  0  0
  -26.9716    0.7139   27.5060 C   0  0  0  0  0  0  0  0  0  0  0  0
  -28.1053    0.7744   26.6421 C   0  0  0  0  0  0  0  0  0  0  0  0
  -29.2041    0.1179   27.0477 C   0  0  0  0  0  0  0  0  0  0  0  0
  -29.2127   -0.6088   28.1281 C   0  0  0  0  0  0  0  0  0  0  0  0
  -25.3933    1.6614   27.0324 Br  0  0  0  0  0  0  0  0  0  0  0  0
  -30.3087    0.2217   26.2043 N   0  0  0  0  0  0  0  0  0  0  0  0
  -25.6697   -0.1995   29.4219 C   0  0  0  0  0  0  0  0  0  0  0  0
  -25.0982   -1.3758   29.5337 C   0  0  0  0  0  0  0  0  0  0  0  0
  -24.0400   -1.5285   29.6836 C   0  0  0  0  0  0  0  0  0  0  0  0
  -23.0002   -0.5341   29.9857 C   0  0  0  0  0  0  0  0  0  0  0  0
  -23.5535    0.7737   29.8672 C   0  0  0  0  0  0  0  0  0  0  0  0
  -24.9113    0.9231   29.4872 C   0  0  0  0  0  0  0  0  0  0  0  0
  -31.4707   -0.1545   26.5184 C   0  0  0  0  0  0  0  0  0  0  0  0
  -32.5168   -0.1690   25.4971 C   0  0  0  0  0  0  0  0  0  0  0  0
  3  7  1  0
  5  8  1  0
  2  9  1  0
  8 15  2  3
 15 16  1  0
  1  2  2  0
  2  3  1  0
  3  4  2  0
  4  5  1  0
  5  6  2  0
  6  1  1  0
  9 10  2  0
 10 11  1  0
 11 12  2  0
 12 13  1  0
 13 14  2  0
 14  9  1  0
M  END

$$$$
