No_4300-gen_results/8p0m/2024-11-26-14-13-15/
     RDKit          3D

 12 13  0  0  0  0  0  0  0  0999 V2000
  -28.1229   -1.3353   28.4874 O   0  0  0  0  0  0  0  0  0  0  0  0
  -27.4806   -0.4044   28.7094 C   0  0  0  0  0  0  0  0  0  0  0  0
  -27.1904    0.2460   29.5268 C   0  0  0  0  0  0  0  0  0  0  0  0
  -26.6871   -0.0001   27.4423 N   0  0  0  0  0  0  0  0  0  0  0  0
  -27.9439    0.0199   31.1144 Cl  0  0  0  0  0  0  0  0  0  0  0  0
  -25.8813    0.7407   27.3685 C   0  0  0  0  0  0  0  0  0  0  0  0
  -25.5473    1.5781   28.5051 C   0  0  0  0  0  0  0  0  0  0  0  0
  -26.1746    1.3614   29.6789 C   0  0  0  0  0  0  0  0  0  0  0  0
  -25.1470    1.0933   26.2104 N   0  0  0  0  0  0  0  0  0  0  0  0
  -24.0700    1.9582   26.1470 C   0  0  0  0  0  0  0  0  0  0  0  0
  -23.7517    2.6798   27.2834 C   0  0  0  0  0  0  0  0  0  0  0  0
  -24.4161    2.5655   28.3814 C   0  0  0  0  0  0  0  0  0  0  0  0
  1  2  2  0
  2  3  1  0
  2  4  1  0
  3  5  1  0
  3  8  1  0
  8  7  1  0
  6  4  1  0
  6  7  2  0
  7 12  1  0
 12 11  2  0
 11 10  1  0
 10  9  2  0
  9  6  1  0
M  END

$$$$
