No_4623-gen_results/8p0m/2024-11-26-14-13-15/
     RDKit          3D

 35 40  0  0  0  0  0  0  0  0999 V2000
  -28.0162   -0.8135   28.8779 C   0  0  0  0  0  0  0  0  0  0  0  0
  -28.4690   -0.7850   29.8287 C   0  0  0  0  0  0  0  0  0  0  0  0
  -26.5455   -0.8762   28.8500 C   0  0  0  0  0  0  0  0  0  0  0  0
  -25.8041   -1.0324   30.0571 C   0  0  0  0  0  0  0  0  0  0  0  0
  -27.9437   -0.9869   31.2075 C   0  0  0  0  0  0  0  0  0  0  0  0
  -26.5825   -1.0386   31.2231 C   0  0  0  0  0  0  0  0  0  0  0  0
  -30.0606   -0.7371   29.9024 C   0  0  0  0  0  0  0  0  0  0  0  0
  -30.5524   -0.2769   29.0111 O   0  0  0  0  0  0  0  0  0  0  0  0
  -30.7429   -1.2890   30.9939 N   0  0  0  0  0  0  0  0  0  0  0  0
  -32.1712   -1.2600   30.9749 C   0  0  0  0  0  0  0  0  0  0  0  0
  -24.3688   -1.0881   30.0880 C   0  0  0  0  0  0  0  0  0  0  0  0
  -23.7191    0.1798   30.0181 C   0  0  0  0  0  0  0  0  0  0  0  0
  -22.4705    0.3023   29.3244 C   0  0  0  0  0  0  0  0  0  0  0  0
  -21.7772   -0.9297   29.1374 C   0  0  0  0  0  0  0  0  0  0  0  0
  -22.5229   -2.0904   29.0334 C   0  0  0  0  0  0  0  0  0  0  0  0
  -23.7970   -2.2172   29.5525 C   0  0  0  0  0  0  0  0  0  0  0  0
  -32.7009   -2.0901   31.6988 C   0  0  0  0  0  0  0  0  0  0  0  0
  -32.0037   -2.8799   32.7160 C   0  0  0  0  0  0  0  0  0  0  0  0
  -30.5946   -2.8857   32.6770 C   0  0  0  0  0  0  0  0  0  0  0  0
  -29.9794   -2.1991   31.7748 C   0  0  0  0  0  0  0  0  0  0  0  0
  -28.5459   -2.0138   31.9146 C   0  0  0  0  0  0  0  0  0  0  0  0
  -25.8187   -0.6932   27.7194 O   0  0  0  0  0  0  0  0  0  0  0  0
  -26.2365    0.1412   26.7700 C   0  0  0  0  0  0  0  0  0  0  0  0
  -25.5145    0.1229   25.5967 C   0  0  0  0  0  0  0  0  0  0  0  0
  -27.2120    1.1297   26.8410 C   0  0  0  0  0  0  0  0  0  0  0  0
  -27.3352    1.8913   26.0615 C   0  0  0  0  0  0  0  0  0  0  0  0
  -28.4330    2.8885   26.2149 C   0  0  0  0  0  0  0  0  0  0  0  0
  -29.2719    2.8643   27.2460 C   0  0  0  0  0  0  0  0  0  0  0  0
  -30.2987    3.7947   27.4133 C   0  0  0  0  0  0  0  0  0  0  0  0
  -30.4488    4.7324   26.3718 C   0  0  0  0  0  0  0  0  0  0  0  0
  -29.6871    4.7873   25.2367 C   0  0  0  0  0  0  0  0  0  0  0  0
  -28.6735    3.9096   25.1647 C   0  0  0  0  0  0  0  0  0  0  0  0
  -25.6955    0.9607   24.5443 C   0  0  0  0  0  0  0  0  0  0  0  0
  -26.6975    1.9311   24.7832 C   0  0  0  0  0  0  0  0  0  0  0  0
  -24.3873    1.4716   30.4339 C   0  0  0  0  0  0  0  0  0  0  0  0
  2  7  1  0
  7  8  2  0
  7  9  1  0
  9 10  1  0
  4 11  1  0
 17 18  1  0
  9 20  1  0
 19 20  1  0
  5 21  1  0
 20 21  1  0
  3 22  1  0
 22 23  1  0
 26 27  1  0
 12 35  1  0
 10 17  1  0
 18 19  1  0
 23 24  2  0
 24 33  1  0
 33 34  2  0
 34 26  1  0
 26 25  2  0
 25 23  1  0
 11 12  2  0
 12 13  1  0
 13 14  2  0
 14 15  1  0
 15 16  2  0
 16 11  1  0
 27 28  2  0
 28 29  1  0
 29 30  2  0
 30 31  1  0
 31 32  2  0
 32 27  1  0
  1  2  2  0
  2  5  1  0
  5  6  2  0
  6  4  1  0
  4  3  2  0
  3  1  1  0
M  END

$$$$
