No_4524-gen_results/8p0m/2024-11-26-14-13-15/
     RDKit          3D

 35 37  0  0  0  0  0  0  0  0999 V2000
  -28.0162   -0.8135   28.8779 C   0  0  0  0  0  0  0  0  0  0  0  0
  -28.4690   -0.7850   29.8287 C   0  0  0  0  0  0  0  0  0  0  0  0
  -26.5455   -0.8762   28.8500 C   0  0  0  0  0  0  0  0  0  0  0  0
  -25.8041   -1.0324   30.0571 C   0  0  0  0  0  0  0  0  0  0  0  0
  -27.9437   -0.9869   31.2075 C   0  0  0  0  0  0  0  0  0  0  0  0
  -26.5825   -1.0386   31.2231 C   0  0  0  0  0  0  0  0  0  0  0  0
  -29.9267   -0.7257   29.8772 O   0  0  0  0  0  0  0  0  0  0  0  0
  -30.5256    0.4218   30.2407 C   0  0  0  0  0  0  0  0  0  0  0  0
  -31.4524    0.8312   29.5589 C   0  0  0  0  0  0  0  0  0  0  0  0
  -32.1031    2.0991   29.8870 C   0  0  0  0  0  0  0  0  0  0  0  0
  -31.6336    2.7992   31.0175 C   0  0  0  0  0  0  0  0  0  0  0  0
  -30.5809    2.2633   31.7311 C   0  0  0  0  0  0  0  0  0  0  0  0
  -29.9739    1.1210   31.3914 C   0  0  0  0  0  0  0  0  0  0  0  0
  -24.3879   -1.1683   30.0592 C   0  0  0  0  0  0  0  0  0  0  0  0
  -23.6919    0.0313   29.8917 C   0  0  0  0  0  0  0  0  0  0  0  0
  -22.4540    0.0509   29.1690 C   0  0  0  0  0  0  0  0  0  0  0  0
  -21.8070    1.2458   28.8877 C   0  0  0  0  0  0  0  0  0  0  0  0
  -22.3390    1.9480   27.7652 C   0  0  0  0  0  0  0  0  0  0  0  0
  -23.7291    2.1798   27.7210 C   0  0  0  0  0  0  0  0  0  0  0  0
  -24.2246    3.0055   28.0244 C   0  0  0  0  0  0  0  0  0  0  0  0
  -25.7195    3.3250   27.6978 C   0  0  0  0  0  0  0  0  0  0  0  0
  -26.2704    2.3858   26.8926 C   0  0  0  0  0  0  0  0  0  0  0  0
  -24.6937    1.3966   26.8824 C   0  0  0  0  0  0  0  0  0  0  0  0
  -23.8727   -2.2408   29.1445 C   0  0  0  0  0  0  0  0  0  0  0  0
  -23.9432   -1.5722   31.5885 C   0  0  0  0  0  0  0  0  0  0  0  0
  -33.1610    2.5324   29.1726 O   0  0  0  0  0  0  0  0  0  0  0  0
  -32.2987    4.0531   31.4217 C   0  0  0  0  0  0  0  0  0  0  0  0
  -33.0936    4.6227   30.9854 O   0  0  0  0  0  0  0  0  0  0  0  0
  -31.6873    4.5086   32.5312 O   0  0  0  0  0  0  0  0  0  0  0  0
  -23.3996    0.8871   31.2234 C   0  0  0  0  0  0  0  0  0  0  0  0
  -26.4872    4.4874   28.1680 C   0  0  0  0  0  0  0  0  0  0  0  0
  -26.2755    5.3370   28.7761 O   0  0  0  0  0  0  0  0  0  0  0  0
  -27.7330    4.5176   27.4694 O   0  0  0  0  0  0  0  0  0  0  0  0
  -28.6954    5.3044   28.0060 C   0  0  0  0  0  0  0  0  0  0  0  0
  -24.6397    0.2748   26.0996 C   0  0  0  0  0  0  0  0  0  0  0  0
  2  7  1  0
  7  8  1  0
  4 14  1  0
 14 15  1  0
 15 16  2  3
 16 17  1  0
 17 18  2  3
 18 19  1  0
 19 20  2  0
 20 21  1  0
 21 22  2  0
 19 23  1  0
 22 23  1  0
 14 24  1  0
 14 25  1  0
 10 26  1  0
 11 27  1  0
 27 28  2  0
 27 29  1  0
 15 30  1  0
 21 31  1  0
 31 32  2  0
 31 33  1  0
 33 34  1  0
 23 35  1  0
  8  9  2  0
  9 10  1  0
 10 11  2  0
 11 12  1  0
 12 13  2  0
 13  8  1  0
  1  2  2  0
  2  5  1  0
  5  6  2  0
  6  4  1  0
  4  3  2  0
  3  1  1  0
M  END

$$$$
