No_4925-gen_results/8p0m/2024-11-26-14-13-15/
     RDKit          3D

 19 20  0  0  0  0  0  0  0  0999 V2000
  -28.1493   -0.8198   28.9079 Cl  0  0  0  0  0  0  0  0  0  0  0  0
  -28.5324   -0.0471   29.7727 C   0  0  0  0  0  0  0  0  0  0  0  0
  -29.7006    0.0350   30.2420 C   0  0  0  0  0  0  0  0  0  0  0  0
  -27.4574    0.8974   30.3816 C   0  0  0  0  0  0  0  0  0  0  0  0
  -27.8536    1.8525   31.4456 C   0  0  0  0  0  0  0  0  0  0  0  0
  -30.0732    1.0428   31.3373 C   0  0  0  0  0  0  0  0  0  0  0  0
  -29.1164    1.8739   31.8737 C   0  0  0  0  0  0  0  0  0  0  0  0
  -26.0949    0.8880   29.9919 C   0  0  0  0  0  0  0  0  0  0  0  0
  -25.2998    0.1725   30.0728 C   0  0  0  0  0  0  0  0  0  0  0  0
  -23.8583    0.2325   29.5842 C   0  0  0  0  0  0  0  0  0  0  0  0
  -23.5500    1.3394   28.7875 C   0  0  0  0  0  0  0  0  0  0  0  0
  -24.5862    2.2489   28.5275 C   0  0  0  0  0  0  0  0  0  0  0  0
  -25.8580    2.1719   29.1229 C   0  0  0  0  0  0  0  0  0  0  0  0
  -22.2149    1.4734   28.2137 C   0  0  0  0  0  0  0  0  0  0  0  0
  -22.0020    2.5089   27.4972 O   0  0  0  0  0  0  0  0  0  0  0  0
  -21.2814    0.6341   28.5210 O   0  0  0  0  0  0  0  0  0  0  0  0
  -26.8361    3.1732   28.8138 C   0  0  0  0  0  0  0  0  0  0  0  0
  -26.7059    4.3503   29.5225 C   0  0  0  0  0  0  0  0  0  0  0  0
  -27.4226    5.4330   29.2784 C   0  0  0  0  0  0  0  0  0  0  0  0
  1  2  1  0
  4  8  1  0
 11 14  1  0
 14 15  2  0
 14 16  1  0
 13 17  1  0
 17 18  2  3
 18 19  1  0
  2  3  2  0
  3  6  1  0
  6  7  2  0
  7  5  1  0
  5  4  2  0
  4  2  1  0
  8  9  2  0
  9 10  1  0
 10 11  2  0
 11 12  1  0
 12 13  2  0
 13  8  1  0
M  END

$$$$
