No_4380-gen_results/8p0m/2024-11-26-14-13-15/
     RDKit          3D

 15 16  0  0  0  0  0  0  0  0999 V2000
  -28.0162   -0.8135   28.8779 C   0  0  0  0  0  0  0  0  0  0  0  0
  -28.4690   -0.7850   29.8287 C   0  0  0  0  0  0  0  0  0  0  0  0
  -28.1960    0.3478   28.0550 C   0  0  0  0  0  0  0  0  0  0  0  0
  -27.4421    0.5100   26.7946 C   0  0  0  0  0  0  0  0  0  0  0  0
  -26.1689   -0.0794   26.6787 C   0  0  0  0  0  0  0  0  0  0  0  0
  -25.7312   -0.9607   27.6875 C   0  0  0  0  0  0  0  0  0  0  0  0
  -26.5043   -1.2222   28.7582 C   0  0  0  0  0  0  0  0  0  0  0  0
  -29.5802   -0.2435   30.2170 C   0  0  0  0  0  0  0  0  0  0  0  0
  -30.0568    0.7240   29.3104 C   0  0  0  0  0  0  0  0  0  0  0  0
  -29.3596    1.0530   28.1223 C   0  0  0  0  0  0  0  0  0  0  0  0
  -29.7670    1.9340   27.2882 O   0  0  0  0  0  0  0  0  0  0  0  0
  -25.9587   -2.2771   29.7070 C   0  0  0  0  0  0  0  0  0  0  0  0
  -26.6892   -3.1074   30.1098 O   0  0  0  0  0  0  0  0  0  0  0  0
  -24.7576   -2.0440   30.2450 N   0  0  0  0  0  0  0  0  0  0  0  0
  -25.1642    0.2430   25.3842 Cl  0  0  0  0  0  0  0  0  0  0  0  0
  1  3  1  0
  3  4  1  0
  4  5  1  0
  5  6  1  0
  1  7  1  0
  6  7  1  0
  2  8  1  0
  3 10  1  0
  9 10  1  0
 10 11  2  0
  7 12  1  0
 12 13  2  0
 12 14  1  0
  5 15  1  0
  1  2  1  0
  8  9  1  0
M  END

$$$$
