No_4785-gen_results/8p0m/2024-11-26-14-13-15/
     RDKit          3D

 13 13  0  0  0  0  0  0  0  0999 V2000
  -28.0162   -0.8135   28.8779 C   0  0  0  0  0  0  0  0  0  0  0  0
  -28.4690   -0.7850   29.8287 C   0  0  0  0  0  0  0  0  0  0  0  0
  -27.0871    0.2903   28.6377 C   0  0  0  0  0  0  0  0  0  0  0  0
  -26.8317    1.2487   29.5869 C   0  0  0  0  0  0  0  0  0  0  0  0
  -28.3914    0.0801   31.0065 C   0  0  0  0  0  0  0  0  0  0  0  0
  -27.4940    1.1521   30.7841 C   0  0  0  0  0  0  0  0  0  0  0  0
  -26.3844    0.1867   27.3577 C   0  0  0  0  0  0  0  0  0  0  0  0
  -24.6518    0.0557   27.3041 Br  0  0  0  0  0  0  0  0  0  0  0  0
  -27.0171    0.4552   26.0907 C   0  0  0  0  0  0  0  0  0  0  0  0
  -27.0575    1.4724   25.5719 C   0  0  0  0  0  0  0  0  0  0  0  0
  -27.8352    2.2537   25.3785 C   0  0  0  0  0  0  0  0  0  0  0  0
  -29.2186    2.0509   25.5012 C   0  0  0  0  0  0  0  0  0  0  0  0
  -29.5143    0.6876   25.5545 C   0  0  0  0  0  0  0  0  0  0  0  0
  3  7  1  0
  7  8  1  0
  7  9  1  0
  9 10  2  3
 10 11  1  0
 11 12  2  3
 12 13  1  0
  1  2  2  0
  2  5  1  0
  5  6  2  0
  6  4  1  0
  4  3  2  0
  3  1  1  0
M  END

$$$$
