No_4067-gen_results/8p0m/2024-11-26-14-13-15/
     RDKit          3D

 24 27  0  0  0  0  0  0  0  0999 V2000
  -28.0162   -0.8135   28.8779 C   0  0  0  0  0  0  0  0  0  0  0  0
  -27.0636   -0.1190   28.6079 C   0  0  0  0  0  0  0  0  0  0  0  0
  -26.8756    1.1325   28.9134 C   0  0  0  0  0  0  0  0  0  0  0  0
  -25.6883    1.9515   28.5672 C   0  0  0  0  0  0  0  0  0  0  0  0
  -24.6394    1.2834   27.8753 C   0  0  0  0  0  0  0  0  0  0  0  0
  -24.8068   -0.0513   27.6040 C   0  0  0  0  0  0  0  0  0  0  0  0
  -25.9019   -0.7670   27.9511 C   0  0  0  0  0  0  0  0  0  0  0  0
  -28.0678   -1.4475   30.2707 C   0  0  0  0  0  0  0  0  0  0  0  0
  -27.0358   -1.6665   30.8241 C   0  0  0  0  0  0  0  0  0  0  0  0
  -29.3980   -1.8840   30.7531 C   0  0  0  0  0  0  0  0  0  0  0  0
  -23.4324    1.9896   27.4857 C   0  0  0  0  0  0  0  0  0  0  0  0
  -22.5375    1.7559   27.0932 O   0  0  0  0  0  0  0  0  0  0  0  0
  -23.6748    3.4132   27.6420 O   0  0  0  0  0  0  0  0  0  0  0  0
  -29.5835   -2.9249   31.2333 O   0  0  0  0  0  0  0  0  0  0  0  0
  -30.4448   -1.1857   30.3625 O   0  0  0  0  0  0  0  0  0  0  0  0
  -27.9174    1.9299   29.6448 C   0  0  0  0  0  0  0  0  0  0  0  0
  -27.8521    3.1592   29.6011 C   0  0  0  0  0  0  0  0  0  0  0  0
  -28.7838    3.9179   30.3529 C   0  0  0  0  0  0  0  0  0  0  0  0
  -28.7382    5.3486   30.4227 C   0  0  0  0  0  0  0  0  0  0  0  0
  -27.7525    5.9841   29.6638 C   0  0  0  0  0  0  0  0  0  0  0  0
  -26.7945    5.3004   28.9308 C   0  0  0  0  0  0  0  0  0  0  0  0
  -26.8645    3.9042   28.9498 C   0  0  0  0  0  0  0  0  0  0  0  0
  -25.7772    3.1536   28.3885 C   0  0  0  0  0  0  0  0  0  0  0  0
  -24.6581    3.9751   27.9664 C   0  0  0  0  0  0  0  0  0  0  0  0
  1  8  1  0
  8  9  1  0
  8 10  1  0
  5 11  1  0
 11 12  2  0
 11 13  1  0
 10 14  2  0
 10 15  1  0
  3 16  1  0
 16 17  1  0
  4 23  1  0
 22 23  1  0
 13 24  1  0
 23 24  1  0
  1  2  1  0
 17 18  2  0
 18 19  1  0
 19 20  2  0
 20 21  1  0
 21 22  2  0
 22 17  1  0
  2  3  2  0
  3  4  1  0
  4  5  2  0
  5  6  1  0
  6  7  2  0
  7  2  1  0
M  END

$$$$
