No_4547-gen_results/8p0m/2024-11-26-14-13-15/
     RDKit          3D

 35 37  0  0  0  0  0  0  0  0999 V2000
  -28.0162   -0.8135   28.8779 C   0  0  0  0  0  0  0  0  0  0  0  0
  -27.0636   -0.1189   28.6079 C   0  0  0  0  0  0  0  0  0  0  0  0
  -25.7647   -0.3897   29.0360 C   0  0  0  0  0  0  0  0  0  0  0  0
  -24.5517    0.4058   28.7646 C   0  0  0  0  0  0  0  0  0  0  0  0
  -24.6957    1.4480   27.7988 C   0  0  0  0  0  0  0  0  0  0  0  0
  -25.9755    1.7250   27.3077 C   0  0  0  0  0  0  0  0  0  0  0  0
  -27.0718    1.0134   27.6535 C   0  0  0  0  0  0  0  0  0  0  0  0
  -29.2099   -0.0501   29.3493 C   0  0  0  0  0  0  0  0  0  0  0  0
  -29.6363    0.6945   28.7664 O   0  0  0  0  0  0  0  0  0  0  0  0
  -29.7661   -0.5567   30.4761 O   0  0  0  0  0  0  0  0  0  0  0  0
  -23.5041    2.2343   27.5044 C   0  0  0  0  0  0  0  0  0  0  0  0
  -22.3462    1.9112   27.8691 O   0  0  0  0  0  0  0  0  0  0  0  0
  -23.6228    3.1299   26.5401 O   0  0  0  0  0  0  0  0  0  0  0  0
  -25.4820   -1.3539   29.8758 F   0  0  0  0  0  0  0  0  0  0  0  0
  -31.0433   -0.2949   30.8255 C   0  0  0  0  0  0  0  0  0  0  0  0
  -31.4258   -0.8877   31.9351 C   0  0  0  0  0  0  0  0  0  0  0  0
  -32.6339   -0.7644   32.3621 C   0  0  0  0  0  0  0  0  0  0  0  0
  -30.5572   -1.7650   32.7177 C   0  0  0  0  0  0  0  0  0  0  0  0
  -30.9723   -2.4864   33.8725 C   0  0  0  0  0  0  0  0  0  0  0  0
  -33.1205   -1.4738   33.5879 C   0  0  0  0  0  0  0  0  0  0  0  0
  -32.2540   -2.2607   34.2990 C   0  0  0  0  0  0  0  0  0  0  0  0
  -34.4895   -1.2493   34.0480 C   0  0  0  0  0  0  0  0  0  0  0  0
  -34.7715   -0.1709   34.5457 N   0  0  0  0  0  0  0  0  0  0  0  0
  -34.0708    0.5885   35.1728 C   0  0  0  0  0  0  0  0  0  0  0  0
  -34.6195    1.9135   35.7075 C   0  0  0  0  0  0  0  0  0  0  0  0
  -36.1675    0.3277   34.3037 C   0  0  0  0  0  0  0  0  0  0  0  0
  -36.6755    1.5021   34.8131 C   0  0  0  0  0  0  0  0  0  0  0  0
  -35.8304    2.3134   35.5678 C   0  0  0  0  0  0  0  0  0  0  0  0
  -35.2009   -2.2439   33.8894 O   0  0  0  0  0  0  0  0  0  0  0  0
  -36.3209    3.5646   36.1207 C   0  0  0  0  0  0  0  0  0  0  0  0
  -35.9507    3.9550   37.1316 O   0  0  0  0  0  0  0  0  0  0  0  0
  -37.2091    4.1523   35.3933 O   0  0  0  0  0  0  0  0  0  0  0  0
  -31.0621    1.2415   30.9913 C   0  0  0  0  0  0  0  0  0  0  0  0
  -30.6406    1.7528   32.2032 C   0  0  0  0  0  0  0  0  0  0  0  0
  -30.6429    2.9614   32.5080 C   0  0  0  0  0  0  0  0  0  0  0  0
  1  2  2  3
  2  3  1  0
  3  4  1  0
  4  5  1  0
  5  6  1  0
  2  7  1  0
  6  7  1  0
  1  8  1  0
  8  9  2  0
  8 10  1  0
  5 11  1  0
 11 12  2  0
 11 13  1  0
  3 14  1  0
 10 15  1  0
 15 16  1  0
 20 22  1  0
 22 23  1  0
 23 24  1  0
 23 26  1  0
 25 28  1  0
 27 28  1  0
 22 29  2  0
 28 30  1  0
 30 31  1  0
 30 32  2  0
 15 33  1  0
 33 34  2  3
 34 35  1  0
 24 25  1  0
 27 26  1  0
 16 17  2  0
 17 20  1  0
 20 21  2  0
 21 19  1  0
 19 18  2  0
 18 16  1  0
M  END

$$$$
