No_4975-gen_results/8p0m/2024-11-26-14-13-15/
     RDKit          3D

  9  8  0  0  0  0  0  0  0  0999 V2000
  -27.9505   -0.5786   29.0402 P   0  0  0  0  0  0  0  0  0  0  0  0
  -27.2401    0.0613   28.4283 O   0  0  0  0  0  0  0  0  0  0  0  0
  -29.3621   -0.5774   28.6194 O   0  0  0  0  0  0  0  0  0  0  0  0
  -27.9298   -0.0063   30.5563 O   0  0  0  0  0  0  0  0  0  0  0  0
  -27.5440   -2.0509   29.4296 O   0  0  0  0  0  0  0  0  0  0  0  0
  -25.8618    0.1287   28.5871 C   0  0  0  0  0  0  0  0  0  0  0  0
  -25.2107    1.3917   28.9193 C   0  0  0  0  0  0  0  0  0  0  0  0
  -23.8344    1.3507   28.9657 C   0  0  0  0  0  0  0  0  0  0  0  0
  -23.2652    0.8079   30.1317 C   0  0  0  0  0  0  0  0  0  0  0  0
  1  2  1  0
  1  3  2  0
  1  4  1  0
  1  5  1  0
  2  6  1  0
  6  7  2  3
  7  8  1  0
  8  9  1  0
M  END

$$$$
