No_4752-gen_results/8p0m/2024-11-26-14-13-15/
     RDKit          3D

 19 21  0  0  0  0  0  0  0  0999 V2000
  -28.0162   -0.8135   28.8779 C   0  0  0  0  0  0  0  0  0  0  0  0
  -27.0636   -0.1189   28.6079 C   0  0  0  0  0  0  0  0  0  0  0  0
  -26.9287    1.1713   29.0083 C   0  0  0  0  0  0  0  0  0  0  0  0
  -25.7702    2.0341   28.6884 C   0  0  0  0  0  0  0  0  0  0  0  0
  -24.7141    1.4431   27.9188 C   0  0  0  0  0  0  0  0  0  0  0  0
  -24.8590    0.0783   27.5836 C   0  0  0  0  0  0  0  0  0  0  0  0
  -25.9647   -0.6606   27.9164 C   0  0  0  0  0  0  0  0  0  0  0  0
  -29.1701   -0.2984   28.9471 N   0  0  0  0  0  0  0  0  0  0  0  0
  -29.7216    0.3727   28.0429 C   0  0  0  0  0  0  0  0  0  0  0  0
  -31.1479    0.6367   28.1030 C   0  0  0  0  0  0  0  0  0  0  0  0
  -30.2025   -0.9144   29.8362 C   0  0  0  0  0  0  0  0  0  0  0  0
  -31.4958   -0.6102   29.8944 C   0  0  0  0  0  0  0  0  0  0  0  0
  -31.9610    0.2181   28.9680 C   0  0  0  0  0  0  0  0  0  0  0  0
  -23.4956    2.1236   27.5972 C   0  0  0  0  0  0  0  0  0  0  0  0
  -23.0991    2.7350   26.8235 N   0  0  0  0  0  0  0  0  0  0  0  0
  -22.3101    1.5668   28.3554 N   0  0  0  0  0  0  0  0  0  0  0  0
  -27.8109   -1.9707   29.4288 O   0  0  0  0  0  0  0  0  0  0  0  0
  -21.2088    2.0216   27.6676 C   0  0  0  0  0  0  0  0  0  0  0  0
  -21.7585    2.5403   26.6134 N   0  0  0  0  0  0  0  0  0  0  0  0
  1  2  1  0
  1  8  1  0
  8  9  1  0
  8 11  1  0
 10 13  1  0
 12 13  1  0
  5 14  1  0
 14 15  2  0
 14 16  1  0
  1 17  2  0
 16 18  1  0
 15 19  1  0
 18 19  1  0
  9 10  1  0
 12 11  1  0
  2  3  2  0
  3  4  1  0
  4  5  2  0
  5  6  1  0
  6  7  2  0
  7  2  1  0
M  END

$$$$
