No_456-gen_results/8p0m/2024-11-26-14-13-15/
     RDKit          3D

 24 26  0  0  0  0  0  0  0  0999 V2000
  -28.0162   -0.8135   28.8779 C   0  0  0  0  0  0  0  0  0  0  0  0
  -28.4690   -0.7850   29.8287 C   0  0  0  0  0  0  0  0  0  0  0  0
  -26.5042   -0.7777   28.8766 C   0  0  0  0  0  0  0  0  0  0  0  0
  -25.8103   -0.8531   30.1028 C   0  0  0  0  0  0  0  0  0  0  0  0
  -27.9906   -0.8916   31.2257 C   0  0  0  0  0  0  0  0  0  0  0  0
  -26.6042   -0.8676   31.2652 C   0  0  0  0  0  0  0  0  0  0  0  0
  -30.0739   -0.8360   29.8615 C   0  0  0  0  0  0  0  0  0  0  0  0
  -30.6891   -1.6554   30.2229 O   0  0  0  0  0  0  0  0  0  0  0  0
  -30.6229    0.3836   29.6329 O   0  0  0  0  0  0  0  0  0  0  0  0
  -25.6904   -0.6231   27.3911 Cl  0  0  0  0  0  0  0  0  0  0  0  0
  -31.6325    0.6345   29.1229 C   0  0  0  0  0  0  0  0  0  0  0  0
  -31.7948    1.9298   28.6260 C   0  0  0  0  0  0  0  0  0  0  0  0
  -30.9051    2.8758   28.9605 C   0  0  0  0  0  0  0  0  0  0  0  0
  -31.0897    4.2543   28.6210 C   0  0  0  0  0  0  0  0  0  0  0  0
  -30.1286    5.2708   29.0407 C   0  0  0  0  0  0  0  0  0  0  0  0
  -28.9791    4.8524   29.7338 C   0  0  0  0  0  0  0  0  0  0  0  0
  -28.7824    3.4928   30.0561 C   0  0  0  0  0  0  0  0  0  0  0  0
  -29.6967    2.6046   29.6813 C   0  0  0  0  0  0  0  0  0  0  0  0
  -27.5360    3.1487   30.8049 C   0  0  0  0  0  0  0  0  0  0  0  0
  -27.0586    3.9736   31.8207 C   0  0  0  0  0  0  0  0  0  0  0  0
  -25.9659    3.4999   32.5747 C   0  0  0  0  0  0  0  0  0  0  0  0
  -25.2643    2.3471   32.1908 C   0  0  0  0  0  0  0  0  0  0  0  0
  -25.6092    1.6890   31.0794 C   0  0  0  0  0  0  0  0  0  0  0  0
  -26.7953    2.0695   30.3950 C   0  0  0  0  0  0  0  0  0  0  0  0
  2  7  1  0
  7  8  2  0
  7  9  1  0
  3 10  1  0
  9 11  1  0
 11 12  2  3
 12 13  1  0
 17 19  1  0
 13 14  2  0
 14 15  1  0
 15 16  2  0
 16 17  1  0
 17 18  2  0
 18 13  1  0
  1  2  2  0
  2  5  1  0
  5  6  2  0
  6  4  1  0
  4  3  2  0
  3  1  1  0
 19 20  2  0
 20 21  1  0
 21 22  2  0
 22 23  1  0
 23 24  2  0
 24 19  1  0
M  END

$$$$
