No_454-gen_results/8p0m/2024-11-26-14-13-15/
     RDKit          3D

 17 19  0  0  0  0  0  0  0  0999 V2000
  -28.0162   -0.8135   28.8779 C   0  0  0  0  0  0  0  0  0  0  0  0
  -28.4690   -0.7850   29.8287 C   0  0  0  0  0  0  0  0  0  0  0  0
  -28.1816    0.4277   28.1134 C   0  0  0  0  0  0  0  0  0  0  0  0
  -27.4498    0.6435   26.8500 C   0  0  0  0  0  0  0  0  0  0  0  0
  -27.8596    1.4573   25.9076 C   0  0  0  0  0  0  0  0  0  0  0  0
  -29.4263    0.1097   30.4178 C   0  0  0  0  0  0  0  0  0  0  0  0
  -30.0593   -0.0863   31.6841 C   0  0  0  0  0  0  0  0  0  0  0  0
  -28.9785    1.4326   28.5693 C   0  0  0  0  0  0  0  0  0  0  0  0
  -29.5762    1.2651   29.7104 C   0  0  0  0  0  0  0  0  0  0  0  0
  -27.1601    1.5812   24.7090 C   0  0  0  0  0  0  0  0  0  0  0  0
  -26.0746    0.7654   24.4402 C   0  0  0  0  0  0  0  0  0  0  0  0
  -25.6245   -0.1131   25.4126 C   0  0  0  0  0  0  0  0  0  0  0  0
  -26.2711   -0.2041   26.5738 C   0  0  0  0  0  0  0  0  0  0  0  0
  -30.2151   -1.1337   32.2127 C   0  0  0  0  0  0  0  0  0  0  0  0
  -29.7667   -2.3284   31.5926 C   0  0  0  0  0  0  0  0  0  0  0  0
  -28.7326   -2.1813   30.5626 C   0  0  0  0  0  0  0  0  0  0  0  0
  -28.0930   -3.2177   30.0732 O   0  0  0  0  0  0  0  0  0  0  0  0
  3  4  1  0
  6  7  1  0
 14 15  1  0
  2 16  1  0
 15 16  1  0
 16 17  2  0
  7 14  1  0
  1  2  2  0
  2  6  1  0
  6  9  2  0
  9  8  1  0
  8  3  2  0
  3  1  1  0
  4  5  2  0
  5 10  1  0
 10 11  2  0
 11 12  1  0
 12 13  2  0
 13  4  1  0
M  END

$$$$
