No_4213-gen_results/8p0m/2024-11-26-14-13-15/
     RDKit          3D

 35 37  0  0  0  0  0  0  0  0999 V2000
  -28.0162   -0.8135   28.8779 C   0  0  0  0  0  0  0  0  0  0  0  0
  -28.4690   -0.7850   29.8287 C   0  0  0  0  0  0  0  0  0  0  0  0
  -28.1960    0.3478   28.0550 C   0  0  0  0  0  0  0  0  0  0  0  0
  -29.0191    1.3501   28.3782 C   0  0  0  0  0  0  0  0  0  0  0  0
  -29.4107    0.1803   30.3782 C   0  0  0  0  0  0  0  0  0  0  0  0
  -29.6059    1.2495   29.6193 C   0  0  0  0  0  0  0  0  0  0  0  0
  -27.4597    0.3802   26.7091 C   0  0  0  0  0  0  0  0  0  0  0  0
  -27.9298    0.5836   25.6804 C   0  0  0  0  0  0  0  0  0  0  0  0
  -27.5995    0.3985   24.6899 C   0  0  0  0  0  0  0  0  0  0  0  0
  -26.1547   -0.1147   24.4890 C   0  0  0  0  0  0  0  0  0  0  0  0
  -25.4641   -0.2852   25.6436 C   0  0  0  0  0  0  0  0  0  0  0  0
  -26.0936   -0.1258   26.8134 C   0  0  0  0  0  0  0  0  0  0  0  0
  -25.3306   -0.3999   28.0264 C   0  0  0  0  0  0  0  0  0  0  0  0
  -24.8048    0.7030   28.7690 C   0  0  0  0  0  0  0  0  0  0  0  0
  -24.0737    0.4786   29.9042 C   0  0  0  0  0  0  0  0  0  0  0  0
  -23.6762   -0.8101   30.2760 C   0  0  0  0  0  0  0  0  0  0  0  0
  -24.9126   -1.6417   28.4601 C   0  0  0  0  0  0  0  0  0  0  0  0
  -24.1016   -1.8784   29.5358 C   0  0  0  0  0  0  0  0  0  0  0  0
  -25.2035    2.1425   28.5183 C   0  0  0  0  0  0  0  0  0  0  0  0
  -24.1249    2.7540   27.9581 F   0  0  0  0  0  0  0  0  0  0  0  0
  -26.1479    2.2566   27.5723 F   0  0  0  0  0  0  0  0  0  0  0  0
  -25.4712    2.8238   29.6338 F   0  0  0  0  0  0  0  0  0  0  0  0
  -28.2812   -1.9956   30.9047 C   0  0  0  0  0  0  0  0  0  0  0  0
  -28.2467   -1.7643   31.9960 O   0  0  0  0  0  0  0  0  0  0  0  0
  -28.0833   -3.1432   30.3135 O   0  0  0  0  0  0  0  0  0  0  0  0
  -30.5125    2.4026   30.0573 C   0  0  0  0  0  0  0  0  0  0  0  0
  -31.0472    2.5250   31.0037 O   0  0  0  0  0  0  0  0  0  0  0  0
  -30.5529    3.3674   29.1589 O   0  0  0  0  0  0  0  0  0  0  0  0
  -28.6087   -4.2944   30.8976 C   0  0  0  0  0  0  0  0  0  0  0  0
  -29.9971   -4.5513   30.4688 C   0  0  0  0  0  0  0  0  0  0  0  0
  -30.3250   -4.3925   29.4290 O   0  0  0  0  0  0  0  0  0  0  0  0
  -30.8640   -4.7038   31.4498 N   0  0  0  0  0  0  0  0  0  0  0  0
  -30.6079   -4.8516   32.9128 C   0  0  0  0  0  0  0  0  0  0  0  0
  -32.2933   -4.9025   31.0351 C   0  0  0  0  0  0  0  0  0  0  0  0
  -30.4677   -6.0413   33.2225 C   0  0  0  0  0  0  0  0  0  0  0  0
  3  7  1  0
 12 13  1  0
 14 19  1  0
 19 20  1  0
 19 21  1  0
 19 22  1  0
  2 23  1  0
 23 24  2  0
 23 25  1  0
  6 26  1  0
 26 27  1  0
 26 28  2  0
 25 29  1  0
 29 30  1  0
 30 31  2  0
 30 32  1  0
 32 33  1  0
 32 34  1  0
 33 35  1  0
 13 14  2  0
 14 15  1  0
 15 16  2  0
 16 18  1  0
 18 17  2  0
 17 13  1  0
  1  2  2  0
  2  5  1  0
  5  6  2  0
  6  4  1  0
  4  3  2  0
  3  1  1  0
  7  8  2  0
  8  9  1  0
  9 10  2  0
 10 11  1  0
 11 12  2  0
 12  7  1  0
M  END

$$$$
