No_4392-gen_results/8p0m/2024-11-26-14-13-15/
     RDKit          3D

 35 39  0  0  0  0  0  0  0  0999 V2000
  -28.0162   -0.8135   28.8779 C   0  0  0  0  0  0  0  0  0  0  0  0
  -27.0636   -0.1189   28.6079 C   0  0  0  0  0  0  0  0  0  0  0  0
  -25.7647   -0.3897   29.0360 C   0  0  0  0  0  0  0  0  0  0  0  0
  -25.5296   -1.5302   29.9014 C   0  0  0  0  0  0  0  0  0  0  0  0
  -26.6577   -2.2915   30.2035 C   0  0  0  0  0  0  0  0  0  0  0  0
  -27.8548   -1.9555   29.7630 C   0  0  0  0  0  0  0  0  0  0  0  0
  -24.5441    0.4126   28.7379 C   0  0  0  0  0  0  0  0  0  0  0  0
  -24.0952    1.3785   29.5751 C   0  0  0  0  0  0  0  0  0  0  0  0
  -22.9715    2.1448   29.2493 C   0  0  0  0  0  0  0  0  0  0  0  0
  -22.4346    1.8958   27.9699 C   0  0  0  0  0  0  0  0  0  0  0  0
  -23.6188    0.7764   27.6627 C   0  0  0  0  0  0  0  0  0  0  0  0
  -24.6903    1.5693   31.0162 C   0  0  0  0  0  0  0  0  0  0  0  0
  -24.8258    0.7015   31.8729 N   0  0  0  0  0  0  0  0  0  0  0  0
  -25.1398    2.9267   31.2861 C   0  0  0  0  0  0  0  0  0  0  0  0
  -25.5131    0.9316   33.0523 C   0  0  0  0  0  0  0  0  0  0  0  0
  -24.8660    3.8401   30.4432 F   0  0  0  0  0  0  0  0  0  0  0  0
  -25.3637    3.2196   32.5791 C   0  0  0  0  0  0  0  0  0  0  0  0
  -25.7748   -0.0753   33.9440 N   0  0  0  0  0  0  0  0  0  0  0  0
  -25.7524    2.2413   33.4640 C   0  0  0  0  0  0  0  0  0  0  0  0
  -27.2624    1.3194   27.5856 Cl  0  0  0  0  0  0  0  0  0  0  0  0
  -26.9404   -0.2580   34.5769 C   0  0  0  0  0  0  0  0  0  0  0  0
  -24.5903   -0.4237   34.7519 C   0  0  0  0  0  0  0  0  0  0  0  0
  -27.0655   -0.8806   35.6557 C   0  0  0  0  0  0  0  0  0  0  0  0
  -27.4868   -0.4391   36.4721 C   0  0  0  0  0  0  0  0  0  0  0  0
  -28.7362    0.4190   36.4531 C   0  0  0  0  0  0  0  0  0  0  0  0
  -28.9586    0.9822   35.1740 C   0  0  0  0  0  0  0  0  0  0  0  0
  -27.7416    1.0379   34.6407 C   0  0  0  0  0  0  0  0  0  0  0  0
  -27.2034    1.9840   33.4194 C   0  0  0  0  0  0  0  0  0  0  0  0
  -29.0518   -2.5278   30.1102 O   0  0  0  0  0  0  0  0  0  0  0  0
  -30.1413   -1.9477   30.4669 C   0  0  0  0  0  0  0  0  0  0  0  0
  -30.9091   -2.5701   31.4280 C   0  0  0  0  0  0  0  0  0  0  0  0
  -31.9589   -1.8939   31.9509 C   0  0  0  0  0  0  0  0  0  0  0  0
  -30.7013   -3.9066   31.8276 C   0  0  0  0  0  0  0  0  0  0  0  0
  -32.2366   -0.5373   31.7234 C   0  0  0  0  0  0  0  0  0  0  0  0
  -31.3910    0.0549   30.7446 C   0  0  0  0  0  0  0  0  0  0  0  0
  3  7  1  0
  7  8  2  0
  8  9  1  0
  9 10  2  0
  7 11  1  0
 10 11  1  0
  8 12  1  0
 14 16  1  0
 15 18  1  0
  2 20  1  0
 18 21  1  0
 18 22  1  0
 19 28  1  0
 27 28  1  0
  6 29  1  0
 29 30  1  0
 30 31  1  0
 31 32  2  3
 31 33  1  0
 32 34  1  0
 34 35  2  0
 21 23  2  0
 23 24  1  0
 24 25  2  0
 25 26  1  0
 26 27  2  0
 27 21  1  0
  1  2  2  0
  2  3  1  0
  3  4  2  0
  4  5  1  0
  5  6  2  0
  6  1  1  0
 12 13  2  0
 13 15  1  0
 15 19  2  0
 19 17  1  0
 17 14  2  0
 14 12  1  0
M  END

$$$$
