No_4310-gen_results/8p0m/2024-11-26-14-13-15/
     RDKit          3D

 35 38  0  0  0  0  0  0  0  0999 V2000
  -28.0162   -0.8135   28.8779 C   0  0  0  0  0  0  0  0  0  0  0  0
  -27.0636   -0.1189   28.6079 C   0  0  0  0  0  0  0  0  0  0  0  0
  -25.7647   -0.3897   29.0360 C   0  0  0  0  0  0  0  0  0  0  0  0
  -25.5296   -1.5302   29.9014 C   0  0  0  0  0  0  0  0  0  0  0  0
  -26.6888   -2.2893   30.1810 C   0  0  0  0  0  0  0  0  0  0  0  0
  -27.8727   -1.9508   29.7373 C   0  0  0  0  0  0  0  0  0  0  0  0
  -29.0016   -2.8142   30.1793 C   0  0  0  0  0  0  0  0  0  0  0  0
  -28.8271   -4.0755   30.4770 N   0  0  0  0  0  0  0  0  0  0  0  0
  -30.1619   -2.3440   30.2525 O   0  0  0  0  0  0  0  0  0  0  0  0
  -29.8734   -5.0252   30.8174 C   0  0  0  0  0  0  0  0  0  0  0  0
  -30.7705   -5.2846   29.8281 C   0  0  0  0  0  0  0  0  0  0  0  0
  -31.4796   -6.4352   29.9353 C   0  0  0  0  0  0  0  0  0  0  0  0
  -32.3283   -6.8494   28.8219 C   0  0  0  0  0  0  0  0  0  0  0  0
  -32.3345   -6.0455   27.6244 C   0  0  0  0  0  0  0  0  0  0  0  0
  -31.4813   -4.9359   27.5613 C   0  0  0  0  0  0  0  0  0  0  0  0
  -30.6692   -4.5933   28.5857 C   0  0  0  0  0  0  0  0  0  0  0  0
  -24.5531    0.4255   28.6829 C   0  0  0  0  0  0  0  0  0  0  0  0
  -24.5682    1.3552   27.6491 C   0  0  0  0  0  0  0  0  0  0  0  0
  -23.5992    1.9541   27.2978 C   0  0  0  0  0  0  0  0  0  0  0  0
  -22.2456    1.7566   27.8206 C   0  0  0  0  0  0  0  0  0  0  0  0
  -23.2999    0.1236   29.2632 C   0  0  0  0  0  0  0  0  0  0  0  0
  -22.1394    0.8170   28.8217 C   0  0  0  0  0  0  0  0  0  0  0  0
  -23.6355    3.0324   26.1959 C   0  0  0  0  0  0  0  0  0  0  0  0
  -29.8109   -5.5434   31.9709 O   0  0  0  0  0  0  0  0  0  0  0  0
  -33.1948   -6.4509   26.5379 C   0  0  0  0  0  0  0  0  0  0  0  0
  -33.5831   -5.5954   25.8083 O   0  0  0  0  0  0  0  0  0  0  0  0
  -33.3994   -7.7865   26.2102 N   0  0  0  0  0  0  0  0  0  0  0  0
  -32.8233   -8.8565   26.9549 C   0  0  0  0  0  0  0  0  0  0  0  0
  -34.1920   -8.1274   25.0529 C   0  0  0  0  0  0  0  0  0  0  0  0
  -33.6201   -9.6608   27.6720 C   0  0  0  0  0  0  0  0  0  0  0  0
  -34.8879   -9.5741   27.7713 C   0  0  0  0  0  0  0  0  0  0  0  0
  -35.6756  -10.4705   28.5866 C   0  0  0  0  0  0  0  0  0  0  0  0
  -34.9621  -11.4990   29.2272 C   0  0  0  0  0  0  0  0  0  0  0  0
  -33.6412  -11.6565   29.1416 C   0  0  0  0  0  0  0  0  0  0  0  0
  -32.8612  -10.7576   28.4135 C   0  0  0  0  0  0  0  0  0  0  0  0
  6  7  1  0
  7  8  1  0
  7  9  2  0
  8 10  1  0
 10 11  1  0
  3 17  1  0
 19 23  1  0
 10 24  2  0
 14 25  1  0
 25 26  2  0
 25 27  1  0
 27 28  1  0
 27 29  1  0
 28 30  1  0
 11 12  2  0
 12 13  1  0
 13 14  2  0
 14 15  1  0
 15 16  2  0
 16 11  1  0
  1  2  2  0
  2  3  1  0
  3  4  2  0
  4  5  1  0
  5  6  2  0
  6  1  1  0
 17 18  2  0
 18 19  1  0
 19 20  2  0
 20 22  1  0
 22 21  2  0
 21 17  1  0
 30 31  2  0
 31 32  1  0
 32 33  2  0
 33 34  1  0
 34 35  2  0
 35 30  1  0
M  END

$$$$
