No_4020-gen_results/8p0m/2024-11-26-14-13-15/
     RDKit          3D

 35 38  0  0  0  0  0  0  0  0999 V2000
  -28.0162   -0.8135   28.8779 C   0  0  0  0  0  0  0  0  0  0  0  0
  -28.4690   -0.7850   29.8287 C   0  0  0  0  0  0  0  0  0  0  0  0
  -26.5455   -0.8762   28.8500 C   0  0  0  0  0  0  0  0  0  0  0  0
  -25.8041   -1.0324   30.0571 C   0  0  0  0  0  0  0  0  0  0  0  0
  -26.5373   -1.0386   31.2171 C   0  0  0  0  0  0  0  0  0  0  0  0
  -27.8843   -0.9532   31.1862 C   0  0  0  0  0  0  0  0  0  0  0  0
  -24.3655   -1.1134   30.0483 C   0  0  0  0  0  0  0  0  0  0  0  0
  -23.7447   -1.3690   30.8125 C   0  0  0  0  0  0  0  0  0  0  0  0
  -22.2072   -1.2504   30.8577 C   0  0  0  0  0  0  0  0  0  0  0  0
  -21.6856   -0.8191   29.6527 C   0  0  0  0  0  0  0  0  0  0  0  0
  -23.5890   -0.4882   28.8741 C   0  0  0  0  0  0  0  0  0  0  0  0
  -22.3746   -0.3682   28.7529 C   0  0  0  0  0  0  0  0  0  0  0  0
  -30.0604   -0.6727   29.9132 C   0  0  0  0  0  0  0  0  0  0  0  0
  -30.5093   -0.1986   28.9797 O   0  0  0  0  0  0  0  0  0  0  0  0
  -30.7723   -1.4787   30.8062 N   0  0  0  0  0  0  0  0  0  0  0  0
  -32.1957   -1.4611   30.7592 C   0  0  0  0  0  0  0  0  0  0  0  0
  -32.7348   -2.4511   31.2080 C   0  0  0  0  0  0  0  0  0  0  0  0
  -32.0663   -3.4427   32.0118 C   0  0  0  0  0  0  0  0  0  0  0  0
  -30.6530   -3.4653   32.0408 C   0  0  0  0  0  0  0  0  0  0  0  0
  -30.0537   -2.4301   31.6888 C   0  0  0  0  0  0  0  0  0  0  0  0
  -30.0045   -4.5964   32.7338 C   0  0  0  0  0  0  0  0  0  0  0  0
  -30.0771   -5.7641   32.4349 N   0  0  0  0  0  0  0  0  0  0  0  0
  -30.1387   -6.7644   33.2538 C   0  0  0  0  0  0  0  0  0  0  0  0
  -30.0796   -6.1144   31.0314 C   0  0  0  0  0  0  0  0  0  0  0  0
  -29.3164   -4.1629   33.8197 O   0  0  0  0  0  0  0  0  0  0  0  0
  -31.2324   -5.9967   30.2726 C   0  0  0  0  0  0  0  0  0  0  0  0
  -31.9947   -7.0102   30.3875 C   0  0  0  0  0  0  0  0  0  0  0  0
  -33.2146   -7.0440   29.5210 C   0  0  0  0  0  0  0  0  0  0  0  0
  -33.4096   -5.9995   28.6182 C   0  0  0  0  0  0  0  0  0  0  0  0
  -32.4936   -4.9411   28.5627 C   0  0  0  0  0  0  0  0  0  0  0  0
  -31.3550   -4.9456   29.3405 C   0  0  0  0  0  0  0  0  0  0  0  0
  -32.7727   -3.6644   27.4319 Cl  0  0  0  0  0  0  0  0  0  0  0  0
  -34.2497   -2.6052   31.1540 C   0  0  0  0  0  0  0  0  0  0  0  0
  -34.9687   -3.3957   31.8579 C   0  0  0  0  0  0  0  0  0  0  0  0
  -36.3773   -3.5304   31.6853 C   0  0  0  0  0  0  0  0  0  0  0  0
  4  7  1  0
  2 13  1  0
 13 14  2  0
 13 15  1  0
 15 16  1  0
 17 18  1  0
 15 20  1  0
 19 20  1  0
 19 21  1  0
 21 22  1  0
 22 23  1  0
 22 24  1  0
 21 25  2  0
 24 26  1  0
 30 32  1  0
 17 33  1  0
 33 34  2  3
 34 35  1  0
 16 17  1  0
 18 19  1  0
  7  8  2  0
  8  9  1  0
  9 10  2  0
 10 12  1  0
 12 11  2  0
 11  7  1  0
  1  2  2  0
  2  6  1  0
  6  5  2  0
  5  4  1  0
  4  3  2  0
  3  1  1  0
 26 27  2  0
 27 28  1  0
 28 29  2  0
 29 30  1  0
 30 31  2  0
 31 26  1  0
M  END

$$$$
