No_4232-gen_results/8p0m/2024-11-26-14-13-15/
     RDKit          3D

 18 18  0  0  0  0  0  0  0  0999 V2000
  -28.0162   -0.8135   28.8779 C   0  0  0  0  0  0  0  0  0  0  0  0
  -27.0636   -0.1190   28.6079 C   0  0  0  0  0  0  0  0  0  0  0  0
  -26.9287    1.1713   29.0083 C   0  0  0  0  0  0  0  0  0  0  0  0
  -25.7702    2.0341   28.6884 C   0  0  0  0  0  0  0  0  0  0  0  0
  -24.7141    1.4431   27.9188 C   0  0  0  0  0  0  0  0  0  0  0  0
  -24.8590    0.0783   27.5836 C   0  0  0  0  0  0  0  0  0  0  0  0
  -25.9647   -0.6606   27.9164 C   0  0  0  0  0  0  0  0  0  0  0  0
  -27.9820   -1.6112   30.1028 N   0  0  0  0  0  0  0  0  0  0  0  0
  -23.5351    2.1704   27.5550 C   0  0  0  0  0  0  0  0  0  0  0  0
  -22.6455    1.5740   27.1506 F   0  0  0  0  0  0  0  0  0  0  0  0
  -23.0609    2.8934   28.6474 F   0  0  0  0  0  0  0  0  0  0  0  0
  -23.8997    3.1900   26.7043 F   0  0  0  0  0  0  0  0  0  0  0  0
  -29.2132   -0.3754   28.6958 O   0  0  0  0  0  0  0  0  0  0  0  0
  -29.0345   -2.4694   30.6250 C   0  0  0  0  0  0  0  0  0  0  0  0
  -26.6855   -1.9883   30.7144 C   0  0  0  0  0  0  0  0  0  0  0  0
  -28.9202   -3.8224   30.3125 C   0  0  0  0  0  0  0  0  0  0  0  0
  -29.8220   -4.5902   30.6631 O   0  0  0  0  0  0  0  0  0  0  0  0
  -27.7211   -4.3953   30.1370 O   0  0  0  0  0  0  0  0  0  0  0  0
  1  2  1  0
  1  8  1  0
  5  9  1  0
  9 10  1  0
  9 11  1  0
  9 12  1  0
  1 13  2  0
  8 14  1  0
  8 15  1  0
 14 16  1  0
 16 17  2  0
 16 18  1  0
  2  3  2  0
  3  4  1  0
  4  5  2  0
  5  6  1  0
  6  7  2  0
  7  2  1  0
M  END

$$$$
