No_4011-gen_results/8p0m/2024-11-26-14-13-15/
     RDKit          3D

 21 23  0  0  0  0  0  0  0  0999 V2000
  -28.0162   -0.8135   28.8779 C   0  0  0  0  0  0  0  0  0  0  0  0
  -27.0636   -0.1190   28.6079 C   0  0  0  0  0  0  0  0  0  0  0  0
  -26.9716    0.7139   27.5060 C   0  0  0  0  0  0  0  0  0  0  0  0
  -28.1053    0.7744   26.6421 C   0  0  0  0  0  0  0  0  0  0  0  0
  -29.2008    0.1044   27.0527 C   0  0  0  0  0  0  0  0  0  0  0  0
  -29.2096   -0.6029   28.1853 C   0  0  0  0  0  0  0  0  0  0  0  0
  -30.3749    0.2232   26.1670 C   0  0  0  0  0  0  0  0  0  0  0  0
  -31.2461   -0.4191   26.3596 O   0  0  0  0  0  0  0  0  0  0  0  0
  -30.1447    0.7056   24.9278 O   0  0  0  0  0  0  0  0  0  0  0  0
  -25.6995   -0.2158   29.4380 C   0  0  0  0  0  0  0  0  0  0  0  0
  -25.1498    1.0199   29.9525 C   0  0  0  0  0  0  0  0  0  0  0  0
  -23.7924    0.9761   30.1881 C   0  0  0  0  0  0  0  0  0  0  0  0
  -23.0126   -0.1925   30.1461 C   0  0  0  0  0  0  0  0  0  0  0  0
  -23.6068   -1.3262   29.6430 C   0  0  0  0  0  0  0  0  0  0  0  0
  -24.9329   -1.3605   29.1958 C   0  0  0  0  0  0  0  0  0  0  0  0
  -25.8729    2.2258   30.1291 C   0  0  0  0  0  0  0  0  0  0  0  0
  -26.9569    2.2840   30.2627 C   0  0  0  0  0  0  0  0  0  0  0  0
  -27.6895    3.5621   30.5585 C   0  0  0  0  0  0  0  0  0  0  0  0
  -26.9857    4.7074   30.5080 C   0  0  0  0  0  0  0  0  0  0  0  0
  -25.6465    4.6595   30.2206 C   0  0  0  0  0  0  0  0  0  0  0  0
  -25.0413    3.4659   30.0727 C   0  0  0  0  0  0  0  0  0  0  0  0
  5  7  1  0
  7  8  1  0
  7  9  2  0
  2 10  1  0
 11 16  1  0
  1  2  2  0
  2  3  1  0
  3  4  2  0
  4  5  1  0
  5  6  2  0
  6  1  1  0
 10 11  1  0
 11 12  2  0
 12 13  1  0
 13 14  2  0
 14 15  1  0
 15 10  2  0
 16 17  2  0
 17 18  1  0
 18 19  2  0
 19 20  1  0
 20 21  2  0
 21 16  1  0
M  END

$$$$
