No_4387-gen_results/8p0m/2024-11-26-14-13-15/
     RDKit          3D

 14 14  0  0  0  0  0  0  0  0999 V2000
  -28.0162   -0.8135   28.8779 C   0  0  0  0  0  0  0  0  0  0  0  0
  -28.4690   -0.7850   29.8287 C   0  0  0  0  0  0  0  0  0  0  0  0
  -27.0871    0.2903   28.6377 C   0  0  0  0  0  0  0  0  0  0  0  0
  -26.8317    1.2487   29.5869 C   0  0  0  0  0  0  0  0  0  0  0  0
  -28.3914    0.0801   31.0065 C   0  0  0  0  0  0  0  0  0  0  0  0
  -27.4940    1.1521   30.7841 C   0  0  0  0  0  0  0  0  0  0  0  0
  -26.3172    0.3994   27.3653 C   0  0  0  0  0  0  0  0  0  0  0  0
  -26.8815    0.9711   26.3721 C   0  0  0  0  0  0  0  0  0  0  0  0
  -28.2026    1.4637   26.4214 C   0  0  0  0  0  0  0  0  0  0  0  0
  -28.8475    1.7009   27.4515 C   0  0  0  0  0  0  0  0  0  0  0  0
  -29.9407    2.2689   27.5240 C   0  0  0  0  0  0  0  0  0  0  0  0
  -30.7358    2.5571   28.7129 C   0  0  0  0  0  0  0  0  0  0  0  0
  -31.9763    3.1003   28.7532 C   0  0  0  0  0  0  0  0  0  0  0  0
  -32.5059    3.5076   27.5023 C   0  0  0  0  0  0  0  0  0  0  0  0
  3  7  1  0
  7  8  2  3
  8  9  1  0
  9 10  1  0
 10 11  2  3
 11 12  1  0
 12 13  2  3
 13 14  1  0
  1  2  2  0
  2  5  1  0
  5  6  2  0
  6  4  1  0
  4  3  2  0
  3  1  1  0
M  END

$$$$
