No_4861-gen_results/8p0m/2024-11-26-14-13-15/
     RDKit          3D

 15 15  0  0  0  0  0  0  0  0999 V2000
  -28.0162   -0.8135   28.8779 C   0  0  0  0  0  0  0  0  0  0  0  0
  -27.0636   -0.1189   28.6079 C   0  0  0  0  0  0  0  0  0  0  0  0
  -25.7647   -0.3897   29.0360 C   0  0  0  0  0  0  0  0  0  0  0  0
  -24.5516    0.4058   28.7646 C   0  0  0  0  0  0  0  0  0  0  0  0
  -24.6957    1.4480   27.7988 C   0  0  0  0  0  0  0  0  0  0  0  0
  -25.9755    1.7250   27.3077 C   0  0  0  0  0  0  0  0  0  0  0  0
  -27.0718    1.0134   27.6535 C   0  0  0  0  0  0  0  0  0  0  0  0
  -29.2260   -0.0677   29.3149 C   0  0  0  0  0  0  0  0  0  0  0  0
  -29.2620    0.3991   30.2393 F   0  0  0  0  0  0  0  0  0  0  0  0
  -30.2446   -0.7808   28.9954 F   0  0  0  0  0  0  0  0  0  0  0  0
  -23.4986    2.2336   27.5084 C   0  0  0  0  0  0  0  0  0  0  0  0
  -23.6036    3.1623   26.6892 O   0  0  0  0  0  0  0  0  0  0  0  0
  -22.3051    1.8586   27.8844 O   0  0  0  0  0  0  0  0  0  0  0  0
  -29.4638    0.9423   28.3696 F   0  0  0  0  0  0  0  0  0  0  0  0
  -25.5037   -1.3493   29.9088 O   0  0  0  0  0  0  0  0  0  0  0  0
  2  3  1  0
  3  4  1  0
  4  5  1  0
  5  6  1  0
  2  7  1  0
  1  8  1  0
  8  9  1  0
  8 10  1  0
  5 11  1  0
 11 12  2  0
 11 13  1  0
  8 14  1  0
  3 15  2  0
  1  2  1  0
  7  6  1  0
M  END

$$$$
