No_4141-gen_results/8p0m/2024-11-26-14-13-15/
     RDKit          3D

 33 35  0  0  0  0  0  0  0  0999 V2000
  -28.0162   -0.8135   28.8779 C   0  0  0  0  0  0  0  0  0  0  0  0
  -27.0636   -0.1190   28.6079 C   0  0  0  0  0  0  0  0  0  0  0  0
  -25.7923   -0.4302   29.0761 C   0  0  0  0  0  0  0  0  0  0  0  0
  -24.5456    0.3494   28.8225 C   0  0  0  0  0  0  0  0  0  0  0  0
  -24.6586    1.4196   27.8878 C   0  0  0  0  0  0  0  0  0  0  0  0
  -25.9471    1.6811   27.3792 C   0  0  0  0  0  0  0  0  0  0  0  0
  -27.0439    0.9739   27.6871 C   0  0  0  0  0  0  0  0  0  0  0  0
  -27.9517   -1.7518   29.9375 N   0  0  0  0  0  0  0  0  0  0  0  0
  -29.1108   -0.7488   28.3347 O   0  0  0  0  0  0  0  0  0  0  0  0
  -29.0453   -2.6075   30.3999 C   0  0  0  0  0  0  0  0  0  0  0  0
  -23.4628    2.1700   27.6032 C   0  0  0  0  0  0  0  0  0  0  0  0
  -22.2718    1.7430   28.0543 N   0  0  0  0  0  0  0  0  0  0  0  0
  -23.6242    3.6678   26.9297 Cl  0  0  0  0  0  0  0  0  0  0  0  0
  -28.7561   -3.9558   30.3836 C   0  0  0  0  0  0  0  0  0  0  0  0
  -27.6791   -4.3583   30.2700 O   0  0  0  0  0  0  0  0  0  0  0  0
  -29.7839   -4.8102   30.1365 O   0  0  0  0  0  0  0  0  0  0  0  0
  -29.2533   -2.1545   31.9066 C   0  0  0  0  0  0  0  0  0  0  0  0
  -28.3530   -1.8727   32.6100 O   0  0  0  0  0  0  0  0  0  0  0  0
  -30.5150   -1.7783   32.1796 N   0  0  0  0  0  0  0  0  0  0  0  0
  -30.8198   -1.3103   33.5542 C   0  0  0  0  0  0  0  0  0  0  0  0
  -31.9651   -0.9669   33.6545 C   0  0  0  0  0  0  0  0  0  0  0  0
  -31.7837   -1.7780   31.5703 C   0  0  0  0  0  0  0  0  0  0  0  0
  -32.6955   -1.2461   32.3451 C   0  0  0  0  0  0  0  0  0  0  0  0
  -22.0471    0.6525   28.6769 C   0  0  0  0  0  0  0  0  0  0  0  0
  -23.1757   -0.1626   29.1131 C   0  0  0  0  0  0  0  0  0  0  0  0
  -20.8326    0.2553   28.9936 N   0  0  0  0  0  0  0  0  0  0  0  0
  -34.0690   -1.0311   32.0251 C   0  0  0  0  0  0  0  0  0  0  0  0
  -34.7519   -0.3761   32.8350 N   0  0  0  0  0  0  0  0  0  0  0  0
  -34.5662    0.3719   33.6257 C   0  0  0  0  0  0  0  0  0  0  0  0
  -35.6453    1.0668   34.3397 N   0  0  0  0  0  0  0  0  0  0  0  0
  -35.2072    1.9413   35.3053 C   0  0  0  0  0  0  0  0  0  0  0  0
  -33.9601    2.1582   35.6043 N   0  0  0  0  0  0  0  0  0  0  0  0
  -32.9450    1.5559   34.9736 C   0  0  0  0  0  0  0  0  0  0  0  0
  1  2  1  0
  1  8  1  0
  1  9  2  0
  8 10  1  0
 11 13  1  0
 10 14  1  0
 14 15  1  0
 14 16  2  0
 10 17  1  0
 17 18  2  0
 17 19  1  0
 19 20  1  0
 20 21  2  0
 19 22  1  0
 21 23  1  0
 22 23  2  0
 24 26  1  0
 23 27  1  0
 27 28  1  0
 28 29  2  0
 29 30  2  0
 30 31  1  0
 31 32  2  3
 32 33  1  0
  2  3  2  0
  3  4  1  0
  5  6  1  0
  6  7  2  0
  7  2  1  0
  4  5  2  0
  5 11  1  0
 11 12  2  0
 12 24  1  0
 24 25  2  0
 25  4  1  0
M  END

$$$$
