No_4389-gen_results/8p0m/2024-11-26-14-13-15/
     RDKit          3D

 15 15  0  0  0  0  0  0  0  0999 V2000
  -28.0162   -0.8135   28.8779 C   0  0  0  0  0  0  0  0  0  0  0  0
  -27.0636   -0.1189   28.6079 C   0  0  0  0  0  0  0  0  0  0  0  0
  -26.9716    0.7139   27.5060 C   0  0  0  0  0  0  0  0  0  0  0  0
  -25.8205    1.4909   27.1160 C   0  0  0  0  0  0  0  0  0  0  0  0
  -24.6562    1.4242   27.9180 C   0  0  0  0  0  0  0  0  0  0  0  0
  -24.6847    0.5901   29.0659 C   0  0  0  0  0  0  0  0  0  0  0  0
  -25.8099   -0.1266   29.3338 C   0  0  0  0  0  0  0  0  0  0  0  0
  -28.6943   -0.4734   30.1587 C   0  0  0  0  0  0  0  0  0  0  0  0
  -28.5789    0.8148   30.8542 Cl  0  0  0  0  0  0  0  0  0  0  0  0
  -29.5815   -1.5842   30.7626 C   0  0  0  0  0  0  0  0  0  0  0  0
  -23.4635    2.1972   27.5956 C   0  0  0  0  0  0  0  0  0  0  0  0
  -23.6775    3.3210   27.1705 F   0  0  0  0  0  0  0  0  0  0  0  0
  -22.6310    2.3882   28.6697 F   0  0  0  0  0  0  0  0  0  0  0  0
  -22.6551    1.5318   26.7220 F   0  0  0  0  0  0  0  0  0  0  0  0
  -29.7248   -1.5928   31.9242 O   0  0  0  0  0  0  0  0  0  0  0  0
  1  8  1  0
  8  9  1  0
  8 10  1  0
  5 11  1  0
 11 12  1  0
 11 13  1  0
 11 14  1  0
 10 15  2  0
  1  2  1  0
  2  3  2  0
  3  4  1  0
  4  5  2  0
  5  6  1  0
  6  7  2  0
  7  2  1  0
M  END

$$$$
