No_4868-gen_results/8p0m/2024-11-26-14-13-15/
     RDKit          3D

 13 14  0  0  0  0  0  0  0  0999 V2000
  -28.0162   -0.8135   28.8779 C   0  0  0  0  0  0  0  0  0  0  0  0
  -28.4690   -0.7850   29.8287 C   0  0  0  0  0  0  0  0  0  0  0  0
  -28.1960    0.3478   28.0550 C   0  0  0  0  0  0  0  0  0  0  0  0
  -29.0191    1.3501   28.3782 C   0  0  0  0  0  0  0  0  0  0  0  0
  -29.4107    0.1803   30.3782 C   0  0  0  0  0  0  0  0  0  0  0  0
  -29.6059    1.2495   29.6193 C   0  0  0  0  0  0  0  0  0  0  0  0
  -27.5395    0.5047   26.6834 C   0  0  0  0  0  0  0  0  0  0  0  0
  -26.7901    1.6157   26.4776 C   0  0  0  0  0  0  0  0  0  0  0  0
  -25.6237    1.5359   25.7251 C   0  0  0  0  0  0  0  0  0  0  0  0
  -24.6242    2.5626   25.8228 C   0  0  0  0  0  0  0  0  0  0  0  0
  -25.0027    3.8008   26.4476 C   0  0  0  0  0  0  0  0  0  0  0  0
  -26.2126    3.8369   27.1684 C   0  0  0  0  0  0  0  0  0  0  0  0
  -27.0376    2.7568   27.2226 C   0  0  0  0  0  0  0  0  0  0  0  0
  3  7  1  0
  7  8  1  0
  8  9  2  0
  9 10  1  0
 10 11  2  0
 11 12  1  0
 12 13  2  0
 13  8  1  0
  1  2  2  0
  2  5  1  0
  5  6  2  0
  6  4  1  0
  4  3  2  0
  3  1  1  0
M  END

$$$$
