No_4402-gen_results/8p0m/2024-11-26-14-13-15/
     RDKit          3D

 24 28  0  0  0  0  0  0  0  0999 V2000
  -28.0162   -0.8135   28.8779 C   0  0  0  0  0  0  0  0  0  0  0  0
  -28.4690   -0.7850   29.8287 C   0  0  0  0  0  0  0  0  0  0  0  0
  -26.5042   -0.7777   28.8766 C   0  0  0  0  0  0  0  0  0  0  0  0
  -25.8103   -0.8531   30.1028 C   0  0  0  0  0  0  0  0  0  0  0  0
  -27.9906   -0.8916   31.2257 C   0  0  0  0  0  0  0  0  0  0  0  0
  -26.6042   -0.8676   31.2652 C   0  0  0  0  0  0  0  0  0  0  0  0
  -29.9385   -0.8194   29.8358 O   0  0  0  0  0  0  0  0  0  0  0  0
  -30.5356   -0.1119   28.9448 C   0  0  0  0  0  0  0  0  0  0  0  0
  -31.4501   -0.5434   28.1111 C   0  0  0  0  0  0  0  0  0  0  0  0
  -32.0404    0.1645   27.0421 C   0  0  0  0  0  0  0  0  0  0  0  0
  -31.6050    1.5042   26.9115 C   0  0  0  0  0  0  0  0  0  0  0  0
  -30.6305    2.0115   27.7313 C   0  0  0  0  0  0  0  0  0  0  0  0
  -30.0462    1.2281   28.7239 C   0  0  0  0  0  0  0  0  0  0  0  0
  -24.3763   -0.8403   30.1385 C   0  0  0  0  0  0  0  0  0  0  0  0
  -23.6218   -0.6032   29.0639 C   0  0  0  0  0  0  0  0  0  0  0  0
  -22.4701    0.0212   29.0568 C   0  0  0  0  0  0  0  0  0  0  0  0
  -21.9858    0.8829   28.3578 C   0  0  0  0  0  0  0  0  0  0  0  0
  -22.8530    1.5256   27.3720 C   0  0  0  0  0  0  0  0  0  0  0  0
  -24.1291    1.0434   27.1743 C   0  0  0  0  0  0  0  0  0  0  0  0
  -24.5765    0.0771   28.0385 C   0  0  0  0  0  0  0  0  0  0  0  0
  -25.8235   -0.3210   27.8335 N   0  0  0  0  0  0  0  0  0  0  0  0
  -26.3501   -0.3583   26.5538 C   0  0  0  0  0  0  0  0  0  0  0  0
  -25.7170   -0.1717   25.4398 C   0  0  0  0  0  0  0  0  0  0  0  0
  -24.4913    0.8919   25.6931 C   0  0  0  0  0  0  0  0  0  0  0  0
  2  7  1  0
  7  8  1  0
  4 14  1  0
  3 21  1  0
 20 21  1  0
 21 22  1  0
 19 24  1  0
 23 24  1  0
 14 15  1  0
 23 22  1  0
 15 16  2  0
 16 17  1  0
 17 18  2  0
 18 19  1  0
 19 20  2  0
 20 15  1  0
  1  2  2  0
  2  5  1  0
  5  6  2  0
  6  4  1  0
  4  3  2  0
  3  1  1  0
  8  9  2  0
  9 10  1  0
 10 11  2  0
 11 12  1  0
 12 13  2  0
 13  8  1  0
M  END

$$$$
