No_4088-gen_results/8p0m/2024-11-26-14-13-15/
     RDKit          3D

 18 19  0  0  0  0  0  0  0  0999 V2000
  -28.0162   -0.8135   28.8779 C   0  0  0  0  0  0  0  0  0  0  0  0
  -27.0636   -0.1189   28.6079 C   0  0  0  0  0  0  0  0  0  0  0  0
  -26.9287    1.1713   29.0083 C   0  0  0  0  0  0  0  0  0  0  0  0
  -25.7702    2.0341   28.6884 C   0  0  0  0  0  0  0  0  0  0  0  0
  -24.7141    1.4431   27.9188 C   0  0  0  0  0  0  0  0  0  0  0  0
  -24.8590    0.0783   27.5836 C   0  0  0  0  0  0  0  0  0  0  0  0
  -25.9647   -0.6606   27.9164 C   0  0  0  0  0  0  0  0  0  0  0  0
  -27.8152   -2.0223   29.4811 F   0  0  0  0  0  0  0  0  0  0  0  0
  -29.2151   -0.5747   28.7340 F   0  0  0  0  0  0  0  0  0  0  0  0
  -23.5407    2.1511   27.5672 C   0  0  0  0  0  0  0  0  0  0  0  0
  -22.4761    1.6525   27.0595 N   0  0  0  0  0  0  0  0  0  0  0  0
  -23.4174    3.3599   28.0049 O   0  0  0  0  0  0  0  0  0  0  0  0
  -25.7041    3.4024   29.1319 C   0  0  0  0  0  0  0  0  0  0  0  0
  -25.6623    3.5394   30.3570 O   0  0  0  0  0  0  0  0  0  0  0  0
  -25.9611    4.7353   31.0335 C   0  0  0  0  0  0  0  0  0  0  0  0
  -25.8571    5.8120   30.3417 C   0  0  0  0  0  0  0  0  0  0  0  0
  -26.0083    5.7711   29.2867 C   0  0  0  0  0  0  0  0  0  0  0  0
  -25.9130    4.5315   28.4060 C   0  0  0  0  0  0  0  0  0  0  0  0
  1  2  1  0
  1  8  1  0
  1  9  1  0
  5 10  1  0
 10 11  2  0
 10 12  1  0
  4 13  1  0
 13 14  1  0
 14 15  1  0
 15 16  2  0
 16 17  1  0
 13 18  1  0
 17 18  2  0
  2  3  2  0
  3  4  1  0
  4  5  2  0
  5  6  1  0
  6  7  2  0
  7  2  1  0
M  END

$$$$
