No_4139-gen_results/8p0m/2024-11-26-14-13-15/
     RDKit          3D

 31 34  0  0  0  0  0  0  0  0999 V2000
  -28.1229   -1.3353   28.4874 O   0  0  0  0  0  0  0  0  0  0  0  0
  -28.5208   -0.4363   29.0779 C   0  0  0  0  0  0  0  0  0  0  0  0
  -29.6977    0.0507   28.9764 C   0  0  0  0  0  0  0  0  0  0  0  0
  -27.4735    0.3426   29.7907 N   0  0  0  0  0  0  0  0  0  0  0  0
  -27.8125    1.4527   30.5890 C   0  0  0  0  0  0  0  0  0  0  0  0
  -30.1204    1.1705   29.8508 C   0  0  0  0  0  0  0  0  0  0  0  0
  -29.1117    1.8687   30.5727 C   0  0  0  0  0  0  0  0  0  0  0  0
  -26.1316   -0.1665   29.8557 C   0  0  0  0  0  0  0  0  0  0  0  0
  -25.1908    0.8744   29.5508 C   0  0  0  0  0  0  0  0  0  0  0  0
  -23.8965    0.4938   29.2683 C   0  0  0  0  0  0  0  0  0  0  0  0
  -22.8590    1.4297   28.8799 C   0  0  0  0  0  0  0  0  0  0  0  0
  -23.3516    2.6021   28.2086 C   0  0  0  0  0  0  0  0  0  0  0  0
  -24.6582    2.9657   28.3941 C   0  0  0  0  0  0  0  0  0  0  0  0
  -25.6104    2.1283   28.9864 C   0  0  0  0  0  0  0  0  0  0  0  0
  -25.0272    4.3231   27.8769 C   0  0  0  0  0  0  0  0  0  0  0  0
  -26.0984    4.8692   27.6580 N   0  0  0  0  0  0  0  0  0  0  0  0
  -26.9344    5.1962   28.6045 C   0  0  0  0  0  0  0  0  0  0  0  0
  -26.7383    5.4583   29.7728 C   0  0  0  0  0  0  0  0  0  0  0  0
  -27.7313    5.7948   30.8044 C   0  0  0  0  0  0  0  0  0  0  0  0
  -29.0173    5.8873   30.2756 C   0  0  0  0  0  0  0  0  0  0  0  0
  -28.3622    5.3727   28.2122 C   0  0  0  0  0  0  0  0  0  0  0  0
  -29.3247    5.6914   29.0390 C   0  0  0  0  0  0  0  0  0  0  0  0
  -23.3513   -0.7860   29.7959 C   0  0  0  0  0  0  0  0  0  0  0  0
  -24.0232   -1.9280   29.6799 C   0  0  0  0  0  0  0  0  0  0  0  0
  -25.7375   -1.5233   29.9755 C   0  0  0  0  0  0  0  0  0  0  0  0
  -30.6223   -0.4712   28.2791 O   0  0  0  0  0  0  0  0  0  0  0  0
  -31.1047    0.1161   27.1511 C   0  0  0  0  0  0  0  0  0  0  0  0
  -32.0680   -0.6681   26.5744 C   0  0  0  0  0  0  0  0  0  0  0  0
  -32.1049   -1.8025   26.7009 O   0  0  0  0  0  0  0  0  0  0  0  0
  -32.6589   -0.1615   25.3348 N   0  0  0  0  0  0  0  0  0  0  0  0
  -30.7881    1.2781   26.8329 O   0  0  0  0  0  0  0  0  0  0  0  0
  1  2  2  0
  2  3  1  0
  2  4  1  0
  4  5  1  0
  6  7  1  0
  4  8  1  0
 13 15  1  0
 15 16  1  0
 16 17  1  0
  3 26  1  0
 26 27  1  0
 27 28  1  0
 28 29  2  0
 28 30  1  0
 27 31  2  0
  3  6  1  0
  7  5  1  0
  8  9  1  0
 10 23  1  0
 23 24  2  0
 24 25  1  0
 25  8  2  0
  9 10  1  0
 10 11  2  0
 11 12  1  0
 12 13  2  0
 13 14  1  0
 14  9  2  0
 17 18  2  0
 18 19  1  0
 19 20  2  0
 20 22  1  0
 22 21  2  0
 21 17  1  0
M  END

$$$$
