No_4701-gen_results/8p0m/2024-11-26-14-13-15/
     RDKit          3D

 27 28  0  0  0  0  0  0  0  0999 V2000
  -28.0162   -0.8135   28.8779 C   0  0  0  0  0  0  0  0  0  0  0  0
  -27.0636   -0.1189   28.6079 C   0  0  0  0  0  0  0  0  0  0  0  0
  -25.7923   -0.4302   29.0761 C   0  0  0  0  0  0  0  0  0  0  0  0
  -25.5756   -1.5654   29.9363 C   0  0  0  0  0  0  0  0  0  0  0  0
  -26.7354   -2.3004   30.2173 C   0  0  0  0  0  0  0  0  0  0  0  0
  -27.9184   -1.9537   29.7629 C   0  0  0  0  0  0  0  0  0  0  0  0
  -29.0001   -2.7012   30.1151 O   0  0  0  0  0  0  0  0  0  0  0  0
  -24.5290    0.3490   28.7998 C   0  0  0  0  0  0  0  0  0  0  0  0
  -23.8456    1.3781   29.8463 P   0  0  0  0  0  0  0  0  0  0  0  0
  -24.4844    2.0277   30.3825 O   0  0  0  0  0  0  0  0  0  0  0  0
  -23.1097    0.3082   30.7805 O   0  0  0  0  0  0  0  0  0  0  0  0
  -22.6475    1.9965   29.0132 O   0  0  0  0  0  0  0  0  0  0  0  0
  -25.4296    2.2377   31.8646 Br  0  0  0  0  0  0  0  0  0  0  0  0
  -30.1189   -2.1411   30.5556 C   0  0  0  0  0  0  0  0  0  0  0  0
  -31.2252   -2.7040   30.0021 C   0  0  0  0  0  0  0  0  0  0  0  0
  -32.2471   -1.9609   29.0860 Cl  0  0  0  0  0  0  0  0  0  0  0  0
  -30.9186   -4.0084   29.2811 N   0  0  0  0  0  0  0  0  0  0  0  0
  -27.1449    1.0970   27.7145 C   0  0  0  0  0  0  0  0  0  0  0  0
  -28.3526    1.4669   27.3419 C   0  0  0  0  0  0  0  0  0  0  0  0
  -28.5575    2.5926   26.5130 C   0  0  0  0  0  0  0  0  0  0  0  0
  -27.3867    3.1915   25.9850 C   0  0  0  0  0  0  0  0  0  0  0  0
  -26.0640    2.8098   26.3447 C   0  0  0  0  0  0  0  0  0  0  0  0
  -25.9986    1.7931   27.1583 C   0  0  0  0  0  0  0  0  0  0  0  0
  -31.7253   -5.1086   29.4378 C   0  0  0  0  0  0  0  0  0  0  0  0
  -31.3528   -6.2008   28.6305 C   0  0  0  0  0  0  0  0  0  0  0  0
  -30.5798   -5.9410   27.4876 C   0  0  0  0  0  0  0  0  0  0  0  0
  -31.8120   -7.5033   28.9291 C   0  0  0  0  0  0  0  0  0  0  0  0
  6  7  1  0
  3  8  1  0
  8  9  1  0
  9 10  1  0
  9 11  1  0
  9 12  2  0
 10 13  1  0
  7 14  1  0
 14 15  1  0
 15 16  1  0
 15 17  1  0
  2 18  1  0
 17 24  1  0
 24 25  2  3
 25 26  1  0
 25 27  1  0
 18 19  2  0
 19 20  1  0
 20 21  2  0
 21 22  1  0
 22 23  2  0
 23 18  1  0
  1  2  2  0
  2  3  1  0
  3  4  2  0
  4  5  1  0
  5  6  2  0
  6  1  1  0
M  END

$$$$
