No_4517-gen_results/8p0m/2024-11-26-14-13-15/
     RDKit          3D

 21 22  0  0  0  0  0  0  0  0999 V2000
  -28.0162   -0.8135   28.8779 C   0  0  0  0  0  0  0  0  0  0  0  0
  -28.4690   -0.7850   29.8287 C   0  0  0  0  0  0  0  0  0  0  0  0
  -28.1960    0.3478   28.0550 C   0  0  0  0  0  0  0  0  0  0  0  0
  -29.0191    1.3501   28.3782 C   0  0  0  0  0  0  0  0  0  0  0  0
  -28.3170   -1.9812   30.8560 C   0  0  0  0  0  0  0  0  0  0  0  0
  -29.5950    1.2859   29.6049 C   0  0  0  0  0  0  0  0  0  0  0  0
  -29.3465    0.2093   30.3749 C   0  0  0  0  0  0  0  0  0  0  0  0
  -29.3232   -2.5848   30.9810 F   0  0  0  0  0  0  0  0  0  0  0  0
  -27.8315   -1.6140   32.0713 F   0  0  0  0  0  0  0  0  0  0  0  0
  -27.2908   -2.7930   30.3608 F   0  0  0  0  0  0  0  0  0  0  0  0
  -27.3510    0.3766   26.4714 Cl  0  0  0  0  0  0  0  0  0  0  0  0
  -30.4900    2.3580   30.0736 C   0  0  0  0  0  0  0  0  0  0  0  0
  -30.0725    3.1856   30.8877 N   0  0  0  0  0  0  0  0  0  0  0  0
  -30.0173    4.1541   31.3231 C   0  0  0  0  0  0  0  0  0  0  0  0
  -30.9476    4.9472   30.9388 F   0  0  0  0  0  0  0  0  0  0  0  0
  -29.0885    4.7274   32.1370 N   0  0  0  0  0  0  0  0  0  0  0  0
  -28.8769    5.9744   32.5299 C   0  0  0  0  0  0  0  0  0  0  0  0
  -27.8884    6.1751   33.2965 C   0  0  0  0  0  0  0  0  0  0  0  0
  -26.9437    5.2446   33.6017 C   0  0  0  0  0  0  0  0  0  0  0  0
  -27.0891    3.9488   33.1484 C   0  0  0  0  0  0  0  0  0  0  0  0
  -28.1660    3.7342   32.3805 C   0  0  0  0  0  0  0  0  0  0  0  0
  2  5  1  0
  5  8  1  0
  5  9  1  0
  5 10  1  0
  3 11  1  0
  6 12  1  0
 12 13  1  0
 13 14  2  3
 14 15  1  0
 14 16  1  0
 16 17  1  0
 18 19  1  0
 16 21  1  0
 20 21  1  0
 17 18  1  0
 19 20  1  0
  1  2  2  0
  2  7  1  0
  7  6  2  0
  6  4  1  0
  4  3  2  0
  3  1  1  0
M  END

$$$$
