No_434-gen_results/8p0m/2024-11-26-14-13-15/
     RDKit          3D

 21 23  0  0  0  0  0  0  0  0999 V2000
  -28.0162   -0.8135   28.8779 C   0  0  0  0  0  0  0  0  0  0  0  0
  -28.4690   -0.7850   29.8287 C   0  0  0  0  0  0  0  0  0  0  0  0
  -26.5455   -0.8762   28.8500 C   0  0  0  0  0  0  0  0  0  0  0  0
  -25.8041   -1.0324   30.0571 C   0  0  0  0  0  0  0  0  0  0  0  0
  -27.9437   -0.9869   31.2075 C   0  0  0  0  0  0  0  0  0  0  0  0
  -24.4008   -1.0969   30.0965 C   0  0  0  0  0  0  0  0  0  0  0  0
  -26.5612   -1.0746   31.2270 C   0  0  0  0  0  0  0  0  0  0  0  0
  -23.6885   -1.1224   29.1182 N   0  0  0  0  0  0  0  0  0  0  0  0
  -22.2950   -1.0142   29.2555 C   0  0  0  0  0  0  0  0  0  0  0  0
  -23.7299   -1.1115   31.3789 C   0  0  0  0  0  0  0  0  0  0  0  0
  -22.3304   -0.9695   31.5221 C   0  0  0  0  0  0  0  0  0  0  0  0
  -21.6672   -0.9198   30.3361 N   0  0  0  0  0  0  0  0  0  0  0  0
  -30.0814   -0.6664   29.8796 C   0  0  0  0  0  0  0  0  0  0  0  0
  -30.8018   -1.4316   30.3401 O   0  0  0  0  0  0  0  0  0  0  0  0
  -30.4867    0.6223   29.5517 N   0  0  0  0  0  0  0  0  0  0  0  0
  -29.7133    1.6892   29.1277 C   0  0  0  0  0  0  0  0  0  0  0  0
  -29.7163    2.3468   28.2911 C   0  0  0  0  0  0  0  0  0  0  0  0
  -28.7984    3.4858   27.9399 C   0  0  0  0  0  0  0  0  0  0  0  0
  -27.6999    3.6943   28.7624 C   0  0  0  0  0  0  0  0  0  0  0  0
  -28.4671    1.9159   30.0123 C   0  0  0  0  0  0  0  0  0  0  0  0
  -27.6200    2.9530   29.8611 C   0  0  0  0  0  0  0  0  0  0  0  0
  4  6  1  0
  2 13  1  0
 13 14  2  0
 13 15  1  0
 15 16  1  0
  6  8  2  0
  8  9  1  0
  9 12  2  0
 12 11  1  0
 11 10  2  0
 10  6  1  0
 16 17  2  0
 17 18  1  0
 18 19  2  0
 19 21  1  0
 21 20  2  0
 20 16  1  0
  1  2  2  0
  2  5  1  0
  5  7  2  0
  7  4  1  0
  4  3  2  0
  3  1  1  0
M  END

$$$$
