No_4740-gen_results/8p0m/2024-11-26-14-13-15/
     RDKit          3D

 30 31  0  0  0  0  0  0  0  0999 V2000
  -28.0162   -0.8135   28.8779 C   0  0  0  0  0  0  0  0  0  0  0  0
  -28.4690   -0.7850   29.8287 C   0  0  0  0  0  0  0  0  0  0  0  0
  -27.0871    0.2903   28.6377 C   0  0  0  0  0  0  0  0  0  0  0  0
  -26.8317    1.2487   29.5869 C   0  0  0  0  0  0  0  0  0  0  0  0
  -28.3914    0.0801   31.0065 C   0  0  0  0  0  0  0  0  0  0  0  0
  -27.4940    1.1521   30.7841 C   0  0  0  0  0  0  0  0  0  0  0  0
  -26.3172    0.3994   27.3653 C   0  0  0  0  0  0  0  0  0  0  0  0
  -25.4556   -0.3605   27.3146 F   0  0  0  0  0  0  0  0  0  0  0  0
  -27.2053    0.2310   26.3179 F   0  0  0  0  0  0  0  0  0  0  0  0
  -25.8182    1.6689   27.0937 F   0  0  0  0  0  0  0  0  0  0  0  0
  -29.3535   -1.9222   30.1759 O   0  0  0  0  0  0  0  0  0  0  0  0
  -30.5905   -1.8375   30.1447 C   0  0  0  0  0  0  0  0  0  0  0  0
  -31.2329   -2.2424   31.2936 C   0  0  0  0  0  0  0  0  0  0  0  0
  -32.4022   -1.9612   31.4338 O   0  0  0  0  0  0  0  0  0  0  0  0
  -30.7503   -3.4094   31.9255 N   0  0  0  0  0  0  0  0  0  0  0  0
  -29.5161   -3.9879   31.6855 C   0  0  0  0  0  0  0  0  0  0  0  0
  -31.1289   -1.4252   29.1118 O   0  0  0  0  0  0  0  0  0  0  0  0
  -29.6593   -5.5419   31.8664 C   0  0  0  0  0  0  0  0  0  0  0  0
  -29.4645   -6.0600   30.8366 O   0  0  0  0  0  0  0  0  0  0  0  0
  -30.4830   -6.1582   29.9399 C   0  0  0  0  0  0  0  0  0  0  0  0
  -31.0539   -5.9339   28.8953 C   0  0  0  0  0  0  0  0  0  0  0  0
  -31.6575   -5.6551   27.7102 C   0  0  0  0  0  0  0  0  0  0  0  0
  -31.6361   -6.3424   26.8810 O   0  0  0  0  0  0  0  0  0  0  0  0
  -32.2900   -4.4574   27.6294 O   0  0  0  0  0  0  0  0  0  0  0  0
  -31.5648   -3.9299   33.0348 C   0  0  0  0  0  0  0  0  0  0  0  0
  -31.8415   -3.1349   34.0085 C   0  0  0  0  0  0  0  0  0  0  0  0
  -32.5207   -3.5833   34.9660 C   0  0  0  0  0  0  0  0  0  0  0  0
  -32.9160   -4.9381   35.0144 C   0  0  0  0  0  0  0  0  0  0  0  0
  -32.5573   -5.7676   33.9783 C   0  0  0  0  0  0  0  0  0  0  0  0
  -31.8102   -5.2465   32.9736 C   0  0  0  0  0  0  0  0  0  0  0  0
  3  7  1  0
  7  8  1  0
  7  9  1  0
  7 10  1  0
  2 11  1  0
 11 12  1  0
 12 13  1  0
 13 14  2  0
 13 15  1  0
 15 16  1  0
 12 17  2  0
 16 18  1  0
 18 19  1  0
 19 20  1  0
 20 21  3  0
 21 22  1  0
 22 23  2  0
 22 24  1  0
 15 25  1  0
 25 26  2  0
 26 27  1  0
 27 28  2  0
 28 29  1  0
 29 30  2  0
 30 25  1  0
  1  2  2  0
  2  5  1  0
  5  6  2  0
  6  4  1  0
  4  3  2  0
  3  1  1  0
M  END

$$$$
