No_4758-gen_results/8p0m/2024-11-26-14-13-15/
     RDKit          3D

 16 17  0  0  0  0  0  0  0  0999 V2000
  -28.1229   -1.3353   28.4874 O   0  0  0  0  0  0  0  0  0  0  0  0
  -27.4806   -0.4044   28.7094 C   0  0  0  0  0  0  0  0  0  0  0  0
  -27.1904    0.2460   29.5268 C   0  0  0  0  0  0  0  0  0  0  0  0
  -26.6871   -0.0001   27.4423 N   0  0  0  0  0  0  0  0  0  0  0  0
  -27.6511    0.1259   30.8798 C   0  0  0  0  0  0  0  0  0  0  0  0
  -25.7508    1.0047   27.4342 C   0  0  0  0  0  0  0  0  0  0  0  0
  -25.5541    1.7023   28.6009 C   0  0  0  0  0  0  0  0  0  0  0  0
  -26.1486    1.3780   29.6666 C   0  0  0  0  0  0  0  0  0  0  0  0
  -27.2896    0.3314   31.8889 C   0  0  0  0  0  0  0  0  0  0  0  0
  -26.3189    1.5219   31.9927 C   0  0  0  0  0  0  0  0  0  0  0  0
  -25.7505    2.0111   30.9193 C   0  0  0  0  0  0  0  0  0  0  0  0
  -25.1689    1.2862   26.2220 N   0  0  0  0  0  0  0  0  0  0  0  0
  -24.1258    1.4704   25.9941 C   0  0  0  0  0  0  0  0  0  0  0  0
  -23.1667    1.7474   27.1197 C   0  0  0  0  0  0  0  0  0  0  0  0
  -23.5513    1.9608   28.4411 C   0  0  0  0  0  0  0  0  0  0  0  0
  -23.1454    2.3434   29.5209 O   0  0  0  0  0  0  0  0  0  0  0  0
  1  2  2  0
  2  3  1  0
  2  4  1  0
  4  6  1  0
  7  8  1  0
  6 12  1  0
 12 13  1  0
 13 14  2  3
 14 15  1  0
 15 16  2  0
  7  6  1  0
  3  5  2  0
  5  9  1  0
  9 10  2  0
 10 11  1  0
 11  8  2  0
  8  3  1  0
M  END

$$$$
