No_4078-gen_results/8p0m/2024-11-26-14-13-15/
     RDKit          3D

 17 18  0  0  0  0  0  0  0  0999 V2000
  -28.0162   -0.8135   28.8779 C   0  0  0  0  0  0  0  0  0  0  0  0
  -28.4690   -0.7850   29.8287 C   0  0  0  0  0  0  0  0  0  0  0  0
  -26.5042   -0.7777   28.8766 C   0  0  0  0  0  0  0  0  0  0  0  0
  -25.9150   -0.6580   29.9230 C   0  0  0  0  0  0  0  0  0  0  0  0
  -27.9691   -0.7243   31.2047 C   0  0  0  0  0  0  0  0  0  0  0  0
  -24.4089   -0.5955   30.0365 C   0  0  0  0  0  0  0  0  0  0  0  0
  -26.5502   -0.6554   31.1921 C   0  0  0  0  0  0  0  0  0  0  0  0
  -23.8545    0.7934   29.9893 C   0  0  0  0  0  0  0  0  0  0  0  0
  -22.5727    0.9271   29.4259 C   0  0  0  0  0  0  0  0  0  0  0  0
  -21.8127   -0.1478   29.0164 C   0  0  0  0  0  0  0  0  0  0  0  0
  -23.6389   -1.2873   31.0864 C   0  0  0  0  0  0  0  0  0  0  0  0
  -23.8716   -1.2644   28.6509 C   0  0  0  0  0  0  0  0  0  0  0  0
  -22.3671   -1.3318   28.7430 C   0  0  0  0  0  0  0  0  0  0  0  0
  -24.6064    1.9114   30.4927 C   0  0  0  0  0  0  0  0  0  0  0  0
  -25.6835    1.9822   30.6060 O   0  0  0  0  0  0  0  0  0  0  0  0
  -23.8114    2.9347   30.8933 O   0  0  0  0  0  0  0  0  0  0  0  0
  -24.5010   -1.9045   27.9464 O   0  0  0  0  0  0  0  0  0  0  0  0
  4  6  1  0
  6  8  1  0
  9 10  1  0
  6 11  1  0
  6 12  1  0
 10 13  1  0
 12 13  1  0
  8 14  1  0
 14 15  2  0
 14 16  1  0
 12 17  2  0
  8  9  1  0
  1  2  2  0
  2  5  1  0
  5  7  2  0
  7  4  1  0
  4  3  2  0
  3  1  1  0
M  END

$$$$
