No_4849-gen_results/8p0m/2024-11-26-14-13-15/
     RDKit          3D

 15 15  0  0  0  0  0  0  0  0999 V2000
  -28.0162   -0.8135   28.8779 C   0  0  0  0  0  0  0  0  0  0  0  0
  -27.0636   -0.1190   28.6079 C   0  0  0  0  0  0  0  0  0  0  0  0
  -25.7923   -0.4302   29.0761 C   0  0  0  0  0  0  0  0  0  0  0  0
  -25.5756   -1.5654   29.9363 C   0  0  0  0  0  0  0  0  0  0  0  0
  -26.7354   -2.3004   30.2173 C   0  0  0  0  0  0  0  0  0  0  0  0
  -27.9184   -1.9537   29.7629 C   0  0  0  0  0  0  0  0  0  0  0  0
  -29.2678   -2.8890   30.2152 Cl  0  0  0  0  0  0  0  0  0  0  0  0
  -27.1068    1.1096   27.7591 C   0  0  0  0  0  0  0  0  0  0  0  0
  -26.3762    1.3266   26.8343 N   0  0  0  0  0  0  0  0  0  0  0  0
  -28.1094    1.8803   27.9077 O   0  0  0  0  0  0  0  0  0  0  0  0
  -26.3710    2.5066   25.9132 C   0  0  0  0  0  0  0  0  0  0  0  0
  -25.1586    0.5241   26.5176 C   0  0  0  0  0  0  0  0  0  0  0  0
  -23.9224    1.2450   26.8259 C   0  0  0  0  0  0  0  0  0  0  0  0
  -23.2906    1.4179   28.1165 C   0  0  0  0  0  0  0  0  0  0  0  0
  -22.0681    2.1479   28.1563 C   0  0  0  0  0  0  0  0  0  0  0  0
  6  7  1  0
  2  8  1  0
  8  9  1  0
  8 10  2  0
  9 11  1  0
  9 12  1  0
 12 13  1  0
 13 14  2  3
 14 15  1  0
  1  2  2  0
  2  3  1  0
  3  4  2  0
  4  5  1  0
  5  6  2  0
  6  1  1  0
M  END

$$$$
