No_4759-gen_results/8p0m/2024-11-26-14-13-15/
     RDKit          3D

 16 17  0  0  0  0  0  0  0  0999 V2000
  -28.0162   -0.8135   28.8779 C   0  0  0  0  0  0  0  0  0  0  0  0
  -28.4690   -0.7850   29.8287 C   0  0  0  0  0  0  0  0  0  0  0  0
  -28.1960    0.3478   28.0550 C   0  0  0  0  0  0  0  0  0  0  0  0
  -29.0191    1.3501   28.3782 C   0  0  0  0  0  0  0  0  0  0  0  0
  -29.4107    0.1803   30.3782 C   0  0  0  0  0  0  0  0  0  0  0  0
  -29.6059    1.2495   29.6193 C   0  0  0  0  0  0  0  0  0  0  0  0
  -27.4597    0.3802   26.7091 C   0  0  0  0  0  0  0  0  0  0  0  0
  -26.0094    0.3317   26.7236 C   0  0  0  0  0  0  0  0  0  0  0  0
  -25.2570    1.3161   27.3387 C   0  0  0  0  0  0  0  0  0  0  0  0
  -25.4994    2.4485   27.3883 C   0  0  0  0  0  0  0  0  0  0  0  0
  -24.5710    3.4699   27.9446 C   0  0  0  0  0  0  0  0  0  0  0  0
  -23.3509    2.9962   28.2589 C   0  0  0  0  0  0  0  0  0  0  0  0
  -23.7681    1.0636   27.6570 C   0  0  0  0  0  0  0  0  0  0  0  0
  -22.9374    1.8023   28.1485 C   0  0  0  0  0  0  0  0  0  0  0  0
  -28.1018    0.6534   25.5492 C   0  0  0  0  0  0  0  0  0  0  0  0
  -28.9463    1.5262   25.3962 N   0  0  0  0  0  0  0  0  0  0  0  0
  3  7  1  0
  7  8  1  0
  8  9  1  0
  7 15  1  0
 15 16  1  0
  1  2  2  0
  2  5  1  0
  5  6  2  0
  6  4  1  0
  4  3  2  0
  3  1  1  0
  9 10  2  0
 10 11  1  0
 11 12  2  0
 12 14  1  0
 14 13  2  0
 13  9  1  0
M  END

$$$$
