No_426-gen_results/8p0m/2024-11-26-14-13-15/
     RDKit          3D

 13 14  0  0  0  0  0  0  0  0999 V2000
  -28.0162   -0.8135   28.8779 C   0  0  0  0  0  0  0  0  0  0  0  0
  -27.0636   -0.1189   28.6079 C   0  0  0  0  0  0  0  0  0  0  0  0
  -25.7647   -0.3897   29.0360 C   0  0  0  0  0  0  0  0  0  0  0  0
  -25.5296   -1.5302   29.9014 C   0  0  0  0  0  0  0  0  0  0  0  0
  -26.6577   -2.2915   30.2035 C   0  0  0  0  0  0  0  0  0  0  0  0
  -27.8548   -1.9555   29.7630 C   0  0  0  0  0  0  0  0  0  0  0  0
  -24.6574    0.3796   28.7741 O   0  0  0  0  0  0  0  0  0  0  0  0
  -24.6054    1.3226   27.8663 C   0  0  0  0  0  0  0  0  0  0  0  0
  -23.3465    1.9118   27.7723 C   0  0  0  0  0  0  0  0  0  0  0  0
  -25.6234    1.6706   27.0396 C   0  0  0  0  0  0  0  0  0  0  0  0
  -22.2233    1.6344   28.6267 C   0  0  0  0  0  0  0  0  0  0  0  0
  -26.8277    0.9598   27.4797 C   0  0  0  0  0  0  0  0  0  0  0  0
  -22.3603    0.5160   29.4226 C   0  0  0  0  0  0  0  0  0  0  0  0
  3  7  1  0
  7  8  1  0
  8  9  2  3
  8 10  1  0
  9 11  1  0
  2 12  1  0
 10 12  2  0
 11 13  1  0
  1  2  2  0
  2  3  1  0
  3  4  2  0
  4  5  1  0
  5  6  2  0
  6  1  1  0
M  END

$$$$
