No_4019-gen_results/8p0m/2024-11-26-14-13-15/
     RDKit          3D

 15 16  0  0  0  0  0  0  0  0999 V2000
  -28.0162   -0.8135   28.8779 C   0  0  0  0  0  0  0  0  0  0  0  0
  -28.4690   -0.7850   29.8287 C   0  0  0  0  0  0  0  0  0  0  0  0
  -26.5042   -0.7777   28.8766 C   0  0  0  0  0  0  0  0  0  0  0  0
  -25.6540   -0.6597   27.7191 C   0  0  0  0  0  0  0  0  0  0  0  0
  -27.9180   -0.9374   31.1824 C   0  0  0  0  0  0  0  0  0  0  0  0
  -26.5424   -0.9399   31.2606 C   0  0  0  0  0  0  0  0  0  0  0  0
  -25.6675   -0.8745   30.0954 C   0  0  0  0  0  0  0  0  0  0  0  0
  -24.3105   -0.2910   27.8225 C   0  0  0  0  0  0  0  0  0  0  0  0
  -23.6556   -0.4188   29.0627 C   0  0  0  0  0  0  0  0  0  0  0  0
  -24.3422   -0.6347   30.1951 C   0  0  0  0  0  0  0  0  0  0  0  0
  -22.1738   -0.1707   29.0722 C   0  0  0  0  0  0  0  0  0  0  0  0
  -21.4071   -1.0151   29.5417 N   0  0  0  0  0  0  0  0  0  0  0  0
  -21.7844    0.8343   28.3655 F   0  0  0  0  0  0  0  0  0  0  0  0
  -29.9028   -0.8917   29.8750 F   0  0  0  0  0  0  0  0  0  0  0  0
  -28.9502   -1.1067   32.7710 Br  0  0  0  0  0  0  0  0  0  0  0  0
  9 11  1  0
 11 12  1  0
 11 13  1  0
  2 14  1  0
  5 15  1  0
  1  2  2  0
  2  5  1  0
  5  6  2  0
  6  7  1  0
  3  1  1  0
  3  4  2  0
  4  8  1  0
  8  9  2  0
  9 10  1  0
 10  7  2  0
  7  3  1  0
M  END

$$$$
