No_4292-gen_results/8p0m/2024-11-26-14-13-15/
     RDKit          3D

 29 32  0  0  0  0  0  0  0  0999 V2000
  -28.0162   -0.8135   28.8779 C   0  0  0  0  0  0  0  0  0  0  0  0
  -27.0636   -0.1190   28.6079 C   0  0  0  0  0  0  0  0  0  0  0  0
  -25.7923   -0.4302   29.0761 C   0  0  0  0  0  0  0  0  0  0  0  0
  -24.5456    0.3494   28.8225 C   0  0  0  0  0  0  0  0  0  0  0  0
  -23.2409    0.0217   29.3323 C   0  0  0  0  0  0  0  0  0  0  0  0
  -27.8820   -1.8995   29.8633 C   0  0  0  0  0  0  0  0  0  0  0  0
  -26.6526   -2.3142   30.3138 C   0  0  0  0  0  0  0  0  0  0  0  0
  -25.5153   -1.5607   29.9787 C   0  0  0  0  0  0  0  0  0  0  0  0
  -23.2072   -1.2289   30.0311 C   0  0  0  0  0  0  0  0  0  0  0  0
  -24.2434   -1.9361   30.3879 C   0  0  0  0  0  0  0  0  0  0  0  0
  -24.5768    1.5651   27.9574 C   0  0  0  0  0  0  0  0  0  0  0  0
  -23.5960    1.7041   26.9962 C   0  0  0  0  0  0  0  0  0  0  0  0
  -22.4531    0.9115   26.9523 C   0  0  0  0  0  0  0  0  0  0  0  0
  -22.0983    0.2823   28.3286 C   0  0  0  0  0  0  0  0  0  0  0  0
  -23.6005    2.5574   25.8473 C   0  0  0  0  0  0  0  0  0  0  0  0
  -29.0285   -2.7805   30.2963 C   0  0  0  0  0  0  0  0  0  0  0  0
  -30.0719   -2.4650   30.1998 O   0  0  0  0  0  0  0  0  0  0  0  0
  -28.6658   -4.0267   30.7892 N   0  0  0  0  0  0  0  0  0  0  0  0
  -29.6791   -5.0252   31.1450 C   0  0  0  0  0  0  0  0  0  0  0  0
  -30.5918   -5.3055   30.1386 C   0  0  0  0  0  0  0  0  0  0  0  0
  -30.5996   -4.9949   28.9745 C   0  0  0  0  0  0  0  0  0  0  0  0
  -31.4837   -5.6447   28.1390 C   0  0  0  0  0  0  0  0  0  0  0  0
  -32.1939   -6.6479   28.6120 C   0  0  0  0  0  0  0  0  0  0  0  0
  -31.4741   -6.5255   30.1622 C   0  0  0  0  0  0  0  0  0  0  0  0
  -24.7299    3.4098   25.8848 N   0  0  0  0  0  0  0  0  0  0  0  0
  -22.8137    2.6604   25.0226 O   0  0  0  0  0  0  0  0  0  0  0  0
  -33.0879   -7.5744   28.3293 C   0  0  0  0  0  0  0  0  0  0  0  0
  -33.7692   -8.2360   28.8843 C   0  0  0  0  0  0  0  0  0  0  0  0
  -34.7378   -9.2143   28.3449 C   0  0  0  0  0  0  0  0  0  0  0  0
 12 15  1  0
  6 16  1  0
 16 17  2  0
 16 18  1  0
 18 19  1  0
 19 20  1  0
 20 21  1  0
 21 22  2  0
 22 23  1  0
 20 24  1  0
 23 24  1  0
 15 25  1  0
 15 26  2  0
 23 27  1  0
 27 28  2  3
 28 29  1  0
  5 14  1  0
 14 13  2  0
 13 12  1  0
 12 11  2  0
 11  4  1  0
  1  2  2  0
  2  3  1  0
  8  7  1  0
  7  6  2  0
  6  1  1  0
  3  4  2  0
  4  5  1  0
  5  9  2  0
  9 10  1  0
 10  8  2  0
  8  3  1  0
M  END

$$$$
