No_4626-gen_results/8p0m/2024-11-26-14-13-15/
     RDKit          3D

 18 19  0  0  0  0  0  0  0  0999 V2000
  -28.0162   -0.8135   28.8779 C   0  0  0  0  0  0  0  0  0  0  0  0
  -28.4690   -0.7850   29.8287 C   0  0  0  0  0  0  0  0  0  0  0  0
  -28.1960    0.3478   28.0550 C   0  0  0  0  0  0  0  0  0  0  0  0
  -29.0191    1.3501   28.3782 C   0  0  0  0  0  0  0  0  0  0  0  0
  -29.6249    1.2683   29.6012 C   0  0  0  0  0  0  0  0  0  0  0  0
  -29.3791    0.1469   30.3923 C   0  0  0  0  0  0  0  0  0  0  0  0
  -27.2964    0.4000   26.4654 P   0  0  0  0  0  0  0  0  0  0  0  0
  -27.9835    0.2563   25.5005 O   0  0  0  0  0  0  0  0  0  0  0  0
  -26.7131    1.9065   26.5583 O   0  0  0  0  0  0  0  0  0  0  0  0
  -26.0060   -0.3719   26.6560 O   0  0  0  0  0  0  0  0  0  0  0  0
  -24.8418    0.2304   27.2178 C   0  0  0  0  0  0  0  0  0  0  0  0
  -24.2447   -0.5385   28.3130 C   0  0  0  0  0  0  0  0  0  0  0  0
  -23.9696    0.1501   29.4366 C   0  0  0  0  0  0  0  0  0  0  0  0
  -23.6107    1.5687   29.2884 C   0  0  0  0  0  0  0  0  0  0  0  0
  -24.1113    2.2661   28.1275 C   0  0  0  0  0  0  0  0  0  0  0  0
  -24.7582    1.5244   27.1561 C   0  0  0  0  0  0  0  0  0  0  0  0
  -24.7029    2.0054   25.9412 O   0  0  0  0  0  0  0  0  0  0  0  0
  -27.5686    2.9683   26.8169 C   0  0  0  0  0  0  0  0  0  0  0  0
  3  7  1  0
  7  8  2  0
  7  9  1  0
  7 10  1  0
 10 11  1  0
 16 17  1  0
  9 18  1  0
 11 12  2  0
 12 13  1  0
 13 14  2  0
 14 15  1  0
 15 16  2  0
 16 11  1  0
  1  2  2  0
  2  6  1  0
  6  5  2  0
  5  4  1  0
  4  3  2  0
  3  1  1  0
M  END

$$$$
