No_4192-gen_results/8p0m/2024-11-26-14-13-15/
     RDKit          3D

 21 21  0  0  0  0  0  0  0  0999 V2000
  -28.0162   -0.8135   28.8779 C   0  0  0  0  0  0  0  0  0  0  0  0
  -28.4690   -0.7850   29.8287 C   0  0  0  0  0  0  0  0  0  0  0  0
  -28.1960    0.3478   28.0550 C   0  0  0  0  0  0  0  0  0  0  0  0
  -27.4421    0.5100   26.7946 C   0  0  0  0  0  0  0  0  0  0  0  0
  -26.1689   -0.0794   26.6787 C   0  0  0  0  0  0  0  0  0  0  0  0
  -25.7312   -0.9607   27.6875 C   0  0  0  0  0  0  0  0  0  0  0  0
  -26.5043   -1.2222   28.7582 C   0  0  0  0  0  0  0  0  0  0  0  0
  -29.6729   -0.4971   29.9081 F   0  0  0  0  0  0  0  0  0  0  0  0
  -28.1882   -1.7131   30.8431 F   0  0  0  0  0  0  0  0  0  0  0  0
  -25.1343    0.2396   25.3745 Cl  0  0  0  0  0  0  0  0  0  0  0  0
  -27.9010    1.6024   25.5567 Cl  0  0  0  0  0  0  0  0  0  0  0  0
  -25.9890   -2.1787   29.6053 O   0  0  0  0  0  0  0  0  0  0  0  0
  -24.5915   -2.2061   29.7387 C   0  0  0  0  0  0  0  0  0  0  0  0
  -23.9419   -1.2908   30.6064 C   0  0  0  0  0  0  0  0  0  0  0  0
  -24.4096   -0.9885   31.8093 C   0  0  0  0  0  0  0  0  0  0  0  0
  -22.8171   -0.5610   30.0258 C   0  0  0  0  0  0  0  0  0  0  0  0
  -21.9139   -0.9249   29.2557 C   0  0  0  0  0  0  0  0  0  0  0  0
  -20.9279   -0.0946   28.6811 C   0  0  0  0  0  0  0  0  0  0  0  0
  -21.0849    0.9427   27.7489 C   0  0  0  0  0  0  0  0  0  0  0  0
  -22.3181    1.7736   27.7690 C   0  0  0  0  0  0  0  0  0  0  0  0
  -23.1743    2.2194   27.1783 N   0  0  0  0  0  0  0  0  0  0  0  0
  2  8  1  0
  2  9  1  0
  5 10  1  0
  4 11  1  0
  7 12  1  0
 12 13  1  0
 13 14  1  0
 14 15  1  0
 14 16  1  0
 16 17  1  0
 17 18  2  3
 18 19  1  0
 19 20  1  0
 20 21  3  0
  2  1  1  0
  1  3  2  0
  3  4  1  0
  4  5  2  0
  5  6  1  0
  6  7  2  0
  7  1  1  0
M  END

$$$$
