No_4672-gen_results/8p0m/2024-11-26-14-13-15/
     RDKit          3D

 21 24  0  0  0  0  0  0  0  0999 V2000
  -28.0162   -0.8135   28.8779 C   0  0  0  0  0  0  0  0  0  0  0  0
  -27.0636   -0.1190   28.6079 C   0  0  0  0  0  0  0  0  0  0  0  0
  -25.7923   -0.4302   29.0761 C   0  0  0  0  0  0  0  0  0  0  0  0
  -24.5456    0.3494   28.8225 C   0  0  0  0  0  0  0  0  0  0  0  0
  -23.2409    0.0217   29.3323 C   0  0  0  0  0  0  0  0  0  0  0  0
  -27.8820   -1.8995   29.8633 C   0  0  0  0  0  0  0  0  0  0  0  0
  -26.6706   -2.3272   30.3212 C   0  0  0  0  0  0  0  0  0  0  0  0
  -25.5433   -1.5852   29.9316 C   0  0  0  0  0  0  0  0  0  0  0  0
  -22.1918    0.8302   29.0004 C   0  0  0  0  0  0  0  0  0  0  0  0
  -22.1472    1.7783   28.0287 C   0  0  0  0  0  0  0  0  0  0  0  0
  -24.5322    1.3987   27.8163 C   0  0  0  0  0  0  0  0  0  0  0  0
  -23.3620    2.0694   27.4607 C   0  0  0  0  0  0  0  0  0  0  0  0
  -29.0683   -2.7198   30.2979 C   0  0  0  0  0  0  0  0  0  0  0  0
  -30.1235   -2.3445   30.1498 O   0  0  0  0  0  0  0  0  0  0  0  0
  -28.7682   -3.9904   30.6527 O   0  0  0  0  0  0  0  0  0  0  0  0
  -23.4872    3.0210   26.4989 O   0  0  0  0  0  0  0  0  0  0  0  0
  -24.7948    3.3746   26.1362 C   0  0  0  0  0  0  0  0  0  0  0  0
  -27.1934    1.0404   27.6575 C   0  0  0  0  0  0  0  0  0  0  0  0
  -25.9015    1.7455   27.2948 C   0  0  0  0  0  0  0  0  0  0  0  0
  -26.0076    3.0494   26.9967 C   0  0  0  0  0  0  0  0  0  0  0  0
  -28.2043    1.2856   27.1019 O   0  0  0  0  0  0  0  0  0  0  0  0
  1  2  1  0
  3  4  1  0
  1  6  1  0
  6  7  1  0
  3  8  1  0
  7  8  1  0
  6 13  1  0
 13 14  2  0
 13 15  1  0
 12 16  1  0
 16 17  1  0
  2 18  1  0
 11 19  1  0
 18 19  1  0
 17 20  1  0
 19 20  1  0
 18 21  2  0
  2  3  1  0
  4  5  2  0
  5  9  1  0
  9 10  2  0
 10 12  1  0
 12 11  2  0
 11  4  1  0
M  END

$$$$
