No_4049-gen_results/8p0m/2024-11-26-14-13-15/
     RDKit          3D

 15 17  0  0  0  0  0  0  0  0999 V2000
  -28.0162   -0.8135   28.8779 C   0  0  0  0  0  0  0  0  0  0  0  0
  -28.4690   -0.7850   29.8287 C   0  0  0  0  0  0  0  0  0  0  0  0
  -27.1356    0.2359   28.5352 C   0  0  0  0  0  0  0  0  0  0  0  0
  -26.8745    1.2825   29.3982 C   0  0  0  0  0  0  0  0  0  0  0  0
  -28.3613    0.1987   30.9244 C   0  0  0  0  0  0  0  0  0  0  0  0
  -27.5277    1.2234   30.6356 C   0  0  0  0  0  0  0  0  0  0  0  0
  -26.3987    0.2949   27.2279 C   0  0  0  0  0  0  0  0  0  0  0  0
  -25.8882    1.5487   26.8334 C   0  0  0  0  0  0  0  0  0  0  0  0
  -25.0305    1.5971   25.7327 C   0  0  0  0  0  0  0  0  0  0  0  0
  -24.2070    2.7467   25.5869 C   0  0  0  0  0  0  0  0  0  0  0  0
  -24.4732    3.8820   26.4616 C   0  0  0  0  0  0  0  0  0  0  0  0
  -25.3348    3.7814   27.5145 C   0  0  0  0  0  0  0  0  0  0  0  0
  -25.9782    2.5917   27.7706 C   0  0  0  0  0  0  0  0  0  0  0  0
  -26.5664    2.4538   29.0327 C   0  0  0  0  0  0  0  0  0  0  0  0
  -26.2444    3.3676   29.9596 O   0  0  0  0  0  0  0  0  0  0  0  0
  3  7  1  0
  4 14  1  0
 13 14  1  0
 14 15  2  0
  7  8  1  0
  8  9  2  0
  9 10  1  0
 10 11  2  0
 11 12  1  0
 12 13  2  0
 13  8  1  0
  1  2  2  0
  2  5  1  0
  5  6  2  0
  6  4  1  0
  4  3  2  0
  3  1  1  0
M  END

$$$$
