No_4901-gen_results/8p0m/2024-11-26-14-13-15/
     RDKit          3D

 17 18  0  0  0  0  0  0  0  0999 V2000
  -28.0162   -0.8135   28.8779 C   0  0  0  0  0  0  0  0  0  0  0  0
  -27.0636   -0.1189   28.6079 C   0  0  0  0  0  0  0  0  0  0  0  0
  -25.7647   -0.3897   29.0360 C   0  0  0  0  0  0  0  0  0  0  0  0
  -25.5296   -1.5302   29.9014 C   0  0  0  0  0  0  0  0  0  0  0  0
  -26.6577   -2.2915   30.2035 C   0  0  0  0  0  0  0  0  0  0  0  0
  -27.8548   -1.9555   29.7630 C   0  0  0  0  0  0  0  0  0  0  0  0
  -24.6498    0.3733   28.7802 O   0  0  0  0  0  0  0  0  0  0  0  0
  -23.3980    0.0673   29.1078 C   0  0  0  0  0  0  0  0  0  0  0  0
  -22.4358    0.9793   28.9491 C   0  0  0  0  0  0  0  0  0  0  0  0
  -28.9328   -2.7614   30.1491 N   0  0  0  0  0  0  0  0  0  0  0  0
  -30.1092   -2.2886   30.4733 C   0  0  0  0  0  0  0  0  0  0  0  0
  -31.1353   -3.2664   30.7809 C   0  0  0  0  0  0  0  0  0  0  0  0
  -28.7988   -4.1679   30.2853 C   0  0  0  0  0  0  0  0  0  0  0  0
  -29.7184   -5.0930   30.5964 C   0  0  0  0  0  0  0  0  0  0  0  0
  -30.9167   -4.5718   30.9393 C   0  0  0  0  0  0  0  0  0  0  0  0
  -22.8745    2.2476   28.3968 C   0  0  0  0  0  0  0  0  0  0  0  0
  -23.7491    2.1419   27.4005 C   0  0  0  0  0  0  0  0  0  0  0  0
  3  7  1  0
  7  8  1  0
  8  9  2  3
  6 10  1  0
 10 11  1  0
 10 13  1  0
 12 15  1  0
 14 15  1  0
  9 16  1  0
 16 17  2  0
 11 12  1  0
 14 13  1  0
  1  2  2  0
  2  3  1  0
  3  4  2  0
  4  5  1  0
  5  6  2  0
  6  1  1  0
M  END

$$$$
