No_4132-gen_results/8p0m/2024-11-26-14-13-15/
     RDKit          3D

 24 27  0  0  0  0  0  0  0  0999 V2000
  -28.0162   -0.8135   28.8779 C   0  0  0  0  0  0  0  0  0  0  0  0
  -27.0636   -0.1189   28.6079 C   0  0  0  0  0  0  0  0  0  0  0  0
  -25.7647   -0.3897   29.0360 C   0  0  0  0  0  0  0  0  0  0  0  0
  -24.5517    0.4058   28.7646 C   0  0  0  0  0  0  0  0  0  0  0  0
  -24.6957    1.4480   27.7988 C   0  0  0  0  0  0  0  0  0  0  0  0
  -25.9755    1.7250   27.3077 C   0  0  0  0  0  0  0  0  0  0  0  0
  -27.0718    1.0134   27.6535 C   0  0  0  0  0  0  0  0  0  0  0  0
  -27.9070   -1.7286   29.9444 N   0  0  0  0  0  0  0  0  0  0  0  0
  -23.3771    1.9179   27.5069 C   0  0  0  0  0  0  0  0  0  0  0  0
  -22.1925    1.5219   28.1298 C   0  0  0  0  0  0  0  0  0  0  0  0
  -22.1942    0.5308   29.0500 C   0  0  0  0  0  0  0  0  0  0  0  0
  -23.3611   -0.1204   29.3708 C   0  0  0  0  0  0  0  0  0  0  0  0
  -25.5046   -1.4083   30.0093 C   0  0  0  0  0  0  0  0  0  0  0  0
  -29.0039   -2.4876   30.5200 C   0  0  0  0  0  0  0  0  0  0  0  0
  -26.6803   -2.0969   30.5624 C   0  0  0  0  0  0  0  0  0  0  0  0
  -28.3732    1.3658   27.0596 C   0  0  0  0  0  0  0  0  0  0  0  0
  -28.9778   -3.6641   30.5666 O   0  0  0  0  0  0  0  0  0  0  0  0
  -29.9020   -1.8103   31.1446 O   0  0  0  0  0  0  0  0  0  0  0  0
  -29.5404    1.8380   27.9862 Cl  0  0  0  0  0  0  0  0  0  0  0  0
  -28.8521    0.2845   26.0847 C   0  0  0  0  0  0  0  0  0  0  0  0
  -28.5694    0.5379   24.7453 C   0  0  0  0  0  0  0  0  0  0  0  0
  -26.1156    2.9600   26.7957 O   0  0  0  0  0  0  0  0  0  0  0  0
  -28.1474    2.6016   26.1330 C   0  0  0  0  0  0  0  0  0  0  0  0
  -27.9708    2.0688   24.7608 C   0  0  0  0  0  0  0  0  0  0  0  0
  2  3  1  0
  3  4  1  0
  5  6  1  0
  2  7  1  0
  6  7  1  0
  1  8  1  0
  3 13  1  0
  8 14  1  0
  8 15  1  0
 13 15  1  0
  7 16  1  0
 14 17  2  0
 14 18  1  0
 16 19  1  0
 16 20  1  0
 20 21  2  0
  6 22  2  0
 16 23  1  0
 21 24  1  0
 23 24  2  0
  1  2  1  0
  4  5  2  0
  5  9  1  0
  9 10  2  0
 10 11  1  0
 11 12  2  0
 12  4  1  0
M  END

$$$$
