No_4403-gen_results/8p0m/2024-11-26-14-13-15/
     RDKit          3D

 25 26  0  0  0  0  0  0  0  0999 V2000
  -28.0162   -0.8135   28.8779 C   0  0  0  0  0  0  0  0  0  0  0  0
  -27.0636   -0.1189   28.6079 C   0  0  0  0  0  0  0  0  0  0  0  0
  -25.7923   -0.4302   29.0761 C   0  0  0  0  0  0  0  0  0  0  0  0
  -24.5456    0.3494   28.8225 C   0  0  0  0  0  0  0  0  0  0  0  0
  -24.6586    1.4196   27.8878 C   0  0  0  0  0  0  0  0  0  0  0  0
  -25.9471    1.6811   27.3792 C   0  0  0  0  0  0  0  0  0  0  0  0
  -27.0439    0.9739   27.6871 C   0  0  0  0  0  0  0  0  0  0  0  0
  -28.6567   -0.5529   30.0960 N   0  0  0  0  0  0  0  0  0  0  0  0
  -29.5646   -0.5256   30.5354 C   0  0  0  0  0  0  0  0  0  0  0  0
  -30.7160   -0.6890   29.7092 C   0  0  0  0  0  0  0  0  0  0  0  0
  -29.9572   -0.2776   31.8044 O   0  0  0  0  0  0  0  0  0  0  0  0
  -23.4581    2.1675   27.5881 C   0  0  0  0  0  0  0  0  0  0  0  0
  -22.5210    1.8381   27.1895 N   0  0  0  0  0  0  0  0  0  0  0  0
  -23.7110    3.5073   27.5635 O   0  0  0  0  0  0  0  0  0  0  0  0
  -31.2580   -1.6393   29.7477 F   0  0  0  0  0  0  0  0  0  0  0  0
  -31.6165    0.3854   29.9501 F   0  0  0  0  0  0  0  0  0  0  0  0
  -30.4065   -0.4434   28.4439 F   0  0  0  0  0  0  0  0  0  0  0  0
  -23.2785   -0.0604   29.3796 C   0  0  0  0  0  0  0  0  0  0  0  0
  -21.5130    0.8956   27.9626 C   0  0  0  0  0  0  0  0  0  0  0  0
  -23.3419   -1.0202   30.4823 C   0  0  0  0  0  0  0  0  0  0  0  0
  -21.8709    0.4242   29.0822 C   0  0  0  0  0  0  0  0  0  0  0  0
  -22.6298   -0.6758   31.5231 F   0  0  0  0  0  0  0  0  0  0  0  0
  -23.7681   -2.0921   30.3260 F   0  0  0  0  0  0  0  0  0  0  0  0
  -28.5357    1.4260   26.9654 Cl  0  0  0  0  0  0  0  0  0  0  0  0
  -27.4917   -0.3661   31.1833 C   0  0  0  0  0  0  0  0  0  0  0  0
  1  2  1  0
  1  8  1  0
  8  9  1  0
  9 10  1  0
  9 11  2  0
  5 12  1  0
 12 13  1  0
 12 14  2  0
 10 15  1  0
 10 16  1  0
 10 17  1  0
  4 18  1  0
 13 19  1  0
 18 20  1  0
 18 21  1  0
 19 21  2  0
 20 22  1  0
 20 23  1  0
  7 24  1  0
  8 25  1  0
  2  3  2  0
  3  4  1  0
  4  5  2  0
  5  6  1  0
  6  7  2  0
  7  2  1  0
M  END

$$$$
