No_4835-gen_results/8p0m/2024-11-26-14-13-15/
     RDKit          3D

 15 15  0  0  0  0  0  0  0  0999 V2000
  -28.0727   -1.2542   28.5316 F   0  0  0  0  0  0  0  0  0  0  0  0
  -27.3591   -0.3792   28.7224 C   0  0  0  0  0  0  0  0  0  0  0  0
  -26.3323   -0.6441   29.4520 C   0  0  0  0  0  0  0  0  0  0  0  0
  -27.5334    0.8592   28.0521 C   0  0  0  0  0  0  0  0  0  0  0  0
  -26.4657    1.8236   28.0839 C   0  0  0  0  0  0  0  0  0  0  0  0
  -25.1944    0.4069   29.6280 C   0  0  0  0  0  0  0  0  0  0  0  0
  -25.3539    1.6402   28.9685 C   0  0  0  0  0  0  0  0  0  0  0  0
  -28.5242    1.0651   27.2642 O   0  0  0  0  0  0  0  0  0  0  0  0
  -24.3617    2.5380   29.1349 N   0  0  0  0  0  0  0  0  0  0  0  0
  -28.3844    0.9850   25.9292 C   0  0  0  0  0  0  0  0  0  0  0  0
  -26.0203   -1.8599   30.2553 C   0  0  0  0  0  0  0  0  0  0  0  0
  -25.9317   -2.0497   31.3088 O   0  0  0  0  0  0  0  0  0  0  0  0
  -26.4299   -3.0222   29.4960 O   0  0  0  0  0  0  0  0  0  0  0  0
  -29.2720    1.7242   25.2335 C   0  0  0  0  0  0  0  0  0  0  0  0
  -30.5534    1.5345   25.6352 C   0  0  0  0  0  0  0  0  0  0  0  0
  1  2  1  0
  4  8  1  0
  7  9  1  0
  8 10  1  0
  3 11  1  0
 11 12  2  0
 11 13  1  0
 10 14  1  0
 14 15  1  0
  2  3  2  0
  3  6  1  0
  6  7  2  0
  7  5  1  0
  5  4  2  0
  4  2  1  0
M  END

$$$$
