No_4574-gen_results/8p0m/2024-11-26-14-13-15/
     RDKit          3D

 22 24  0  0  0  0  0  0  0  0999 V2000
  -28.0162   -0.8135   28.8779 C   0  0  0  0  0  0  0  0  0  0  0  0
  -28.4690   -0.7850   29.8287 C   0  0  0  0  0  0  0  0  0  0  0  0
  -26.5042   -0.7777   28.8766 C   0  0  0  0  0  0  0  0  0  0  0  0
  -25.8103   -0.8531   30.1028 C   0  0  0  0  0  0  0  0  0  0  0  0
  -27.9906   -0.8916   31.2257 C   0  0  0  0  0  0  0  0  0  0  0  0
  -26.6042   -0.8676   31.2652 C   0  0  0  0  0  0  0  0  0  0  0  0
  -30.0739   -0.8360   29.8615 C   0  0  0  0  0  0  0  0  0  0  0  0
  -30.5629   -0.0238   30.8073 F   0  0  0  0  0  0  0  0  0  0  0  0
  -30.4803   -2.0886   30.0563 F   0  0  0  0  0  0  0  0  0  0  0  0
  -30.4818   -0.4582   28.6861 F   0  0  0  0  0  0  0  0  0  0  0  0
  -25.6356   -0.7098   27.6730 C   0  0  0  0  0  0  0  0  0  0  0  0
  -25.9514    0.0791   26.6794 N   0  0  0  0  0  0  0  0  0  0  0  0
  -26.5285    0.0679   25.8219 C   0  0  0  0  0  0  0  0  0  0  0  0
  -27.3601   -0.8996   25.4010 C   0  0  0  0  0  0  0  0  0  0  0  0
  -28.2296   -0.7813   24.2519 C   0  0  0  0  0  0  0  0  0  0  0  0
  -28.2830    0.4537   23.6341 C   0  0  0  0  0  0  0  0  0  0  0  0
  -27.4703    1.5109   24.0124 C   0  0  0  0  0  0  0  0  0  0  0  0
  -26.6398    1.4220   25.1146 C   0  0  0  0  0  0  0  0  0  0  0  0
  -24.9226    1.3082   26.8684 C   0  0  0  0  0  0  0  0  0  0  0  0
  -25.2898    2.3642   26.4435 C   0  0  0  0  0  0  0  0  0  0  0  0
  -25.9383    2.5436   25.4978 C   0  0  0  0  0  0  0  0  0  0  0  0
  -24.6398   -1.3807   27.8228 O   0  0  0  0  0  0  0  0  0  0  0  0
  2  7  1  0
  7  8  1  0
  7  9  1  0
  7 10  1  0
  3 11  1  0
 11 12  1  0
 12 13  1  0
 12 19  1  0
 18 21  1  0
 20 21  1  0
 11 22  2  0
 20 19  1  0
 13 14  2  0
 14 15  1  0
 15 16  2  0
 16 17  1  0
 17 18  2  0
 18 13  1  0
  1  2  2  0
  2  5  1  0
  5  6  2  0
  6  4  1  0
  4  3  2  0
  3  1  1  0
M  END

$$$$
