No_4265-gen_results/8p0m/2024-11-26-14-13-15/
     RDKit          3D

 33 35  0  0  0  0  0  0  0  0999 V2000
  -28.0162   -0.8135   28.8779 C   0  0  0  0  0  0  0  0  0  0  0  0
  -28.4690   -0.7850   29.8287 C   0  0  0  0  0  0  0  0  0  0  0  0
  -27.1356    0.2359   28.5352 C   0  0  0  0  0  0  0  0  0  0  0  0
  -26.8745    1.2825   29.3982 C   0  0  0  0  0  0  0  0  0  0  0  0
  -28.3613    0.1987   30.9244 C   0  0  0  0  0  0  0  0  0  0  0  0
  -27.5277    1.2234   30.6356 C   0  0  0  0  0  0  0  0  0  0  0  0
  -26.3987    0.2949   27.2279 C   0  0  0  0  0  0  0  0  0  0  0  0
  -25.0392    0.2356   27.3538 C   0  0  0  0  0  0  0  0  0  0  0  0
  -24.4371    0.0058   28.5831 C   0  0  0  0  0  0  0  0  0  0  0  0
  -23.2757    0.6118   28.9810 C   0  0  0  0  0  0  0  0  0  0  0  0
  -22.4573    0.1290   30.0522 C   0  0  0  0  0  0  0  0  0  0  0  0
  -23.0915   -0.7307   30.9485 C   0  0  0  0  0  0  0  0  0  0  0  0
  -24.7873   -1.0051   29.5819 C   0  0  0  0  0  0  0  0  0  0  0  0
  -24.1045   -1.3675   30.6512 C   0  0  0  0  0  0  0  0  0  0  0  0
  -27.1033    0.4735   26.0534 C   0  0  0  0  0  0  0  0  0  0  0  0
  -26.4642    0.1443   25.0520 F   0  0  0  0  0  0  0  0  0  0  0  0
  -28.2706    0.7693   25.9742 F   0  0  0  0  0  0  0  0  0  0  0  0
  -22.6157    1.6787   28.1061 C   0  0  0  0  0  0  0  0  0  0  0  0
  -22.1169    2.7530   28.5010 N   0  0  0  0  0  0  0  0  0  0  0  0
  -22.8039    1.6217   26.7946 N   0  0  0  0  0  0  0  0  0  0  0  0
  -29.4002   -1.8341   30.2736 O   0  0  0  0  0  0  0  0  0  0  0  0
  -29.1387   -2.9898   30.7570 C   0  0  0  0  0  0  0  0  0  0  0  0
  -29.8533   -4.0622   30.1834 C   0  0  0  0  0  0  0  0  0  0  0  0
  -30.0257   -4.2610   29.1028 O   0  0  0  0  0  0  0  0  0  0  0  0
  -30.1371   -5.1229   31.1697 N   0  0  0  0  0  0  0  0  0  0  0  0
  -30.7596   -6.0002   31.0654 C   0  0  0  0  0  0  0  0  0  0  0  0
  -30.7218   -7.0729   32.0107 C   0  0  0  0  0  0  0  0  0  0  0  0
  -29.9050   -6.9329   33.1663 C   0  0  0  0  0  0  0  0  0  0  0  0
  -29.1289   -5.8078   33.2484 C   0  0  0  0  0  0  0  0  0  0  0  0
  -29.1143   -4.9297   32.3000 C   0  0  0  0  0  0  0  0  0  0  0  0
  -28.6315   -3.7281   32.1835 F   0  0  0  0  0  0  0  0  0  0  0  0
  -27.8377   -2.9511   30.1539 F   0  0  0  0  0  0  0  0  0  0  0  0
  -30.1371   -2.3752   31.7166 F   0  0  0  0  0  0  0  0  0  0  0  0
  3  7  1  0
  7  8  2  3
  8  9  1  0
  7 15  1  0
 15 16  1  0
 15 17  1  0
 10 18  1  0
 18 19  2  0
 18 20  1  0
  2 21  1  0
 21 22  1  0
 22 23  1  0
 23 24  2  0
 23 25  1  0
 25 26  1  0
 27 28  1  0
 25 30  1  0
 29 30  1  0
 30 31  1  0
 22 32  1  0
 22 33  1  0
 26 27  1  0
 28 29  1  0
  1  2  2  0
  2  5  1  0
  5  6  2  0
  6  4  1  0
  4  3  2  0
  3  1  1  0
  9 10  2  0
 10 11  1  0
 11 12  2  0
 12 14  1  0
 14 13  2  0
 13  9  1  0
M  END

$$$$
