No_4950-gen_results/8p0m/2024-11-26-14-13-15/
     RDKit          3D

 33 37  0  0  0  0  0  0  0  0999 V2000
  -28.1229   -1.3353   28.4874 O   0  0  0  0  0  0  0  0  0  0  0  0
  -27.4806   -0.4044   28.7094 C   0  0  0  0  0  0  0  0  0  0  0  0
  -26.3804   -0.0867   27.9394 C   0  0  0  0  0  0  0  0  0  0  0  0
  -27.6664    0.4468   29.8988 N   0  0  0  0  0  0  0  0  0  0  0  0
  -25.1773   -0.4388   28.3946 C   0  0  0  0  0  0  0  0  0  0  0  0
  -26.5259    0.6036   26.6867 C   0  0  0  0  0  0  0  0  0  0  0  0
  -23.9372    0.0372   27.6524 C   0  0  0  0  0  0  0  0  0  0  0  0
  -25.3817    0.9698   25.9434 C   0  0  0  0  0  0  0  0  0  0  0  0
  -24.1031    0.7250   26.4412 C   0  0  0  0  0  0  0  0  0  0  0  0
  -28.7588    0.1102   30.7851 C   0  0  0  0  0  0  0  0  0  0  0  0
  -26.8485    1.5208   30.1933 C   0  0  0  0  0  0  0  0  0  0  0  0
  -27.1731    2.5424   30.3599 C   0  0  0  0  0  0  0  0  0  0  0  0
  -27.0639    3.5378   29.7951 C   0  0  0  0  0  0  0  0  0  0  0  0
  -26.6948    3.5555   28.4395 C   0  0  0  0  0  0  0  0  0  0  0  0
  -25.2684    3.7867   28.3054 C   0  0  0  0  0  0  0  0  0  0  0  0
  -27.4874    3.5651   27.3442 C   0  0  0  0  0  0  0  0  0  0  0  0
  -24.7341    4.0647   26.9473 C   0  0  0  0  0  0  0  0  0  0  0  0
  -27.0207    3.9544   26.0731 C   0  0  0  0  0  0  0  0  0  0  0  0
  -25.5765    4.1982   25.9070 C   0  0  0  0  0  0  0  0  0  0  0  0
  -27.8417    0.8005   26.1333 C   0  0  0  0  0  0  0  0  0  0  0  0
  -28.3875   -0.0529   25.3158 C   0  0  0  0  0  0  0  0  0  0  0  0
  -29.6833    0.0640   24.7791 C   0  0  0  0  0  0  0  0  0  0  0  0
  -30.5143    1.0785   25.2449 C   0  0  0  0  0  0  0  0  0  0  0  0
  -30.0447    1.9856   26.1679 C   0  0  0  0  0  0  0  0  0  0  0  0
  -28.7324    1.8286   26.7329 C   0  0  0  0  0  0  0  0  0  0  0  0
  -28.4670    2.8161   27.4010 O   0  0  0  0  0  0  0  0  0  0  0  0
  -29.5654    0.8359   30.7853 O   0  0  0  0  0  0  0  0  0  0  0  0
  -28.5614   -1.0844   31.4556 C   0  0  0  0  0  0  0  0  0  0  0  0
  -29.4879   -1.2112   32.4136 C   0  0  0  0  0  0  0  0  0  0  0  0
  -29.9342   -2.5956   32.5887 C   0  0  0  0  0  0  0  0  0  0  0  0
  -29.2804   -3.6617   31.9412 C   0  0  0  0  0  0  0  0  0  0  0  0
  -28.3306   -3.3998   30.9398 C   0  0  0  0  0  0  0  0  0  0  0  0
  -27.5670   -2.0432   31.3864 C   0  0  0  0  0  0  0  0  0  0  0  0
  1  2  2  0
  2  3  1  0
  2  4  1  0
  4 10  1  0
  4 11  1  0
 11 12  2  3
 12 13  1  0
 13 14  1  0
  6 20  1  0
 16 26  1  0
 25 26  1  0
 10 27  2  0
 10 28  1  0
 20 21  2  0
 21 22  1  0
 22 23  2  0
 23 24  1  0
 24 25  2  0
 25 20  1  0
 28 29  2  0
 29 30  1  0
 30 31  2  0
 31 32  1  0
 32 33  2  0
 33 28  1  0
 14 15  2  0
 15 17  1  0
 17 19  2  0
 19 18  1  0
 18 16  2  0
 16 14  1  0
  3  5  2  0
  5  7  1  0
  7  9  2  0
  9  8  1  0
  8  6  2  0
  6  3  1  0
M  END

$$$$
