No_4679-gen_results/8p0m/2024-11-26-14-13-15/
     RDKit          3D

 20 20  0  0  0  0  0  0  0  0999 V2000
  -28.0162   -0.8135   28.8779 C   0  0  0  0  0  0  0  0  0  0  0  0
  -27.0636   -0.1189   28.6079 C   0  0  0  0  0  0  0  0  0  0  0  0
  -26.9716    0.7139   27.5060 C   0  0  0  0  0  0  0  0  0  0  0  0
  -25.8205    1.4910   27.1160 C   0  0  0  0  0  0  0  0  0  0  0  0
  -24.6562    1.4242   27.9180 C   0  0  0  0  0  0  0  0  0  0  0  0
  -24.6847    0.5901   29.0659 C   0  0  0  0  0  0  0  0  0  0  0  0
  -25.8099   -0.1265   29.3338 C   0  0  0  0  0  0  0  0  0  0  0  0
  -28.6943   -0.4734   30.1587 C   0  0  0  0  0  0  0  0  0  0  0  0
  -28.7309    0.5070   30.6385 O   0  0  0  0  0  0  0  0  0  0  0  0
  -28.9307   -1.6314   30.8976 O   0  0  0  0  0  0  0  0  0  0  0  0
  -23.4664    2.2000   27.5987 C   0  0  0  0  0  0  0  0  0  0  0  0
  -22.6443    1.6762   27.0849 F   0  0  0  0  0  0  0  0  0  0  0  0
  -23.0054    2.8041   28.7625 F   0  0  0  0  0  0  0  0  0  0  0  0
  -23.8752    3.3224   26.8930 F   0  0  0  0  0  0  0  0  0  0  0  0
  -28.1072    0.8025   26.5672 C   0  0  0  0  0  0  0  0  0  0  0  0
  -29.1674    0.8691   27.0105 F   0  0  0  0  0  0  0  0  0  0  0  0
  -27.8858    1.8674   25.7617 F   0  0  0  0  0  0  0  0  0  0  0  0
  -27.9934   -0.2266   25.6526 F   0  0  0  0  0  0  0  0  0  0  0  0
  -23.9279    0.8609   27.4497 Cl  0  0  0  0  0  0  0  0  0  0  0  0
  -25.9094    2.3974   26.2714 O   0  0  0  0  0  0  0  0  0  0  0  0
  2  3  1  0
  3  4  1  0
  4  5  1  0
  5  6  1  0
  2  7  1  0
  1  8  1  0
  8  9  2  0
  8 10  1  0
  5 11  1  0
 11 12  1  0
 11 13  1  0
 11 14  1  0
  3 15  1  0
 15 16  1  0
 15 17  1  0
 15 18  1  0
  5 19  1  0
  4 20  2  0
  1  2  1  0
  7  6  1  0
M  END

$$$$
