No_4413-gen_results/8p0m/2024-11-26-14-13-15/
     RDKit          3D

 22 23  0  0  0  0  0  0  0  0999 V2000
  -28.0162   -0.8135   28.8779 C   0  0  0  0  0  0  0  0  0  0  0  0
  -28.4690   -0.7850   29.8287 C   0  0  0  0  0  0  0  0  0  0  0  0
  -28.1816    0.4277   28.1134 C   0  0  0  0  0  0  0  0  0  0  0  0
  -27.4498    0.6435   26.8500 C   0  0  0  0  0  0  0  0  0  0  0  0
  -26.1815    0.0357   26.7145 C   0  0  0  0  0  0  0  0  0  0  0  0
  -25.7800   -0.9326   27.6938 C   0  0  0  0  0  0  0  0  0  0  0  0
  -26.5568   -1.2134   28.7413 C   0  0  0  0  0  0  0  0  0  0  0  0
  -28.3021   -1.9782   30.6613 N   0  0  0  0  0  0  0  0  0  0  0  0
  -29.5330   -0.1613   30.2779 O   0  0  0  0  0  0  0  0  0  0  0  0
  -28.9684   -2.6353   31.0233 C   0  0  0  0  0  0  0  0  0  0  0  0
  -25.3587    0.3024   25.6682 O   0  0  0  0  0  0  0  0  0  0  0  0
  -29.7908   -3.5448   30.1690 C   0  0  0  0  0  0  0  0  0  0  0  0
  -30.5099   -4.6200   30.7980 C   0  0  0  0  0  0  0  0  0  0  0  0
  -30.6241   -4.6988   32.2087 C   0  0  0  0  0  0  0  0  0  0  0  0
  -29.9272   -3.8434   33.0095 C   0  0  0  0  0  0  0  0  0  0  0  0
  -29.1201   -2.8740   32.5041 C   0  0  0  0  0  0  0  0  0  0  0  0
  -24.4849    1.2847   25.7116 C   0  0  0  0  0  0  0  0  0  0  0  0
  -24.7246    2.4776   26.2577 C   0  0  0  0  0  0  0  0  0  0  0  0
  -24.1549    3.0343   27.0930 C   0  0  0  0  0  0  0  0  0  0  0  0
  -24.6905    4.2236   27.8483 C   0  0  0  0  0  0  0  0  0  0  0  0
  -25.8094    4.8515   27.2470 C   0  0  0  0  0  0  0  0  0  0  0  0
  -26.4491    4.2500   26.2175 C   0  0  0  0  0  0  0  0  0  0  0  0
  1  2  1  0
  2  8  1  0
  2  9  2  0
  5 11  1  0
 11 17  1  0
 17 18  2  3
 18 19  1  0
 19 20  2  3
 20 21  1  0
 21 22  2  0
  8 10  1  0
 10 12  2  0
 12 13  1  0
 13 14  2  0
 14 15  1  0
 15 16  2  0
 16 10  1  0
  1  3  2  0
  3  4  1  0
  4  5  2  0
  5  6  1  0
  6  7  2  0
  7  1  1  0
M  END

$$$$
