No_4896-gen_results/8p0m/2024-11-26-14-13-15/
     RDKit          3D

 35 39  0  0  0  0  0  0  0  0999 V2000
  -28.0162   -0.8135   28.8779 C   0  0  0  0  0  0  0  0  0  0  0  0
  -28.4690   -0.7850   29.8287 C   0  0  0  0  0  0  0  0  0  0  0  0
  -26.5042   -0.7777   28.8766 C   0  0  0  0  0  0  0  0  0  0  0  0
  -25.8103   -0.8531   30.1028 C   0  0  0  0  0  0  0  0  0  0  0  0
  -27.9906   -0.8916   31.2257 C   0  0  0  0  0  0  0  0  0  0  0  0
  -26.6042   -0.8676   31.2652 C   0  0  0  0  0  0  0  0  0  0  0  0
  -29.9538   -0.7893   29.6416 N   0  0  0  0  0  0  0  0  0  0  0  0
  -30.6786    0.2685   30.0366 C   0  0  0  0  0  0  0  0  0  0  0  0
  -31.4485    0.8474   29.5257 C   0  0  0  0  0  0  0  0  0  0  0  0
  -31.9181    0.4752   28.1557 C   0  0  0  0  0  0  0  0  0  0  0  0
  -32.7205    1.1316   27.3664 C   0  0  0  0  0  0  0  0  0  0  0  0
  -33.0142    0.7078   26.0629 C   0  0  0  0  0  0  0  0  0  0  0  0
  -32.4026   -0.5327   25.6000 C   0  0  0  0  0  0  0  0  0  0  0  0
  -31.5565   -1.2230   26.4186 C   0  0  0  0  0  0  0  0  0  0  0  0
  -31.2658   -0.7509   27.6493 C   0  0  0  0  0  0  0  0  0  0  0  0
  -30.4619   -1.4466   28.5812 C   0  0  0  0  0  0  0  0  0  0  0  0
  -24.3649   -0.8666   30.1482 C   0  0  0  0  0  0  0  0  0  0  0  0
  -23.6655   -1.3551   30.7506 C   0  0  0  0  0  0  0  0  0  0  0  0
  -22.1724   -1.1824   30.7880 C   0  0  0  0  0  0  0  0  0  0  0  0
  -21.7314   -0.4342   29.7089 C   0  0  0  0  0  0  0  0  0  0  0  0
  -23.4179   -0.0570   29.0832 C   0  0  0  0  0  0  0  0  0  0  0  0
  -23.5809    0.7227   28.0390 C   0  0  0  0  0  0  0  0  0  0  0  0
  -22.6614    1.7841   27.9013 C   0  0  0  0  0  0  0  0  0  0  0  0
  -22.9779    2.9071   26.4134 Br  0  0  0  0  0  0  0  0  0  0  0  0
  -28.7916   -0.9861   32.4181 C   0  0  0  0  0  0  0  0  0  0  0  0
  -29.8560   -0.4911   32.7016 N   0  0  0  0  0  0  0  0  0  0  0  0
  -29.8006    0.6759   33.4456 C   0  0  0  0  0  0  0  0  0  0  0  0
  -31.0834   -1.1777   32.5896 C   0  0  0  0  0  0  0  0  0  0  0  0
  -30.1932    0.6397   34.7679 C   0  0  0  0  0  0  0  0  0  0  0  0
  -31.6534    0.5111   34.8763 C   0  0  0  0  0  0  0  0  0  0  0  0
  -32.0830   -0.6601   34.0156 C   0  0  0  0  0  0  0  0  0  0  0  0
  -28.3073   -1.9201   33.2493 O   0  0  0  0  0  0  0  0  0  0  0  0
  -33.5091   -0.5065   33.4432 C   0  0  0  0  0  0  0  0  0  0  0  0
  -33.8227   -1.2444   32.6952 F   0  0  0  0  0  0  0  0  0  0  0  0
  -34.2024   -0.6896   34.6179 F   0  0  0  0  0  0  0  0  0  0  0  0
  2  7  1  0
  7  8  1  0
  9 10  1  0
  7 16  1  0
 15 16  1  0
  4 17  1  0
 17 18  2  0
 18 19  1  0
 19 20  2  0
 17 21  1  0
 20 21  1  0
 21 22  1  0
 22 23  1  0
 23 24  1  0
  5 25  1  0
 25 26  1  0
 26 27  1  0
 26 28  1  0
 27 29  1  0
 29 30  1  0
 30 31  1  0
 25 32  2  0
 31 33  1  0
 33 34  1  0
 33 35  1  0
 31 28  1  0
  8  9  1  0
  1  2  2  0
  2  5  1  0
  5  6  2  0
  6  4  1  0
  4  3  2  0
  3  1  1  0
 10 11  2  0
 11 12  1  0
 12 13  2  0
 13 14  1  0
 14 15  2  0
 15 10  1  0
M  END

$$$$
