No_4246-gen_results/8p0m/2024-11-26-14-13-15/
     RDKit          3D

 12 13  0  0  0  0  0  0  0  0999 V2000
  -28.1229   -1.3353   28.4874 O   0  0  0  0  0  0  0  0  0  0  0  0
  -27.0637   -0.8242   28.8687 C   0  0  0  0  0  0  0  0  0  0  0  0
  -25.9464   -1.0396   28.8492 C   0  0  0  0  0  0  0  0  0  0  0  0
  -24.7602   -0.1562   29.1644 C   0  0  0  0  0  0  0  0  0  0  0  0
  -23.3890   -0.4550   29.0162 C   0  0  0  0  0  0  0  0  0  0  0  0
  -27.2727    0.6766   29.5669 C   0  0  0  0  0  0  0  0  0  0  0  0
  -26.2729    1.5233   29.8668 C   0  0  0  0  0  0  0  0  0  0  0  0
  -24.9824    1.1601   29.6992 C   0  0  0  0  0  0  0  0  0  0  0  0
  -22.3645    0.4772   28.9546 C   0  0  0  0  0  0  0  0  0  0  0  0
  -22.6986    1.7723   29.2345 C   0  0  0  0  0  0  0  0  0  0  0  0
  -23.9010    2.1121   29.7434 C   0  0  0  0  0  0  0  0  0  0  0  0
  -20.9970    0.0883   28.6444 C   0  0  0  0  0  0  0  0  0  0  0  0
  1  2  2  0
  2  3  1  0
  3  4  1  0
  2  6  1  0
  7  8  1  0
  9 12  1  0
  7  6  1  0
  4  5  2  0
  5  9  1  0
  9 10  2  0
 10 11  1  0
 11  8  2  0
  8  4  1  0
M  END

$$$$
