No_4005-gen_results/8p0m/2024-11-26-14-13-15/
     RDKit          3D

 23 25  0  0  0  0  0  0  0  0999 V2000
  -28.0162   -0.8135   28.8779 C   0  0  0  0  0  0  0  0  0  0  0  0
  -27.0636   -0.1189   28.6079 C   0  0  0  0  0  0  0  0  0  0  0  0
  -25.7647   -0.3897   29.0360 C   0  0  0  0  0  0  0  0  0  0  0  0
  -25.5296   -1.5302   29.9014 C   0  0  0  0  0  0  0  0  0  0  0  0
  -26.6888   -2.2893   30.1810 C   0  0  0  0  0  0  0  0  0  0  0  0
  -27.8727   -1.9508   29.7373 C   0  0  0  0  0  0  0  0  0  0  0  0
  -28.9304   -2.7298   30.1154 O   0  0  0  0  0  0  0  0  0  0  0  0
  -24.5394    0.4211   28.7421 C   0  0  0  0  0  0  0  0  0  0  0  0
  -23.3459    0.1143   29.1690 C   0  0  0  0  0  0  0  0  0  0  0  0
  -22.1936    0.8740   28.7553 C   0  0  0  0  0  0  0  0  0  0  0  0
  -22.3615    1.8342   27.6952 C   0  0  0  0  0  0  0  0  0  0  0  0
  -24.5980    1.3584   27.6395 C   0  0  0  0  0  0  0  0  0  0  0  0
  -23.5460    2.0827   27.2326 C   0  0  0  0  0  0  0  0  0  0  0  0
  -29.3052   -2.7582   31.4550 C   0  0  0  0  0  0  0  0  0  0  0  0
  -29.8375   -1.7035   31.9533 C   0  0  0  0  0  0  0  0  0  0  0  0
  -30.3716   -0.8035   31.2427 C   0  0  0  0  0  0  0  0  0  0  0  0
  -30.3818    0.4773   31.7430 C   0  0  0  0  0  0  0  0  0  0  0  0
  -30.8301    1.6534   30.9330 C   0  0  0  0  0  0  0  0  0  0  0  0
  -31.3728    1.3701   29.6881 C   0  0  0  0  0  0  0  0  0  0  0  0
  -31.4096    0.0711   29.2343 C   0  0  0  0  0  0  0  0  0  0  0  0
  -30.8746   -0.9716   29.9689 C   0  0  0  0  0  0  0  0  0  0  0  0
  -29.7586   -1.6049   33.4504 C   0  0  0  0  0  0  0  0  0  0  0  0
  -30.9883   -1.7185   34.1355 C   0  0  0  0  0  0  0  0  0  0  0  0
  6  7  1  0
  3  8  1  0
  7 14  1  0
 14 15  1  0
 15 16  1  0
 15 22  1  0
 22 23  1  0
  1  2  2  0
  2  3  1  0
  3  4  2  0
  4  5  1  0
  5  6  2  0
  6  1  1  0
 16 17  2  0
 17 18  1  0
 18 19  2  0
 19 20  1  0
 20 21  2  0
 21 16  1  0
  8  9  2  0
  9 10  1  0
 10 11  2  0
 11 13  1  0
 13 12  2  0
 12  8  1  0
M  END

$$$$
