No_4394-gen_results/8p0m/2024-11-26-14-13-15/
     RDKit          3D

 17 18  0  0  0  0  0  0  0  0999 V2000
  -28.0162   -0.8135   28.8779 C   0  0  0  0  0  0  0  0  0  0  0  0
  -27.0636   -0.1190   28.6079 C   0  0  0  0  0  0  0  0  0  0  0  0
  -27.0010    0.6913   27.4910 C   0  0  0  0  0  0  0  0  0  0  0  0
  -25.7770    1.0214   26.9135 C   0  0  0  0  0  0  0  0  0  0  0  0
  -24.5088    0.7364   27.5686 C   0  0  0  0  0  0  0  0  0  0  0  0
  -24.5930   -0.0361   28.7390 C   0  0  0  0  0  0  0  0  0  0  0  0
  -25.8114   -0.4771   29.1584 C   0  0  0  0  0  0  0  0  0  0  0  0
  -28.6413   -0.4024   30.1937 C   0  0  0  0  0  0  0  0  0  0  0  0
  -29.6960   -1.1852   30.7378 C   0  0  0  0  0  0  0  0  0  0  0  0
  -23.2500    1.2821   27.0867 C   0  0  0  0  0  0  0  0  0  0  0  0
  -22.6605    2.3251   27.6525 C   0  0  0  0  0  0  0  0  0  0  0  0
  -22.0371    1.9126   28.6677 C   0  0  0  0  0  0  0  0  0  0  0  0
  -30.0058   -2.2342   30.0542 C   0  0  0  0  0  0  0  0  0  0  0  0
  -30.1897   -3.1772   30.6288 C   0  0  0  0  0  0  0  0  0  0  0  0
  -30.1272   -3.1750   31.9395 C   0  0  0  0  0  0  0  0  0  0  0  0
  -29.9141   -2.2006   32.8042 C   0  0  0  0  0  0  0  0  0  0  0  0
  -29.0587   -1.4210   32.0848 C   0  0  0  0  0  0  0  0  0  0  0  0
  1  2  1  0
  1  8  1  0
  8  9  1  0
  5 10  1  0
 10 11  1  0
 11 12  1  0
  2  3  2  0
  3  4  1  0
  4  5  2  0
  5  6  1  0
  6  7  2  0
  7  2  1  0
  9 13  2  0
 13 14  1  0
 14 15  2  0
 15 16  1  0
 16 17  2  0
 17  9  1  0
M  END

$$$$
