No_4391-gen_results/8p0m/2024-11-26-14-13-15/
     RDKit          3D

 13 14  0  0  0  0  0  0  0  0999 V2000
  -28.0162   -0.8135   28.8779 C   0  0  0  0  0  0  0  0  0  0  0  0
  -27.0636   -0.1190   28.6079 C   0  0  0  0  0  0  0  0  0  0  0  0
  -26.8756    1.1325   28.9134 C   0  0  0  0  0  0  0  0  0  0  0  0
  -25.6883    1.9515   28.5672 C   0  0  0  0  0  0  0  0  0  0  0  0
  -25.5093    3.3042   28.8859 C   0  0  0  0  0  0  0  0  0  0  0  0
  -28.0567   -1.9994   29.2937 C   0  0  0  0  0  0  0  0  0  0  0  0
  -26.7327   -2.6916   29.5192 C   0  0  0  0  0  0  0  0  0  0  0  0
  -25.5764   -2.0233   29.1553 C   0  0  0  0  0  0  0  0  0  0  0  0
  -25.6892   -0.7599   28.8308 C   0  0  0  0  0  0  0  0  0  0  0  0
  -24.4400    1.0745   28.8479 C   0  0  0  0  0  0  0  0  0  0  0  0
  -24.4217   -0.2400   28.6779 C   0  0  0  0  0  0  0  0  0  0  0  0
  -25.6346    3.8686   29.8881 O   0  0  0  0  0  0  0  0  0  0  0  0
  -25.0390    3.9703   27.7921 O   0  0  0  0  0  0  0  0  0  0  0  0
  4  5  1  0
  5 12  1  0
  5 13  2  0
  2  3  1  0
  3  4  2  0
  4 10  1  0
 10 11  2  0
 11  9  1  0
  1  2  2  0
  2  9  1  0
  9  8  2  0
  8  7  1  0
  7  6  2  0
  6  1  1  0
M  END

$$$$
