No_4671-gen_results/8p0m/2024-11-26-14-13-15/
     RDKit          3D

 19 21  0  0  0  0  0  0  0  0999 V2000
  -28.0162   -0.8135   28.8779 C   0  0  0  0  0  0  0  0  0  0  0  0
  -27.0636   -0.1190   28.6079 C   0  0  0  0  0  0  0  0  0  0  0  0
  -25.7923   -0.4302   29.0761 C   0  0  0  0  0  0  0  0  0  0  0  0
  -25.2700   -0.0487   30.0123 C   0  0  0  0  0  0  0  0  0  0  0  0
  -27.8851   -1.6684   30.1122 C   0  0  0  0  0  0  0  0  0  0  0  0
  -26.9250   -1.6039   31.1803 C   0  0  0  0  0  0  0  0  0  0  0  0
  -25.6201   -1.1588   31.0391 C   0  0  0  0  0  0  0  0  0  0  0  0
  -27.0087    0.3663   27.1241 C   0  0  0  0  0  0  0  0  0  0  0  0
  -28.0171    1.0246   26.6258 C   0  0  0  0  0  0  0  0  0  0  0  0
  -25.8358    0.1797   26.2889 C   0  0  0  0  0  0  0  0  0  0  0  0
  -25.0920    1.1182   25.9599 C   0  0  0  0  0  0  0  0  0  0  0  0
  -27.6667    2.0611   25.6798 C   0  0  0  0  0  0  0  0  0  0  0  0
  -25.5657    2.3638   25.7172 C   0  0  0  0  0  0  0  0  0  0  0  0
  -26.7044    2.7875   25.3594 C   0  0  0  0  0  0  0  0  0  0  0  0
  -28.8287   -2.8363   30.2099 C   0  0  0  0  0  0  0  0  0  0  0  0
  -28.3742   -4.0469   30.2105 O   0  0  0  0  0  0  0  0  0  0  0  0
  -30.0483   -2.6914   30.2951 O   0  0  0  0  0  0  0  0  0  0  0  0
  -24.8803   -1.2939   28.2461 C   0  0  0  0  0  0  0  0  0  0  0  0
  -25.3811   -1.2358   26.4072 C   0  0  0  0  0  0  0  0  0  0  0  0
  1  2  1  0
  2  3  1  0
  3  4  2  0
  1  5  1  0
  5  6  1  0
  4  7  1  0
  6  7  1  0
  2  8  1  0
  8  9  1  0
  8 10  1  0
 10 11  1  0
  9 12  2  0
 11 13  2  0
 12 14  1  0
 13 14  1  0
  5 15  1  0
 15 16  2  0
 15 17  1  0
  3 18  1  0
 10 19  1  0
 18 19  1  0
M  END

$$$$
