No_483-gen_results/8p0m/2024-11-26-14-13-15/
     RDKit          3D

 23 25  0  0  0  0  0  0  0  0999 V2000
  -28.0162   -0.8135   28.8779 C   0  0  0  0  0  0  0  0  0  0  0  0
  -27.0636   -0.1189   28.6079 C   0  0  0  0  0  0  0  0  0  0  0  0
  -26.9716    0.7139   27.5060 C   0  0  0  0  0  0  0  0  0  0  0  0
  -28.1053    0.7744   26.6421 C   0  0  0  0  0  0  0  0  0  0  0  0
  -29.2041    0.1179   27.0477 C   0  0  0  0  0  0  0  0  0  0  0  0
  -29.2127   -0.6088   28.1281 C   0  0  0  0  0  0  0  0  0  0  0  0
  -25.5373    1.5799   27.0783 Cl  0  0  0  0  0  0  0  0  0  0  0  0
  -30.2623    0.2199   26.2435 F   0  0  0  0  0  0  0  0  0  0  0  0
  -25.8356   -0.2344   29.6062 C   0  0  0  0  0  0  0  0  0  0  0  0
  -25.2737   -1.3869   29.7982 C   0  0  0  0  0  0  0  0  0  0  0  0
  -24.1339   -1.5071   30.6206 C   0  0  0  0  0  0  0  0  0  0  0  0
  -23.5733   -0.3352   31.2108 C   0  0  0  0  0  0  0  0  0  0  0  0
  -24.1281    0.9004   30.8829 C   0  0  0  0  0  0  0  0  0  0  0  0
  -25.2874    0.9544   30.0475 C   0  0  0  0  0  0  0  0  0  0  0  0
  -28.2014    1.6346   25.4674 C   0  0  0  0  0  0  0  0  0  0  0  0
  -27.8096    2.7752   25.5228 C   0  0  0  0  0  0  0  0  0  0  0  0
  -28.4665    1.0038   24.2677 C   0  0  0  0  0  0  0  0  0  0  0  0
  -28.3681    3.8687   25.9042 C   0  0  0  0  0  0  0  0  0  0  0  0
  -29.7933    3.9806   26.0722 C   0  0  0  0  0  0  0  0  0  0  0  0
  -30.4127    5.1752   26.4934 C   0  0  0  0  0  0  0  0  0  0  0  0
  -29.5965    6.2103   26.9594 C   0  0  0  0  0  0  0  0  0  0  0  0
  -28.2259    6.2200   26.8696 C   0  0  0  0  0  0  0  0  0  0  0  0
  -27.6476    5.1243   26.4033 C   0  0  0  0  0  0  0  0  0  0  0  0
  3  7  1  0
  5  8  1  0
  2  9  1  0
  4 15  1  0
 15 16  1  0
 15 17  1  0
 16 18  1  0
 18 19  2  0
 19 20  1  0
 20 21  2  0
 21 22  1  0
 22 23  2  0
 23 18  1  0
  1  2  2  0
  2  3  1  0
  3  4  2  0
  4  5  1  0
  5  6  2  0
  6  1  1  0
  9 10  2  0
 10 11  1  0
 11 12  2  0
 12 13  1  0
 13 14  2  0
 14  9  1  0
M  END

$$$$
