No_4581-gen_results/8p0m/2024-11-26-14-13-15/
     RDKit          3D

 27 29  0  0  0  0  0  0  0  0999 V2000
  -28.0162   -0.8135   28.8779 C   0  0  0  0  0  0  0  0  0  0  0  0
  -28.4690   -0.7850   29.8287 C   0  0  0  0  0  0  0  0  0  0  0  0
  -27.1356    0.2359   28.5352 C   0  0  0  0  0  0  0  0  0  0  0  0
  -26.8745    1.2825   29.3982 C   0  0  0  0  0  0  0  0  0  0  0  0
  -28.3613    0.1987   30.9244 C   0  0  0  0  0  0  0  0  0  0  0  0
  -27.5277    1.2234   30.6356 C   0  0  0  0  0  0  0  0  0  0  0  0
  -26.3987    0.2949   27.2279 C   0  0  0  0  0  0  0  0  0  0  0  0
  -26.9022    0.7280   26.2134 C   0  0  0  0  0  0  0  0  0  0  0  0
  -26.1747    0.6364   24.9259 C   0  0  0  0  0  0  0  0  0  0  0  0
  -24.9912    0.4116   27.2698 C   0  0  0  0  0  0  0  0  0  0  0  0
  -24.1911    0.5659   26.1774 C   0  0  0  0  0  0  0  0  0  0  0  0
  -24.8392    0.6873   24.9353 C   0  0  0  0  0  0  0  0  0  0  0  0
  -28.2413    0.6167   25.9846 F   0  0  0  0  0  0  0  0  0  0  0  0
  -24.2024    0.1773   28.5916 C   0  0  0  0  0  0  0  0  0  0  0  0
  -23.2470    1.1833   28.9359 C   0  0  0  0  0  0  0  0  0  0  0  0
  -24.3330   -0.9522   29.3348 C   0  0  0  0  0  0  0  0  0  0  0  0
  -23.9190   -1.2654   30.2136 C   0  0  0  0  0  0  0  0  0  0  0  0
  -22.9634   -0.2723   30.9056 C   0  0  0  0  0  0  0  0  0  0  0  0
  -22.7166    0.9180   30.2207 C   0  0  0  0  0  0  0  0  0  0  0  0
  -29.4769   -1.9696   30.3110 C   0  0  0  0  0  0  0  0  0  0  0  0
  -30.3713   -2.2054   29.7048 O   0  0  0  0  0  0  0  0  0  0  0  0
  -29.3709   -2.3743   31.5612 O   0  0  0  0  0  0  0  0  0  0  0  0
  -22.9323    2.6281   28.1942 Cl  0  0  0  0  0  0  0  0  0  0  0  0
  -27.3261    2.3327   31.6288 C   0  0  0  0  0  0  0  0  0  0  0  0
  -27.5321    3.4742   31.3570 F   0  0  0  0  0  0  0  0  0  0  0  0
  -25.9807    2.2147   32.0581 F   0  0  0  0  0  0  0  0  0  0  0  0
  -27.9776    1.9746   32.8062 F   0  0  0  0  0  0  0  0  0  0  0  0
  3  7  1  0
  8 13  1  0
 10 14  1  0
  2 20  1  0
 20 21  1  0
 20 22  2  0
 15 23  1  0
  6 24  1  0
 24 25  1  0
 24 26  1  0
 24 27  1  0
  1  2  2  0
  2  5  1  0
  5  6  2  0
  6  4  1  0
  4  3  2  0
  3  1  1  0
  7  8  2  0
  8  9  1  0
  9 12  2  0
 12 11  1  0
 11 10  2  0
 10  7  1  0
 14 15  2  0
 15 19  1  0
 19 18  2  0
 18 17  1  0
 17 16  2  0
 16 14  1  0
M  END

$$$$
