No_4501-gen_results/8p0m/2024-11-26-14-13-15/
     RDKit          3D

 34 36  0  0  0  0  0  0  0  0999 V2000
  -28.0162   -0.8135   28.8779 C   0  0  0  0  0  0  0  0  0  0  0  0
  -28.4690   -0.7850   29.8287 C   0  0  0  0  0  0  0  0  0  0  0  0
  -27.1356    0.2359   28.5352 C   0  0  0  0  0  0  0  0  0  0  0  0
  -26.8745    1.2825   29.3982 C   0  0  0  0  0  0  0  0  0  0  0  0
  -28.3613    0.1987   30.9244 C   0  0  0  0  0  0  0  0  0  0  0  0
  -27.5277    1.2234   30.6356 C   0  0  0  0  0  0  0  0  0  0  0  0
  -26.3987    0.2949   27.2279 C   0  0  0  0  0  0  0  0  0  0  0  0
  -26.2345    1.5269   26.9600 F   0  0  0  0  0  0  0  0  0  0  0  0
  -25.2362   -0.3484   27.3099 F   0  0  0  0  0  0  0  0  0  0  0  0
  -27.1496   -0.2082   26.2061 F   0  0  0  0  0  0  0  0  0  0  0  0
  -29.3997   -1.9996   30.3310 C   0  0  0  0  0  0  0  0  0  0  0  0
  -30.4403   -1.9513   30.0350 O   0  0  0  0  0  0  0  0  0  0  0  0
  -28.8042   -3.0661   30.9877 N   0  0  0  0  0  0  0  0  0  0  0  0
  -29.5692   -4.2960   31.2884 C   0  0  0  0  0  0  0  0  0  0  0  0
  -30.8101   -4.2069   31.2919 C   0  0  0  0  0  0  0  0  0  0  0  0
  -28.8043   -5.2650   31.4339 O   0  0  0  0  0  0  0  0  0  0  0  0
  -31.3947   -5.5114   31.3845 C   0  0  0  0  0  0  0  0  0  0  0  0
  -31.3874   -6.1575   32.4851 C   0  0  0  0  0  0  0  0  0  0  0  0
  -32.0083   -7.5334   32.6022 C   0  0  0  0  0  0  0  0  0  0  0  0
  -32.7018   -7.9842   31.4565 C   0  0  0  0  0  0  0  0  0  0  0  0
  -32.7133   -7.2395   30.2940 C   0  0  0  0  0  0  0  0  0  0  0  0
  -32.1229   -6.0142   30.2439 C   0  0  0  0  0  0  0  0  0  0  0  0
  -33.3971   -7.7423   29.2752 F   0  0  0  0  0  0  0  0  0  0  0  0
  -32.1245   -5.3101   28.9626 C   0  0  0  0  0  0  0  0  0  0  0  0
  -33.0278   -4.3445   28.6549 C   0  0  0  0  0  0  0  0  0  0  0  0
  -31.1003   -5.6413   28.0025 C   0  0  0  0  0  0  0  0  0  0  0  0
  -33.0534   -3.7020   27.4472 C   0  0  0  0  0  0  0  0  0  0  0  0
  -32.0999   -4.1000   26.4393 C   0  0  0  0  0  0  0  0  0  0  0  0
  -32.0840   -3.4683   25.2940 N   0  0  0  0  0  0  0  0  0  0  0  0
  -31.1695   -5.0799   26.8142 C   0  0  0  0  0  0  0  0  0  0  0  0
  -32.0280   -2.0872   25.1214 C   0  0  0  0  0  0  0  0  0  0  0  0
  -31.2616   -1.4735   24.1392 C   0  0  0  0  0  0  0  0  0  0  0  0
  -31.1413   -0.0714   24.1416 C   0  0  0  0  0  0  0  0  0  0  0  0
  -31.8522    0.7249   25.0108 C   0  0  0  0  0  0  0  0  0  0  0  0
  3  7  1  0
  7  8  1  0
  7  9  1  0
  7 10  1  0
  2 11  1  0
 11 12  2  0
 11 13  1  0
 13 14  1  0
 14 15  1  0
 14 16  2  0
 15 17  1  0
 21 23  1  0
 22 24  1  0
 28 29  1  0
 29 31  1  0
 31 32  2  3
 32 33  1  0
 33 34  2  0
 17 18  2  0
 18 19  1  0
 19 20  2  0
 20 21  1  0
 21 22  2  0
 22 17  1  0
 24 25  2  0
 25 27  1  0
 27 28  2  0
 28 30  1  0
 30 26  2  0
 26 24  1  0
  1  2  2  0
  2  5  1  0
  5  6  2  0
  6  4  1  0
  4  3  2  0
  3  1  1  0
M  END

$$$$
