No_4695-gen_results/8p0m/2024-11-26-14-13-15/
     RDKit          3D

 12 13  0  0  0  0  0  0  0  0999 V2000
  -28.0162   -0.8135   28.8779 C   0  0  0  0  0  0  0  0  0  0  0  0
  -28.6209   -1.1855   29.7353 Cl  0  0  0  0  0  0  0  0  0  0  0  0
  -26.5231   -0.7877   28.9754 C   0  0  0  0  0  0  0  0  0  0  0  0
  -25.6303   -0.0854   28.1406 C   0  0  0  0  0  0  0  0  0  0  0  0
  -24.1741   -0.0070   28.3492 C   0  0  0  0  0  0  0  0  0  0  0  0
  -23.6506   -0.8692   29.3397 C   0  0  0  0  0  0  0  0  0  0  0  0
  -24.4595   -1.6300   30.1033 C   0  0  0  0  0  0  0  0  0  0  0  0
  -25.7889   -1.6236   29.9615 C   0  0  0  0  0  0  0  0  0  0  0  0
  -28.3459   -0.0191   27.6739 C   0  0  0  0  0  0  0  0  0  0  0  0
  -27.6023    0.5611   26.8198 N   0  0  0  0  0  0  0  0  0  0  0  0
  -26.2239    0.6889   27.0533 C   0  0  0  0  0  0  0  0  0  0  0  0
  -25.3775    1.2895   26.1772 N   0  0  0  0  0  0  0  0  0  0  0  0
  1  2  1  0
 11 12  1  0
  4  5  1  0
  5  6  2  0
  6  7  1  0
  7  8  2  0
  8  3  1  0
  1  3  2  0
  3  4  1  0
  4 11  2  0
 11 10  1  0
 10  9  2  0
  9  1  1  0
M  END

$$$$
