No_4412-gen_results/8p0m/2024-11-26-14-13-15/
     RDKit          3D

 18 19  0  0  0  0  0  0  0  0999 V2000
  -28.0162   -0.8135   28.8779 C   0  0  0  0  0  0  0  0  0  0  0  0
  -27.0636   -0.1189   28.6079 C   0  0  0  0  0  0  0  0  0  0  0  0
  -26.9287    1.1713   29.0083 C   0  0  0  0  0  0  0  0  0  0  0  0
  -27.9560    1.7411   29.7840 C   0  0  0  0  0  0  0  0  0  0  0  0
  -29.0569   -0.3271   29.7466 C   0  0  0  0  0  0  0  0  0  0  0  0
  -28.9828    0.9722   30.1516 C   0  0  0  0  0  0  0  0  0  0  0  0
  -25.7000   -0.5793   27.5849 Cl  0  0  0  0  0  0  0  0  0  0  0  0
  -30.2558    1.3919   31.2414 Cl  0  0  0  0  0  0  0  0  0  0  0  0
  -25.9050    2.2140   28.5942 C   0  0  0  0  0  0  0  0  0  0  0  0
  -24.6997    2.1133   29.2248 C   0  0  0  0  0  0  0  0  0  0  0  0
  -23.4364    2.3685   28.4802 C   0  0  0  0  0  0  0  0  0  0  0  0
  -23.5655    2.6704   27.0900 C   0  0  0  0  0  0  0  0  0  0  0  0
  -24.8484    2.8149   26.5500 C   0  0  0  0  0  0  0  0  0  0  0  0
  -25.9749    2.6275   27.2274 C   0  0  0  0  0  0  0  0  0  0  0  0
  -24.5077    1.7508   30.6423 C   0  0  0  0  0  0  0  0  0  0  0  0
  -24.3474    2.7647   31.4578 F   0  0  0  0  0  0  0  0  0  0  0  0
  -23.4273    0.9013   30.8299 F   0  0  0  0  0  0  0  0  0  0  0  0
  -25.5771    1.1339   31.1314 F   0  0  0  0  0  0  0  0  0  0  0  0
  2  7  1  0
  6  8  1  0
  3  9  1  0
 10 15  1  0
 15 16  1  0
 15 17  1  0
 15 18  1  0
  1  2  2  0
  2  3  1  0
  3  4  2  0
  4  6  1  0
  6  5  2  0
  5  1  1  0
  9 10  2  0
 10 11  1  0
 11 12  2  0
 12 13  1  0
 13 14  2  0
 14  9  1  0
M  END

$$$$
