No_4503-gen_results/8p0m/2024-11-26-14-13-15/
     RDKit          3D

 23 25  0  0  0  0  0  0  0  0999 V2000
  -28.0162   -0.8135   28.8779 C   0  0  0  0  0  0  0  0  0  0  0  0
  -27.0636   -0.1190   28.6079 C   0  0  0  0  0  0  0  0  0  0  0  0
  -25.7923   -0.4302   29.0761 C   0  0  0  0  0  0  0  0  0  0  0  0
  -24.5456    0.3494   28.8225 C   0  0  0  0  0  0  0  0  0  0  0  0
  -23.2409    0.0217   29.3323 C   0  0  0  0  0  0  0  0  0  0  0  0
  -22.1362    0.7695   29.0059 C   0  0  0  0  0  0  0  0  0  0  0  0
  -27.9050   -1.8984   29.8729 C   0  0  0  0  0  0  0  0  0  0  0  0
  -26.6795   -2.3145   30.3184 C   0  0  0  0  0  0  0  0  0  0  0  0
  -25.5203   -1.5564   29.9775 C   0  0  0  0  0  0  0  0  0  0  0  0
  -22.1155    1.7338   28.0257 C   0  0  0  0  0  0  0  0  0  0  0  0
  -24.5222    1.3908   27.7909 C   0  0  0  0  0  0  0  0  0  0  0  0
  -23.3248    2.0519   27.4472 C   0  0  0  0  0  0  0  0  0  0  0  0
  -29.0619   -2.7166   30.2973 C   0  0  0  0  0  0  0  0  0  0  0  0
  -30.1011   -2.4024   30.0936 O   0  0  0  0  0  0  0  0  0  0  0  0
  -28.7751   -3.8891   30.9878 N   0  0  0  0  0  0  0  0  0  0  0  0
  -29.7958   -4.7897   31.4570 C   0  0  0  0  0  0  0  0  0  0  0  0
  -30.7202   -4.2617   32.2464 C   0  0  0  0  0  0  0  0  0  0  0  0
  -31.7509   -4.9628   32.5460 C   0  0  0  0  0  0  0  0  0  0  0  0
  -31.8307   -6.3692   32.1589 C   0  0  0  0  0  0  0  0  0  0  0  0
  -30.8494   -6.8909   31.3285 C   0  0  0  0  0  0  0  0  0  0  0  0
  -29.7775   -6.0751   30.9641 C   0  0  0  0  0  0  0  0  0  0  0  0
  -23.4176    2.9888   26.4885 O   0  0  0  0  0  0  0  0  0  0  0  0
  -24.7200    3.2037   25.9597 C   0  0  0  0  0  0  0  0  0  0  0  0
  3  4  1  0
  7 13  1  0
 13 14  2  0
 13 15  1  0
 15 16  1  0
 12 22  1  0
 22 23  1  0
  1  2  2  0
  2  3  1  0
  3  9  2  0
  9  8  1  0
  8  7  2  0
  7  1  1  0
  4  5  2  0
  5  6  1  0
  6 10  2  0
 10 12  1  0
 12 11  2  0
 11  4  1  0
 16 17  2  0
 17 18  1  0
 18 19  2  0
 19 20  1  0
 20 21  2  0
 21 16  1  0
M  END

$$$$
