No_4944-gen_results/8p0m/2024-11-26-14-13-15/
     RDKit          3D

 15 16  0  0  0  0  0  0  0  0999 V2000
  -28.0162   -0.8135   28.8779 C   0  0  0  0  0  0  0  0  0  0  0  0
  -27.0636   -0.1190   28.6079 C   0  0  0  0  0  0  0  0  0  0  0  0
  -25.8176   -0.3427   29.0488 N   0  0  0  0  0  0  0  0  0  0  0  0
  -25.6067   -1.4414   29.8929 C   0  0  0  0  0  0  0  0  0  0  0  0
  -26.6760   -2.2193   30.2363 C   0  0  0  0  0  0  0  0  0  0  0  0
  -27.8635   -1.9317   29.7671 C   0  0  0  0  0  0  0  0  0  0  0  0
  -27.1319    1.0287   27.8069 N   0  0  0  0  0  0  0  0  0  0  0  0
  -27.8145    1.1379   26.7229 C   0  0  0  0  0  0  0  0  0  0  0  0
  -28.5947    0.3561   26.3063 C   0  0  0  0  0  0  0  0  0  0  0  0
  -29.2868    0.4894   25.0124 C   0  0  0  0  0  0  0  0  0  0  0  0
  -28.9672    1.6014   24.2729 C   0  0  0  0  0  0  0  0  0  0  0  0
  -28.0759    2.5641   24.7221 C   0  0  0  0  0  0  0  0  0  0  0  0
  -27.4567    2.3961   25.9308 C   0  0  0  0  0  0  0  0  0  0  0  0
  -26.1706    2.1494   28.2324 C   0  0  0  0  0  0  0  0  0  0  0  0
  -26.2140    3.1344   28.0575 C   0  0  0  0  0  0  0  0  0  0  0  0
  2  7  1  0
  7  8  1  0
  7 14  1  0
 14 15  2  0
  1  2  2  0
  2  3  1  0
  3  4  2  0
  4  5  1  0
  5  6  2  0
  6  1  1  0
  8  9  2  0
  9 10  1  0
 10 11  2  0
 11 12  1  0
 12 13  2  0
 13  8  1  0
M  END

$$$$
