No_4630-gen_results/8p0m/2024-11-26-14-13-15/
     RDKit          3D

 22 23  0  0  0  0  0  0  0  0999 V2000
  -28.0162   -0.8135   28.8779 C   0  0  0  0  0  0  0  0  0  0  0  0
  -28.4690   -0.7850   29.8287 C   0  0  0  0  0  0  0  0  0  0  0  0
  -26.5042   -0.7777   28.8766 C   0  0  0  0  0  0  0  0  0  0  0  0
  -25.8103   -0.8531   30.1028 C   0  0  0  0  0  0  0  0  0  0  0  0
  -27.9906   -0.8916   31.2257 C   0  0  0  0  0  0  0  0  0  0  0  0
  -26.6042   -0.8676   31.2652 C   0  0  0  0  0  0  0  0  0  0  0  0
  -24.3894   -0.8050   30.1638 C   0  0  0  0  0  0  0  0  0  0  0  0
  -23.6730   -1.0587   29.2511 N   0  0  0  0  0  0  0  0  0  0  0  0
  -22.2987   -0.7318   29.2069 C   0  0  0  0  0  0  0  0  0  0  0  0
  -23.8589   -0.6153   31.3627 O   0  0  0  0  0  0  0  0  0  0  0  0
  -30.0907   -0.7962   29.8287 C   0  0  0  0  0  0  0  0  0  0  0  0
  -30.5084   -0.3365   28.8716 O   0  0  0  0  0  0  0  0  0  0  0  0
  -30.8049   -1.2869   30.8581 N   0  0  0  0  0  0  0  0  0  0  0  0
  -32.2476   -1.2706   30.7794 C   0  0  0  0  0  0  0  0  0  0  0  0
  -32.9391   -0.6205   30.3258 C   0  0  0  0  0  0  0  0  0  0  0  0
  -33.8445   -0.2070   30.2132 C   0  0  0  0  0  0  0  0  0  0  0  0
  -34.7696   -0.4610   31.3428 C   0  0  0  0  0  0  0  0  0  0  0  0
  -34.2225   -1.3905   32.2616 C   0  0  0  0  0  0  0  0  0  0  0  0
  -32.8367   -1.6875   32.1501 C   0  0  0  0  0  0  0  0  0  0  0  0
  -34.9547   -1.7994   33.4845 C   0  0  0  0  0  0  0  0  0  0  0  0
  -34.7214   -1.1435   34.5852 C   0  0  0  0  0  0  0  0  0  0  0  0
  -35.4116   -1.5763   35.7993 C   0  0  0  0  0  0  0  0  0  0  0  0
  4  7  1  0
  7  8  1  0
  8  9  1  0
  7 10  2  0
  2 11  1  0
 11 12  2  0
 11 13  1  0
 13 14  1  0
 18 20  1  0
 20 21  2  3
 21 22  1  0
 14 15  2  0
 15 16  1  0
 16 17  2  0
 17 18  1  0
 18 19  2  0
 19 14  1  0
  1  2  2  0
  2  5  1  0
  5  6  2  0
  6  4  1  0
  4  3  2  0
  3  1  1  0
M  END

$$$$
