No_421-gen_results/8p0m/2024-11-26-14-13-15/
     RDKit          3D

 15 16  0  0  0  0  0  0  0  0999 V2000
  -28.0162   -0.8135   28.8779 C   0  0  0  0  0  0  0  0  0  0  0  0
  -28.4690   -0.7850   29.8287 C   0  0  0  0  0  0  0  0  0  0  0  0
  -28.1960    0.3478   28.0550 C   0  0  0  0  0  0  0  0  0  0  0  0
  -29.0191    1.3501   28.3782 C   0  0  0  0  0  0  0  0  0  0  0  0
  -29.6249    1.2683   29.6012 C   0  0  0  0  0  0  0  0  0  0  0  0
  -29.3791    0.1469   30.3923 C   0  0  0  0  0  0  0  0  0  0  0  0
  -27.4551    0.3822   26.7102 C   0  0  0  0  0  0  0  0  0  0  0  0
  -26.0156    0.4242   26.8243 C   0  0  0  0  0  0  0  0  0  0  0  0
  -25.2539    1.1682   25.9671 C   0  0  0  0  0  0  0  0  0  0  0  0
  -23.8754    1.3119   26.1282 C   0  0  0  0  0  0  0  0  0  0  0  0
  -23.2129    0.8849   27.2842 C   0  0  0  0  0  0  0  0  0  0  0  0
  -24.0022    0.1675   28.2288 C   0  0  0  0  0  0  0  0  0  0  0  0
  -25.3440   -0.0044   28.0344 C   0  0  0  0  0  0  0  0  0  0  0  0
  -21.8509    1.2084   27.6002 C   0  0  0  0  0  0  0  0  0  0  0  0
  -21.2086    0.5330   28.5387 N   0  0  0  0  0  0  0  0  0  0  0  0
  3  7  1  0
  7  8  1  0
 11 14  1  0
 14 15  2  0
  1  2  2  0
  2  6  1  0
  6  5  2  0
  5  4  1  0
  4  3  2  0
  3  1  1  0
  8  9  2  0
  9 10  1  0
 10 11  2  0
 11 12  1  0
 12 13  2  0
 13  8  1  0
M  END

$$$$
