No_4406-gen_results/8p0m/2024-11-26-14-13-15/
     RDKit          3D

 21 23  0  0  0  0  0  0  0  0999 V2000
  -28.0162   -0.8135   28.8779 C   0  0  0  0  0  0  0  0  0  0  0  0
  -28.4690   -0.7850   29.8287 C   0  0  0  0  0  0  0  0  0  0  0  0
  -28.1960    0.3478   28.0550 C   0  0  0  0  0  0  0  0  0  0  0  0
  -27.4421    0.5100   26.7946 C   0  0  0  0  0  0  0  0  0  0  0  0
  -26.4394    0.8329   26.6142 C   0  0  0  0  0  0  0  0  0  0  0  0
  -25.3816    0.5403   27.6600 C   0  0  0  0  0  0  0  0  0  0  0  0
  -24.0343    0.9634   27.4949 C   0  0  0  0  0  0  0  0  0  0  0  0
  -23.7167    1.6022   26.2745 C   0  0  0  0  0  0  0  0  0  0  0  0
  -24.5692    1.8225   25.2674 C   0  0  0  0  0  0  0  0  0  0  0  0
  -25.8455    1.3846   25.4477 C   0  0  0  0  0  0  0  0  0  0  0  0
  -29.4699    0.1197   30.3590 C   0  0  0  0  0  0  0  0  0  0  0  0
  -29.1015    1.3090   28.3834 C   0  0  0  0  0  0  0  0  0  0  0  0
  -29.7474    1.1998   29.5903 C   0  0  0  0  0  0  0  0  0  0  0  0
  -28.4475    0.4778   25.8266 C   0  0  0  0  0  0  0  0  0  0  0  0
  -28.0095   -0.0914   24.7554 F   0  0  0  0  0  0  0  0  0  0  0  0
  -29.8120    0.8344   25.7858 C   0  0  0  0  0  0  0  0  0  0  0  0
  -30.5287    0.1735   25.5023 C   0  0  0  0  0  0  0  0  0  0  0  0
  -31.8773    0.2925   25.5451 C   0  0  0  0  0  0  0  0  0  0  0  0
  -32.3496    1.5669   25.9680 C   0  0  0  0  0  0  0  0  0  0  0  0
  -31.4731    2.5402   26.2963 C   0  0  0  0  0  0  0  0  0  0  0  0
  -30.1032    2.2146   26.2697 C   0  0  0  0  0  0  0  0  0  0  0  0
  3  4  1  0
  4 14  1  0
 14 15  1  0
 14 16  1  0
  4  5  1  0
  1  2  2  0
  2 11  1  0
 11 13  2  0
 13 12  1  0
 12  3  2  0
  3  1  1  0
  5  6  2  0
  6  7  1  0
  7  8  2  0
  8  9  1  0
  9 10  2  0
 10  5  1  0
 16 17  2  0
 17 18  1  0
 18 19  2  0
 19 20  1  0
 20 21  2  0
 21 16  1  0
M  END

$$$$
