No_4718-gen_results/8p0m/2024-11-26-14-13-15/
     RDKit          3D

 13 13  0  0  0  0  0  0  0  0999 V2000
  -28.0162   -0.8135   28.8779 C   0  0  0  0  0  0  0  0  0  0  0  0
  -28.4690   -0.7850   29.8287 C   0  0  0  0  0  0  0  0  0  0  0  0
  -27.1356    0.2359   28.5352 C   0  0  0  0  0  0  0  0  0  0  0  0
  -26.8745    1.2825   29.3982 C   0  0  0  0  0  0  0  0  0  0  0  0
  -28.3613    0.1987   30.9244 C   0  0  0  0  0  0  0  0  0  0  0  0
  -27.5277    1.2234   30.6356 C   0  0  0  0  0  0  0  0  0  0  0  0
  -26.3987    0.2949   27.2279 C   0  0  0  0  0  0  0  0  0  0  0  0
  -25.4359   -0.3066   27.2689 F   0  0  0  0  0  0  0  0  0  0  0  0
  -26.0879    1.5926   26.8408 F   0  0  0  0  0  0  0  0  0  0  0  0
  -27.1700   -0.0235   26.1306 F   0  0  0  0  0  0  0  0  0  0  0  0
  -29.3965   -2.0026   30.3344 C   0  0  0  0  0  0  0  0  0  0  0  0
  -29.7639   -1.9919   31.5375 O   0  0  0  0  0  0  0  0  0  0  0  0
  -29.5582   -2.9673   29.6140 O   0  0  0  0  0  0  0  0  0  0  0  0
  3  7  1  0
  7  8  1  0
  7  9  1  0
  7 10  1  0
  2 11  1  0
 11 12  2  0
 11 13  1  0
  1  2  2  0
  2  5  1  0
  5  6  2  0
  6  4  1  0
  4  3  2  0
  3  1  1  0
M  END

$$$$
