No_4797-gen_results/8p0m/2024-11-26-14-13-15/
     RDKit          3D

 16 17  0  0  0  0  0  0  0  0999 V2000
  -28.0162   -0.8135   28.8779 C   0  0  0  0  0  0  0  0  0  0  0  0
  -27.0636   -0.1190   28.6079 C   0  0  0  0  0  0  0  0  0  0  0  0
  -25.7647   -0.3897   29.0360 C   0  0  0  0  0  0  0  0  0  0  0  0
  -24.5516    0.4058   28.7646 C   0  0  0  0  0  0  0  0  0  0  0  0
  -24.6957    1.4480   27.7988 C   0  0  0  0  0  0  0  0  0  0  0  0
  -25.9755    1.7250   27.3077 C   0  0  0  0  0  0  0  0  0  0  0  0
  -27.0718    1.0134   27.6535 C   0  0  0  0  0  0  0  0  0  0  0  0
  -27.9852   -1.5947   30.1522 C   0  0  0  0  0  0  0  0  0  0  0  0
  -26.7609   -2.1317   30.4947 N   0  0  0  0  0  0  0  0  0  0  0  0
  -25.7488   -1.7402   29.8633 C   0  0  0  0  0  0  0  0  0  0  0  0
  -23.4779    2.2386   27.5322 C   0  0  0  0  0  0  0  0  0  0  0  0
  -23.5894    3.2016   26.7821 O   0  0  0  0  0  0  0  0  0  0  0  0
  -22.3102    1.9133   27.9325 O   0  0  0  0  0  0  0  0  0  0  0  0
  -28.3500    1.3052   26.9913 C   0  0  0  0  0  0  0  0  0  0  0  0
  -29.0071    0.8236   26.3483 C   0  0  0  0  0  0  0  0  0  0  0  0
  -30.2497    1.2078   25.7700 C   0  0  0  0  0  0  0  0  0  0  0  0
  3  4  1  0
  4  5  1  0
  5  6  1  0
  2  7  1  0
  6  7  1  0
  5 11  1  0
 11 12  2  0
 11 13  1  0
  7 14  1  0
 14 15  2  3
 15 16  1  0
  1  2  2  0
  2  3  1  0
  3 10  2  0
 10  9  1  0
  9  8  2  0
  8  1  1  0
M  END

$$$$
