No_431-gen_results/8p0m/2024-11-26-14-13-15/
     RDKit          3D

 17 18  0  0  0  0  0  0  0  0999 V2000
  -28.0162   -0.8135   28.8779 C   0  0  0  0  0  0  0  0  0  0  0  0
  -27.0636   -0.1189   28.6079 C   0  0  0  0  0  0  0  0  0  0  0  0
  -26.9287    1.1713   29.0083 C   0  0  0  0  0  0  0  0  0  0  0  0
  -25.7702    2.0341   28.6884 C   0  0  0  0  0  0  0  0  0  0  0  0
  -24.7141    1.4431   27.9188 C   0  0  0  0  0  0  0  0  0  0  0  0
  -24.8590    0.0783   27.5836 C   0  0  0  0  0  0  0  0  0  0  0  0
  -25.9647   -0.6606   27.9164 C   0  0  0  0  0  0  0  0  0  0  0  0
  -29.1701   -0.2984   28.9471 N   0  0  0  0  0  0  0  0  0  0  0  0
  -29.8110    0.1551   29.8586 C   0  0  0  0  0  0  0  0  0  0  0  0
  -31.1377    0.6648   29.6224 C   0  0  0  0  0  0  0  0  0  0  0  0
  -29.9350   -0.1551   27.7186 C   0  0  0  0  0  0  0  0  0  0  0  0
  -31.0749    0.2742   27.6729 N   0  0  0  0  0  0  0  0  0  0  0  0
  -31.7510    0.7292   28.5541 C   0  0  0  0  0  0  0  0  0  0  0  0
  -23.5096    2.1354   27.6018 C   0  0  0  0  0  0  0  0  0  0  0  0
  -23.3803    2.7608   26.6158 F   0  0  0  0  0  0  0  0  0  0  0  0
  -23.0425    2.8974   28.6690 F   0  0  0  0  0  0  0  0  0  0  0  0
  -22.3969    1.1890   27.6211 F   0  0  0  0  0  0  0  0  0  0  0  0
  1  2  1  0
  1  8  1  0
  8  9  1  0
  8 11  1  0
 11 12  1  0
 10 13  1  0
  5 14  1  0
 14 15  1  0
 14 16  1  0
 14 17  1  0
  9 10  1  0
 13 12  1  0
  2  3  2  0
  3  4  1  0
  4  5  2  0
  5  6  1  0
  6  7  2  0
  7  2  1  0
M  END

$$$$
