No_4243-gen_results/8p0m/2024-11-26-14-13-15/
     RDKit          3D

 10 10  0  0  0  0  0  0  0  0999 V2000
  -28.1229   -1.3353   28.4874 O   0  0  0  0  0  0  0  0  0  0  0  0
  -27.0637   -0.8242   28.8687 C   0  0  0  0  0  0  0  0  0  0  0  0
  -26.8938   -0.2656   29.6815 N   0  0  0  0  0  0  0  0  0  0  0  0
  -25.7432   -1.2103   28.0363 C   0  0  0  0  0  0  0  0  0  0  0  0
  -24.4803   -0.7282   28.5465 C   0  0  0  0  0  0  0  0  0  0  0  0
  -25.7061    0.3704   30.3099 C   0  0  0  0  0  0  0  0  0  0  0  0
  -24.4908    0.1104   29.6305 C   0  0  0  0  0  0  0  0  0  0  0  0
  -23.2544    0.6473   30.1139 C   0  0  0  0  0  0  0  0  0  0  0  0
  -22.1326    0.2392   29.6363 O   0  0  0  0  0  0  0  0  0  0  0  0
  -23.2493    1.6355   30.9724 O   0  0  0  0  0  0  0  0  0  0  0  0
  1  2  2  0
  2  3  1  0
  2  4  1  0
  4  5  1  0
  5  7  1  0
  6  7  1  0
  7  8  1  0
  8  9  2  0
  8 10  1  0
  3  6  1  0
M  END

$$$$
