No_4556-gen_results/8p0m/2024-11-26-14-13-15/
     RDKit          3D

  9  9  0  0  0  0  0  0  0  0999 V2000
  -28.0727   -1.2542   28.5316 F   0  0  0  0  0  0  0  0  0  0  0  0
  -28.2662   -0.4214   29.1931 C   0  0  0  0  0  0  0  0  0  0  0  0
  -28.1839    0.5652   29.0416 C   0  0  0  0  0  0  0  0  0  0  0  0
  -27.7132    1.1254   27.6783 C   0  0  0  0  0  0  0  0  0  0  0  0
  -27.5605    2.3419   27.2561 C   0  0  0  0  0  0  0  0  0  0  0  0
  -27.8235    3.4198   28.2637 C   0  0  0  0  0  0  0  0  0  0  0  0
  -28.2262    3.0402   29.5188 C   0  0  0  0  0  0  0  0  0  0  0  0
  -28.3436    1.7562   29.8653 C   0  0  0  0  0  0  0  0  0  0  0  0
  -29.5193   -0.6332   29.9123 F   0  0  0  0  0  0  0  0  0  0  0  0
  1  2  1  0
  2  9  1  0
  2  3  1  0
  3  4  2  0
  4  5  1  0
  5  6  2  0
  6  7  1  0
  7  8  2  0
  8  3  1  0
M  END

$$$$
