No_4452-gen_results/8p0m/2024-11-26-14-13-15/
     RDKit          3D

 20 22  0  0  0  0  0  0  0  0999 V2000
  -28.0162   -0.8135   28.8779 C   0  0  0  0  0  0  0  0  0  0  0  0
  -27.0636   -0.1190   28.6079 C   0  0  0  0  0  0  0  0  0  0  0  0
  -25.7923   -0.4302   29.0761 C   0  0  0  0  0  0  0  0  0  0  0  0
  -24.5456    0.3494   28.8225 C   0  0  0  0  0  0  0  0  0  0  0  0
  -24.6586    1.4196   27.8878 C   0  0  0  0  0  0  0  0  0  0  0  0
  -25.9471    1.6811   27.3792 C   0  0  0  0  0  0  0  0  0  0  0  0
  -27.0439    0.9739   27.6871 C   0  0  0  0  0  0  0  0  0  0  0  0
  -29.2364   -0.0611   29.2668 C   0  0  0  0  0  0  0  0  0  0  0  0
  -29.8066   -0.3562   30.3832 C   0  0  0  0  0  0  0  0  0  0  0  0
  -30.9421    0.4176   30.8227 C   0  0  0  0  0  0  0  0  0  0  0  0
  -31.4533    1.3446   29.9244 C   0  0  0  0  0  0  0  0  0  0  0  0
  -30.8565    1.5531   28.7362 C   0  0  0  0  0  0  0  0  0  0  0  0
  -29.7215    0.8825   28.3822 C   0  0  0  0  0  0  0  0  0  0  0  0
  -23.4626    2.1556   27.5834 C   0  0  0  0  0  0  0  0  0  0  0  0
  -22.2478    1.7232   28.0600 N   0  0  0  0  0  0  0  0  0  0  0  0
  -23.4813    3.0305   26.5794 N   0  0  0  0  0  0  0  0  0  0  0  0
  -31.3791    2.6117   27.8183 C   0  0  0  0  0  0  0  0  0  0  0  0
  -31.1231    2.5655   26.5795 C   0  0  0  0  0  0  0  0  0  0  0  0
  -29.9695    1.7719   26.1545 C   0  0  0  0  0  0  0  0  0  0  0  0
  -29.2906    0.9858   27.0100 C   0  0  0  0  0  0  0  0  0  0  0  0
  1  2  1  0
  1  8  1  0
  5 14  1  0
 14 15  2  0
 14 16  1  0
  2  3  2  0
  3  4  1  0
  4  5  2  0
  5  6  1  0
  6  7  2  0
  7  2  1  0
 13 20  2  0
 20 19  1  0
 19 18  2  0
 18 17  1  0
 17 12  2  0
  8  9  2  0
  9 10  1  0
 10 11  2  0
 11 12  1  0
 12 13  1  0
 13  8  1  0
M  END

$$$$
