No_4587-gen_results/8p0m/2024-11-26-14-13-15/
     RDKit          3D

 20 22  0  0  0  0  0  0  0  0999 V2000
  -28.0727   -1.2542   28.5316 F   0  0  0  0  0  0  0  0  0  0  0  0
  -27.0607   -0.6291   28.8721 C   0  0  0  0  0  0  0  0  0  0  0  0
  -26.3579   -0.0710   28.0115 C   0  0  0  0  0  0  0  0  0  0  0  0
  -25.0715    0.5531   28.2555 C   0  0  0  0  0  0  0  0  0  0  0  0
  -24.5772    0.4803   29.5696 C   0  0  0  0  0  0  0  0  0  0  0  0
  -25.3317   -0.2027   30.5060 C   0  0  0  0  0  0  0  0  0  0  0  0
  -26.4956   -0.7357   30.1606 C   0  0  0  0  0  0  0  0  0  0  0  0
  -24.2571    1.2519   27.2615 C   0  0  0  0  0  0  0  0  0  0  0  0
  -22.9100    1.4905   27.5343 C   0  0  0  0  0  0  0  0  0  0  0  0
  -22.4184    1.2964   28.8818 C   0  0  0  0  0  0  0  0  0  0  0  0
  -23.1962    0.8949   29.8319 C   0  0  0  0  0  0  0  0  0  0  0  0
  -21.9535    2.3137   26.3693 Cl  0  0  0  0  0  0  0  0  0  0  0  0
  -26.7436    0.0230   26.7093 O   0  0  0  0  0  0  0  0  0  0  0  0
  -27.8084    0.7128   26.3056 C   0  0  0  0  0  0  0  0  0  0  0  0
  -28.2632    0.4321   25.0707 C   0  0  0  0  0  0  0  0  0  0  0  0
  -27.7117   -0.6747   24.3757 C   0  0  0  0  0  0  0  0  0  0  0  0
  -28.4143   -1.1565   23.1843 C   0  0  0  0  0  0  0  0  0  0  0  0
  -29.7700   -0.6743   23.1054 C   0  0  0  0  0  0  0  0  0  0  0  0
  -30.3754    0.2977   23.8433 C   0  0  0  0  0  0  0  0  0  0  0  0
  -29.6036    0.8692   24.7530 C   0  0  0  0  0  0  0  0  0  0  0  0
  1  2  1  0
  9 12  1  0
  3 13  1  0
 13 14  1  0
 14 15  1  0
 15 16  2  0
 16 17  1  0
 17 18  2  0
 18 19  1  0
 19 20  2  0
 20 15  1  0
  2  3  2  0
  3  4  1  0
  5  6  1  0
  6  7  2  0
  7  2  1  0
  4  5  2  0
  5 11  1  0
 11 10  2  0
 10  9  1  0
  9  8  2  0
  8  4  1  0
M  END

$$$$
