No_4127-gen_results/8p0m/2024-11-26-14-13-15/
     RDKit          3D

 11 11  0  0  0  0  0  0  0  0999 V2000
  -28.1229   -1.3353   28.4874 O   0  0  0  0  0  0  0  0  0  0  0  0
  -27.0637   -0.8242   28.8687 C   0  0  0  0  0  0  0  0  0  0  0  0
  -25.9464   -1.0396   28.8492 C   0  0  0  0  0  0  0  0  0  0  0  0
  -24.7602   -0.1562   29.1644 C   0  0  0  0  0  0  0  0  0  0  0  0
  -25.0917    1.0791   29.6490 C   0  0  0  0  0  0  0  0  0  0  0  0
  -26.4273    1.4163   29.7020 C   0  0  0  0  0  0  0  0  0  0  0  0
  -27.3961    0.6347   29.4096 C   0  0  0  0  0  0  0  0  0  0  0  0
  -23.3605   -0.5493   29.1077 C   0  0  0  0  0  0  0  0  0  0  0  0
  -22.3695    0.3874   28.8646 C   0  0  0  0  0  0  0  0  0  0  0  0
  -21.0877   -0.0573   28.5573 C   0  0  0  0  0  0  0  0  0  0  0  0
  -20.2002    0.9146   28.3260 N   0  0  0  0  0  0  0  0  0  0  0  0
  1  2  2  0
  2  3  1  0
  3  4  1  0
  5  6  1  0
  2  7  1  0
  6  7  1  0
  4  8  1  0
  8  9  1  0
  9 10  1  0
 10 11  2  0
  4  5  1  0
M  END

$$$$
