No_4605-gen_results/8p0m/2024-11-26-14-13-15/
     RDKit          3D

 16 17  0  0  0  0  0  0  0  0999 V2000
  -28.0162   -0.8135   28.8779 C   0  0  0  0  0  0  0  0  0  0  0  0
  -28.4690   -0.7850   29.8287 C   0  0  0  0  0  0  0  0  0  0  0  0
  -27.0871    0.2903   28.6377 C   0  0  0  0  0  0  0  0  0  0  0  0
  -26.2516    0.4114   27.4222 C   0  0  0  0  0  0  0  0  0  0  0  0
  -28.3913    0.1041   30.9805 C   0  0  0  0  0  0  0  0  0  0  0  0
  -27.5332    1.1666   30.7866 C   0  0  0  0  0  0  0  0  0  0  0  0
  -26.8281    1.2557   29.6454 C   0  0  0  0  0  0  0  0  0  0  0  0
  -24.9668    0.4106   27.5252 C   0  0  0  0  0  0  0  0  0  0  0  0
  -24.0909    1.1617   27.7719 C   0  0  0  0  0  0  0  0  0  0  0  0
  -22.6600    1.0016   27.9820 C   0  0  0  0  0  0  0  0  0  0  0  0
  -22.2542   -0.1233   28.6665 C   0  0  0  0  0  0  0  0  0  0  0  0
  -23.2463   -1.1723   28.7564 C   0  0  0  0  0  0  0  0  0  0  0  0
  -24.5623   -0.9744   28.2870 C   0  0  0  0  0  0  0  0  0  0  0  0
  -24.3318    2.6239   27.0917 C   0  0  0  0  0  0  0  0  0  0  0  0
  -26.8250    0.6611   26.1453 C   0  0  0  0  0  0  0  0  0  0  0  0
  -27.5608    1.5928   25.9115 O   0  0  0  0  0  0  0  0  0  0  0  0
  3  4  1  0
  4  8  1  0
  9 14  1  0
  4 15  1  0
 15 16  2  0
  8  9  2  0
  9 10  1  0
 10 11  2  0
 11 12  1  0
 12 13  2  0
 13  8  1  0
  1  2  2  0
  2  5  1  0
  5  6  2  0
  6  7  1  0
  7  3  2  0
  3  1  1  0
M  END

$$$$
