No_4886-gen_results/8p0m/2024-11-26-14-13-15/
     RDKit          3D

 24 27  0  0  0  0  0  0  0  0999 V2000
  -28.0162   -0.8135   28.8779 C   0  0  0  0  0  0  0  0  0  0  0  0
  -27.0636   -0.1190   28.6079 C   0  0  0  0  0  0  0  0  0  0  0  0
  -26.9716    0.7139   27.5060 C   0  0  0  0  0  0  0  0  0  0  0  0
  -28.1053    0.7744   26.6421 C   0  0  0  0  0  0  0  0  0  0  0  0
  -29.2008    0.1044   27.0527 C   0  0  0  0  0  0  0  0  0  0  0  0
  -28.0219   -1.5899   30.0879 C   0  0  0  0  0  0  0  0  0  0  0  0
  -29.1640   -0.6394   28.1484 C   0  0  0  0  0  0  0  0  0  0  0  0
  -28.8451   -1.9567   30.6618 O   0  0  0  0  0  0  0  0  0  0  0  0
  -26.6930   -2.1968   30.3816 N   0  0  0  0  0  0  0  0  0  0  0  0
  -30.3788    0.2147   26.1734 C   0  0  0  0  0  0  0  0  0  0  0  0
  -30.2627    0.2569   25.0063 F   0  0  0  0  0  0  0  0  0  0  0  0
  -31.1638    1.2210   26.6557 F   0  0  0  0  0  0  0  0  0  0  0  0
  -31.4260   -0.7054   26.3652 F   0  0  0  0  0  0  0  0  0  0  0  0
  -25.7096    1.4436   27.1088 C   0  0  0  0  0  0  0  0  0  0  0  0
  -24.6222    1.1878   27.7434 C   0  0  0  0  0  0  0  0  0  0  0  0
  -23.3646    1.8251   27.4786 C   0  0  0  0  0  0  0  0  0  0  0  0
  -22.1614    1.6330   28.1725 C   0  0  0  0  0  0  0  0  0  0  0  0
  -20.9974    2.1415   27.8061 C   0  0  0  0  0  0  0  0  0  0  0  0
  -22.3543    0.6862   29.3120 C   0  0  0  0  0  0  0  0  0  0  0  0
  -23.5037    0.0526   29.7092 C   0  0  0  0  0  0  0  0  0  0  0  0
  -24.5610    0.3117   28.9190 C   0  0  0  0  0  0  0  0  0  0  0  0
  -25.7580   -0.3220   29.3100 C   0  0  0  0  0  0  0  0  0  0  0  0
  -25.6742   -1.3458   30.2506 C   0  0  0  0  0  0  0  0  0  0  0  0
  -25.7840    2.2798   26.1293 O   0  0  0  0  0  0  0  0  0  0  0  0
  1  6  1  0
  6  8  2  0
  6  9  1  0
  5 10  1  0
 10 11  1  0
 10 12  1  0
 10 13  1  0
  3 14  1  0
 14 15  1  0
  2 22  1  0
 21 22  1  0
 22 23  1  0
 14 24  2  0
 18 17  1  0
 23  9  1  0
 15 16  2  0
 16 17  1  0
 17 19  2  0
 19 20  1  0
 20 21  2  0
 21 15  1  0
  1  7  2  0
  7  5  1  0
  5  4  2  0
  4  3  1  0
  3  2  2  0
  2  1  1  0
M  END

$$$$
