No_4869-gen_results/8p0m/2024-11-26-14-13-15/
     RDKit          3D

 16 17  0  0  0  0  0  0  0  0999 V2000
  -28.0162   -0.8135   28.8779 C   0  0  0  0  0  0  0  0  0  0  0  0
  -28.4690   -0.7850   29.8287 C   0  0  0  0  0  0  0  0  0  0  0  0
  -27.0871    0.2903   28.6377 C   0  0  0  0  0  0  0  0  0  0  0  0
  -26.8317    1.2487   29.5869 C   0  0  0  0  0  0  0  0  0  0  0  0
  -28.3914    0.0801   31.0065 C   0  0  0  0  0  0  0  0  0  0  0  0
  -27.4940    1.1521   30.7841 C   0  0  0  0  0  0  0  0  0  0  0  0
  -26.3172    0.3994   27.3653 C   0  0  0  0  0  0  0  0  0  0  0  0
  -25.0720    0.1569   27.4305 N   0  0  0  0  0  0  0  0  0  0  0  0
  -26.9366    0.7103   26.1532 C   0  0  0  0  0  0  0  0  0  0  0  0
  -26.1652    0.4768   25.0396 C   0  0  0  0  0  0  0  0  0  0  0  0
  -24.4154   -0.1227   28.7021 C   0  0  0  0  0  0  0  0  0  0  0  0
  -22.9861    0.1506   28.6136 C   0  0  0  0  0  0  0  0  0  0  0  0
  -24.7432    0.2689   25.1374 C   0  0  0  0  0  0  0  0  0  0  0  0
  -24.2228    0.1977   26.3291 C   0  0  0  0  0  0  0  0  0  0  0  0
  -24.5059   -1.5626   29.1431 C   0  0  0  0  0  0  0  0  0  0  0  0
  -22.3489    0.7188   29.8299 C   0  0  0  0  0  0  0  0  0  0  0  0
  3  7  1  0
  7  8  1  0
  7  9  1  0
  8 11  1  0
 11 12  1  0
 10 13  1  0
  8 14  1  0
 11 15  1  0
 12 16  1  0
  9 10  1  0
 13 14  1  0
  1  2  2  0
  2  5  1  0
  5  6  2  0
  6  4  1  0
  4  3  2  0
  3  1  1  0
M  END

$$$$
