No_4734-gen_results/8p0m/2024-11-26-14-13-15/
     RDKit          3D

 18 19  0  0  0  0  0  0  0  0999 V2000
  -28.0162   -0.8135   28.8779 C   0  0  0  0  0  0  0  0  0  0  0  0
  -27.0636   -0.1189   28.6079 C   0  0  0  0  0  0  0  0  0  0  0  0
  -26.9716    0.7139   27.5060 C   0  0  0  0  0  0  0  0  0  0  0  0
  -28.1053    0.7744   26.6421 C   0  0  0  0  0  0  0  0  0  0  0  0
  -29.2041    0.1179   27.0477 C   0  0  0  0  0  0  0  0  0  0  0  0
  -29.2127   -0.6088   28.1281 C   0  0  0  0  0  0  0  0  0  0  0  0
  -30.3709    0.2326   26.1381 C   0  0  0  0  0  0  0  0  0  0  0  0
  -31.2520   -0.4036   26.3042 O   0  0  0  0  0  0  0  0  0  0  0  0
  -30.1260    0.7139   24.9070 O   0  0  0  0  0  0  0  0  0  0  0  0
  -25.6557    1.4018   27.1350 C   0  0  0  0  0  0  0  0  0  0  0  0
  -25.2725    2.0502   26.4317 C   0  0  0  0  0  0  0  0  0  0  0  0
  -23.9067    2.6576   26.2799 C   0  0  0  0  0  0  0  0  0  0  0  0
  -22.9310    2.1410   27.1324 C   0  0  0  0  0  0  0  0  0  0  0  0
  -23.2800    1.1360   27.9915 C   0  0  0  0  0  0  0  0  0  0  0  0
  -24.6195    0.7015   28.1425 C   0  0  0  0  0  0  0  0  0  0  0  0
  -22.2361    0.5916   28.9101 C   0  0  0  0  0  0  0  0  0  0  0  0
  -21.1109    0.8366   28.8405 O   0  0  0  0  0  0  0  0  0  0  0  0
  -22.6504   -0.4163   29.7237 O   0  0  0  0  0  0  0  0  0  0  0  0
  5  7  1  0
  7  8  1  0
  7  9  2  0
  3 10  1  0
 14 16  1  0
 16 17  2  0
 16 18  1  0
  1  2  2  0
  2  3  1  0
  3  4  2  0
  4  5  1  0
  5  6  2  0
  6  1  1  0
 10 11  2  0
 11 12  1  0
 12 13  2  0
 13 14  1  0
 14 15  2  0
 15 10  1  0
M  END

$$$$
