No_447-gen_results/8p0m/2024-11-26-14-13-15/
     RDKit          3D

  6  5  0  0  0  0  0  0  0  0999 V2000
  -28.1493   -0.8198   28.9079 Cl  0  0  0  0  0  0  0  0  0  0  0  0
  -28.5324   -0.0471   29.7727 C   0  0  0  0  0  0  0  0  0  0  0  0
  -29.6682   -0.0995   30.1894 F   0  0  0  0  0  0  0  0  0  0  0  0
  -27.6716    0.9796   30.3307 C   0  0  0  0  0  0  0  0  0  0  0  0
  -26.5889    1.0625   29.7491 F   0  0  0  0  0  0  0  0  0  0  0  0
  -27.3385    0.7436   31.6394 F   0  0  0  0  0  0  0  0  0  0  0  0
  1  2  1  0
  2  3  1  0
  2  4  1  0
  4  5  1  0
  4  6  1  0
M  END

$$$$
