No_4907-gen_results/8p0m/2024-11-26-14-13-15/
     RDKit          3D

 19 22  0  0  0  0  0  0  0  0999 V2000
  -28.0162   -0.8135   28.8779 C   0  0  0  0  0  0  0  0  0  0  0  0
  -27.0636   -0.1190   28.6079 C   0  0  0  0  0  0  0  0  0  0  0  0
  -26.8756    1.1325   28.9134 C   0  0  0  0  0  0  0  0  0  0  0  0
  -27.9014    1.8066   29.6436 C   0  0  0  0  0  0  0  0  0  0  0  0
  -28.9449    1.0388   30.0360 C   0  0  0  0  0  0  0  0  0  0  0  0
  -29.0273   -0.2890   29.7051 C   0  0  0  0  0  0  0  0  0  0  0  0
  -25.6959    1.9505   28.4764 C   0  0  0  0  0  0  0  0  0  0  0  0
  -24.7049    1.7243   28.1388 C   0  0  0  0  0  0  0  0  0  0  0  0
  -23.5387    2.1670   27.8220 C   0  0  0  0  0  0  0  0  0  0  0  0
  -22.3286    1.4522   27.5618 C   0  0  0  0  0  0  0  0  0  0  0  0
  -22.3421    0.1390   27.9220 C   0  0  0  0  0  0  0  0  0  0  0  0
  -23.4707   -0.4587   28.4295 C   0  0  0  0  0  0  0  0  0  0  0  0
  -24.4749    0.2076   28.6392 C   0  0  0  0  0  0  0  0  0  0  0  0
  -25.6763   -0.7313   28.2653 C   0  0  0  0  0  0  0  0  0  0  0  0
  -26.0063    3.5784   28.5059 C   0  0  0  0  0  0  0  0  0  0  0  0
  -25.2185    4.2760   27.9388 O   0  0  0  0  0  0  0  0  0  0  0  0
  -27.2627    4.0528   28.8366 N   0  0  0  0  0  0  0  0  0  0  0  0
  -28.2008    3.2216   29.4619 C   0  0  0  0  0  0  0  0  0  0  0  0
  -29.2596    3.7660   29.7561 O   0  0  0  0  0  0  0  0  0  0  0  0
  7 15  1  0
 15 16  2  0
 15 17  1  0
  4 18  1  0
 17 18  1  0
 18 19  2  0
  3  7  1  0
  7  8  2  0
 13 14  2  0
 14  2  1  0
  1  2  2  0
  2  3  1  0
  3  4  2  0
  4  5  1  0
  5  6  2  0
  6  1  1  0
  8  9  1  0
  9 10  2  0
 10 11  1  0
 11 12  2  0
 12 13  1  0
 13  8  1  0
M  END

$$$$
