No_4427-gen_results/8p0m/2024-11-26-14-13-15/
     RDKit          3D

 28 30  0  0  0  0  0  0  0  0999 V2000
  -28.0162   -0.8135   28.8779 C   0  0  0  0  0  0  0  0  0  0  0  0
  -27.0636   -0.1190   28.6079 C   0  0  0  0  0  0  0  0  0  0  0  0
  -26.9287    1.1713   29.0083 C   0  0  0  0  0  0  0  0  0  0  0  0
  -25.7702    2.0341   28.6884 C   0  0  0  0  0  0  0  0  0  0  0  0
  -24.7141    1.4431   27.9188 C   0  0  0  0  0  0  0  0  0  0  0  0
  -24.8590    0.0783   27.5836 C   0  0  0  0  0  0  0  0  0  0  0  0
  -25.9647   -0.6606   27.9164 C   0  0  0  0  0  0  0  0  0  0  0  0
  -29.1778   -0.3051   28.9638 N   0  0  0  0  0  0  0  0  0  0  0  0
  -30.1765   -0.9070   29.7369 C   0  0  0  0  0  0  0  0  0  0  0  0
  -23.5156    2.1616   27.5794 C   0  0  0  0  0  0  0  0  0  0  0  0
  -23.3842    2.9011   26.8246 F   0  0  0  0  0  0  0  0  0  0  0  0
  -22.3571    1.6084   28.1035 F   0  0  0  0  0  0  0  0  0  0  0  0
  -31.5123   -0.7022   29.4473 C   0  0  0  0  0  0  0  0  0  0  0  0
  -29.8405   -1.7946   30.8468 C   0  0  0  0  0  0  0  0  0  0  0  0
  -28.6067   -1.9375   31.2346 N   0  0  0  0  0  0  0  0  0  0  0  0
  -27.6072   -1.7497   30.0940 C   0  0  0  0  0  0  0  0  0  0  0  0
  -29.6409    0.5951   28.0040 C   0  0  0  0  0  0  0  0  0  0  0  0
  -30.4612    0.7076   27.4183 C   0  0  0  0  0  0  0  0  0  0  0  0
  -31.7029    0.2327   28.2605 C   0  0  0  0  0  0  0  0  0  0  0  0
  -33.0971    0.4190   27.8086 C   0  0  0  0  0  0  0  0  0  0  0  0
  -30.6793   -2.5118   31.3730 O   0  0  0  0  0  0  0  0  0  0  0  0
  -33.9294    0.7108   28.5830 C   0  0  0  0  0  0  0  0  0  0  0  0
  -34.7906    1.0935   28.9467 C   0  0  0  0  0  0  0  0  0  0  0  0
  -35.9743    1.5805   29.5951 C   0  0  0  0  0  0  0  0  0  0  0  0
  -36.6681    2.0575   30.3104 C   0  0  0  0  0  0  0  0  0  0  0  0
  -37.5438    2.6075   31.0126 C   0  0  0  0  0  0  0  0  0  0  0  0
  -38.0862    3.0020   31.9973 C   0  0  0  0  0  0  0  0  0  0  0  0
  -39.2099    3.6201   32.5661 Br  0  0  0  0  0  0  0  0  0  0  0  0
  1  2  1  0
  1  8  1  0
  8  9  1  0
  5 10  1  0
 10 11  1  0
 10 12  1  0
  9 14  1  0
 14 15  1  0
  1 16  1  0
 15 16  1  0
  8 17  1  0
 13 19  1  0
 18 19  1  0
 19 20  1  0
 14 21  2  0
 20 22  2  3
 22 23  1  0
 23 24  2  3
 24 25  1  0
 25 26  3  0
 26 27  1  0
 27 28  1  0
  9 13  1  0
 18 17  1  0
  2  3  2  0
  3  4  1  0
  4  5  2  0
  5  6  1  0
  6  7  2  0
  7  2  1  0
M  END

$$$$
