No_4603-gen_results/8p0m/2024-11-26-14-13-15/
     RDKit          3D

 13 14  0  0  0  0  0  0  0  0999 V2000
  -28.0162   -0.8135   28.8779 C   0  0  0  0  0  0  0  0  0  0  0  0
  -27.0636   -0.1189   28.6079 C   0  0  0  0  0  0  0  0  0  0  0  0
  -25.7647   -0.3897   29.0360 C   0  0  0  0  0  0  0  0  0  0  0  0
  -25.5296   -1.5302   29.9014 C   0  0  0  0  0  0  0  0  0  0  0  0
  -26.6888   -2.2893   30.1810 C   0  0  0  0  0  0  0  0  0  0  0  0
  -27.8727   -1.9508   29.7373 C   0  0  0  0  0  0  0  0  0  0  0  0
  -24.5491    0.4100   28.7341 C   0  0  0  0  0  0  0  0  0  0  0  0
  -23.3309    0.0437   29.0569 C   0  0  0  0  0  0  0  0  0  0  0  0
  -23.2108   -1.2231   29.7977 C   0  0  0  0  0  0  0  0  0  0  0  0
  -24.2359   -1.9569   30.2201 C   0  0  0  0  0  0  0  0  0  0  0  0
  -22.1203    0.7684   28.7313 C   0  0  0  0  0  0  0  0  0  0  0  0
  -21.8018    1.5266   27.9405 N   0  0  0  0  0  0  0  0  0  0  0  0
  -20.8859    0.0125   29.1773 N   0  0  0  0  0  0  0  0  0  0  0  0
  8 11  1  0
 11 12  2  0
 11 13  1  0
  1  2  2  0
  2  3  1  0
  4  5  1  0
  5  6  2  0
  6  1  1  0
  3  4  2  0
  4 10  1  0
 10  9  2  0
  9  8  1  0
  8  7  2  0
  7  3  1  0
M  END

$$$$
