No_4333-gen_results/8p0m/2024-11-26-14-13-15/
     RDKit          3D

 14 15  0  0  0  0  0  0  0  0999 V2000
  -28.0162   -0.8135   28.8779 C   0  0  0  0  0  0  0  0  0  0  0  0
  -27.0636   -0.1189   28.6079 C   0  0  0  0  0  0  0  0  0  0  0  0
  -26.9716    0.7139   27.5060 C   0  0  0  0  0  0  0  0  0  0  0  0
  -25.8206    1.4910   27.1160 C   0  0  0  0  0  0  0  0  0  0  0  0
  -24.6562    1.4242   27.9180 C   0  0  0  0  0  0  0  0  0  0  0  0
  -23.4598    2.1165   27.6160 C   0  0  0  0  0  0  0  0  0  0  0  0
  -23.5068    2.7076   26.2939 C   0  0  0  0  0  0  0  0  0  0  0  0
  -25.7733   -0.1953   29.4398 C   0  0  0  0  0  0  0  0  0  0  0  0
  -24.6392    0.5412   29.1339 C   0  0  0  0  0  0  0  0  0  0  0  0
  -27.9416   -1.4686   30.1003 N   0  0  0  0  0  0  0  0  0  0  0  0
  -29.0623   -2.2508   30.5383 C   0  0  0  0  0  0  0  0  0  0  0  0
  -30.2253   -1.9319   30.0718 C   0  0  0  0  0  0  0  0  0  0  0  0
  -30.3465   -0.9659   29.0791 C   0  0  0  0  0  0  0  0  0  0  0  0
  -29.2681   -0.3483   28.5703 C   0  0  0  0  0  0  0  0  0  0  0  0
  6  7  1  0
  6  5  1  0
  1  2  1  0
  1 10  2  0
 10 11  1  0
 11 12  2  0
 12 13  1  0
 13 14  2  0
 14  1  1  0
  2  3  2  0
  3  4  1  0
  4  5  2  0
  5  9  1  0
  9  8  2  0
  8  2  1  0
M  END

$$$$
