No_4138-gen_results/8p0m/2024-11-26-14-13-15/
     RDKit          3D

 21 23  0  0  0  0  0  0  0  0999 V2000
  -28.0162   -0.8135   28.8779 C   0  0  0  0  0  0  0  0  0  0  0  0
  -28.4690   -0.7850   29.8287 C   0  0  0  0  0  0  0  0  0  0  0  0
  -28.1960    0.3478   28.0550 C   0  0  0  0  0  0  0  0  0  0  0  0
  -27.4421    0.5100   26.7946 C   0  0  0  0  0  0  0  0  0  0  0  0
  -26.1689   -0.0794   26.6787 C   0  0  0  0  0  0  0  0  0  0  0  0
  -25.7312   -0.9607   27.6875 C   0  0  0  0  0  0  0  0  0  0  0  0
  -26.5043   -1.2222   28.7582 C   0  0  0  0  0  0  0  0  0  0  0  0
  -28.3432   -2.0040   30.7789 C   0  0  0  0  0  0  0  0  0  0  0  0
  -27.1300   -2.6401   30.6981 N   0  0  0  0  0  0  0  0  0  0  0  0
  -26.2532   -2.4346   29.6051 C   0  0  0  0  0  0  0  0  0  0  0  0
  -25.1117   -2.9477   29.6234 O   0  0  0  0  0  0  0  0  0  0  0  0
  -29.3840    0.9316   27.9763 O   0  0  0  0  0  0  0  0  0  0  0  0
  -27.7831    1.4786   25.7735 C   0  0  0  0  0  0  0  0  0  0  0  0
  -28.0478    1.0035   24.4869 C   0  0  0  0  0  0  0  0  0  0  0  0
  -27.9513    2.8320   26.1050 C   0  0  0  0  0  0  0  0  0  0  0  0
  -29.2480    0.8408   24.1554 C   0  0  0  0  0  0  0  0  0  0  0  0
  -30.3166    0.6305   24.9308 C   0  0  0  0  0  0  0  0  0  0  0  0
  -31.3068    0.4074   24.7801 C   0  0  0  0  0  0  0  0  0  0  0  0
  -31.7295    0.2348   23.3279 C   0  0  0  0  0  0  0  0  0  0  0  0
  -30.8329    0.5013   22.3996 C   0  0  0  0  0  0  0  0  0  0  0  0
  -29.5592    0.7155   22.7045 C   0  0  0  0  0  0  0  0  0  0  0  0
  1  3  1  0
  3  4  1  0
  4  5  1  0
  5  6  1  0
  1  7  1  0
  2  8  1  0
  7 10  1  0
  9 10  1  0
 10 11  2  0
  3 12  2  0
  4 13  1  0
 13 14  1  0
 13 15  1  0
 14 16  1  0
  1  2  1  0
  8  9  1  0
  7  6  1  0
 16 17  2  0
 17 18  1  0
 18 19  2  0
 19 20  1  0
 20 21  2  0
 21 16  1  0
M  END

$$$$
