No_4338-gen_results/8p0m/2024-11-26-14-13-15/
     RDKit          3D

 13 15  0  0  0  0  0  0  0  0999 V2000
  -28.0162   -0.8135   28.8779 C   0  0  0  0  0  0  0  0  0  0  0  0
  -28.4690   -0.7850   29.8287 C   0  0  0  0  0  0  0  0  0  0  0  0
  -28.1816    0.4277   28.1134 C   0  0  0  0  0  0  0  0  0  0  0  0
  -27.4498    0.6435   26.8500 C   0  0  0  0  0  0  0  0  0  0  0  0
  -26.1815    0.0357   26.7145 C   0  0  0  0  0  0  0  0  0  0  0  0
  -25.7800   -0.9326   27.6938 C   0  0  0  0  0  0  0  0  0  0  0  0
  -26.5568   -1.2134   28.7413 C   0  0  0  0  0  0  0  0  0  0  0  0
  -29.5918   -0.3147   30.2054 N   0  0  0  0  0  0  0  0  0  0  0  0
  -27.9444   -1.8153   30.7823 N   0  0  0  0  0  0  0  0  0  0  0  0
  -26.0831   -2.1691   29.6889 C   0  0  0  0  0  0  0  0  0  0  0  0
  -26.8728   -2.4939   30.7037 C   0  0  0  0  0  0  0  0  0  0  0  0
  -30.1827    0.5613   29.3763 C   0  0  0  0  0  0  0  0  0  0  0  0
  -29.4474    1.0057   28.1826 C   0  0  0  0  0  0  0  0  0  0  0  0
  1  2  1  0
  1  3  2  0
  3  4  1  0
  4  5  2  0
  5  6  1  0
  1  7  1  0
  6  7  1  0
  2  8  2  0
  2  9  1  0
  7 10  1  0
  9 11  1  0
 10 11  2  0
  8 12  1  0
  3 13  1  0
 12 13  2  0
M  END

$$$$
