No_4345-gen_results/8p0m/2024-11-26-14-13-15/
     RDKit          3D

 21 23  0  0  0  0  0  0  0  0999 V2000
  -28.0162   -0.8135   28.8779 C   0  0  0  0  0  0  0  0  0  0  0  0
  -28.4690   -0.7850   29.8287 C   0  0  0  0  0  0  0  0  0  0  0  0
  -26.5455   -0.8762   28.8500 C   0  0  0  0  0  0  0  0  0  0  0  0
  -25.8041   -1.0324   30.0571 C   0  0  0  0  0  0  0  0  0  0  0  0
  -27.9437   -0.9869   31.2075 C   0  0  0  0  0  0  0  0  0  0  0  0
  -26.5825   -1.0386   31.2231 C   0  0  0  0  0  0  0  0  0  0  0  0
  -24.3810   -1.1082   30.0855 C   0  0  0  0  0  0  0  0  0  0  0  0
  -23.7590   -1.1322   30.8961 C   0  0  0  0  0  0  0  0  0  0  0  0
  -22.2395   -1.0663   30.9853 C   0  0  0  0  0  0  0  0  0  0  0  0
  -21.6850   -0.8653   29.7652 C   0  0  0  0  0  0  0  0  0  0  0  0
  -22.4213   -0.7284   28.5819 C   0  0  0  0  0  0  0  0  0  0  0  0
  -23.8520   -0.8586   28.7157 C   0  0  0  0  0  0  0  0  0  0  0  0
  -30.0520   -0.5788   29.6971 C   0  0  0  0  0  0  0  0  0  0  0  0
  -30.8343   -1.2575   30.2292 O   0  0  0  0  0  0  0  0  0  0  0  0
  -30.4061    0.4212   29.0162 O   0  0  0  0  0  0  0  0  0  0  0  0
  -30.0772    1.4344   28.8883 C   0  0  0  0  0  0  0  0  0  0  0  0
  -30.1909    2.3721   29.8863 C   0  0  0  0  0  0  0  0  0  0  0  0
  -29.6328    3.6900   29.7878 C   0  0  0  0  0  0  0  0  0  0  0  0
  -28.9893    4.0413   28.6092 C   0  0  0  0  0  0  0  0  0  0  0  0
  -29.2721    1.8841   27.6948 C   0  0  0  0  0  0  0  0  0  0  0  0
  -28.7844    3.1795   27.5827 C   0  0  0  0  0  0  0  0  0  0  0  0
  4  7  1  0
  2 13  1  0
 13 14  2  0
 13 15  1  0
 15 16  1  0
  1  2  2  0
  2  5  1  0
  5  6  2  0
  6  4  1  0
  4  3  2  0
  3  1  1  0
  7  8  2  0
  8  9  1  0
  9 10  2  0
 10 11  1  0
 11 12  2  0
 12  7  1  0
 16 17  2  0
 17 18  1  0
 18 19  2  0
 19 21  1  0
 21 20  2  0
 20 16  1  0
M  END

$$$$
