No_4109-gen_results/8p0m/2024-11-26-14-13-15/
     RDKit          3D

 28 31  0  0  0  0  0  0  0  0999 V2000
  -28.0162   -0.8135   28.8779 C   0  0  0  0  0  0  0  0  0  0  0  0
  -27.0636   -0.1189   28.6079 C   0  0  0  0  0  0  0  0  0  0  0  0
  -26.9716    0.7139   27.5060 C   0  0  0  0  0  0  0  0  0  0  0  0
  -25.8205    1.4909   27.1160 C   0  0  0  0  0  0  0  0  0  0  0  0
  -24.6562    1.4242   27.9180 C   0  0  0  0  0  0  0  0  0  0  0  0
  -24.7114    0.5419   29.0507 C   0  0  0  0  0  0  0  0  0  0  0  0
  -25.8042   -0.2058   29.3881 C   0  0  0  0  0  0  0  0  0  0  0  0
  -28.0309   -1.5903   30.1490 C   0  0  0  0  0  0  0  0  0  0  0  0
  -26.8104   -1.7964   30.8511 C   0  0  0  0  0  0  0  0  0  0  0  0
  -25.6958   -1.0684   30.5035 C   0  0  0  0  0  0  0  0  0  0  0  0
  -28.0906    0.8796   26.5377 C   0  0  0  0  0  0  0  0  0  0  0  0
  -27.9741    1.0303   25.2685 C   0  0  0  0  0  0  0  0  0  0  0  0
  -29.1126    1.0685   24.4713 C   0  0  0  0  0  0  0  0  0  0  0  0
  -30.3621    0.8608   24.9609 C   0  0  0  0  0  0  0  0  0  0  0  0
  -30.4802    0.6378   26.3080 C   0  0  0  0  0  0  0  0  0  0  0  0
  -29.4255    0.6400   27.1350 C   0  0  0  0  0  0  0  0  0  0  0  0
  -23.3799    0.4693   29.8075 C   0  0  0  0  0  0  0  0  0  0  0  0
  -23.2561    0.7604   30.9665 C   0  0  0  0  0  0  0  0  0  0  0  0
  -22.3475   -0.1983   29.0460 C   0  0  0  0  0  0  0  0  0  0  0  0
  -21.3033   -0.3422   28.4623 N   0  0  0  0  0  0  0  0  0  0  0  0
  -31.8648    0.4418   26.8336 C   0  0  0  0  0  0  0  0  0  0  0  0
  -32.5809   -0.3884   26.5331 O   0  0  0  0  0  0  0  0  0  0  0  0
  -32.1989    1.2992   27.9494 N   0  0  0  0  0  0  0  0  0  0  0  0
  -31.4850    2.3420   28.5170 C   0  0  0  0  0  0  0  0  0  0  0  0
  -31.8303    3.0852   29.2164 C   0  0  0  0  0  0  0  0  0  0  0  0
  -30.9632    4.2000   29.6701 C   0  0  0  0  0  0  0  0  0  0  0  0
  -29.9242    4.2939   29.2113 C   0  0  0  0  0  0  0  0  0  0  0  0
  -30.0978    2.7026   28.0526 C   0  0  0  0  0  0  0  0  0  0  0  0
  3 11  1  0
  6 17  1  0
 17 18  2  0
 17 19  1  0
 19 20  3  0
 15 21  1  0
 21 22  2  0
 21 23  1  0
 23 24  1  0
 24 25  2  0
 25 26  1  0
 26 27  2  0
 24 28  1  0
 27 28  1  0
 11 12  2  0
 12 13  1  0
 13 14  2  0
 14 15  1  0
 15 16  2  0
 16 11  1  0
  2  3  1  0
  3  4  2  0
  4  5  1  0
  5  6  2  0
  6  7  1  0
  1  2  2  0
  2  7  1  0
  7 10  2  0
 10  9  1  0
  9  8  2  0
  8  1  1  0
M  END

$$$$
