No_4984-gen_results/8p0m/2024-11-26-14-13-15/
     RDKit          3D

 35 40  0  0  0  0  0  0  0  0999 V2000
  -28.0162   -0.8135   28.8779 C   0  0  0  0  0  0  0  0  0  0  0  0
  -28.4690   -0.7850   29.8287 C   0  0  0  0  0  0  0  0  0  0  0  0
  -28.1816    0.4277   28.1134 C   0  0  0  0  0  0  0  0  0  0  0  0
  -28.9841    1.4155   28.5154 C   0  0  0  0  0  0  0  0  0  0  0  0
  -29.3802    0.1384   30.4612 C   0  0  0  0  0  0  0  0  0  0  0  0
  -29.5415    1.2736   29.7242 C   0  0  0  0  0  0  0  0  0  0  0  0
  -27.4452    0.4872   26.7726 C   0  0  0  0  0  0  0  0  0  0  0  0
  -26.0008    0.3969   26.7906 C   0  0  0  0  0  0  0  0  0  0  0  0
  -25.3172   -0.0117   27.8848 C   0  0  0  0  0  0  0  0  0  0  0  0
  -23.8903    0.0318   27.8973 C   0  0  0  0  0  0  0  0  0  0  0  0
  -23.1462   -0.4528   29.0421 C   0  0  0  0  0  0  0  0  0  0  0  0
  -23.8342   -1.2474   29.9699 C   0  0  0  0  0  0  0  0  0  0  0  0
  -25.1776   -1.3534   29.9283 C   0  0  0  0  0  0  0  0  0  0  0  0
  -25.8932   -0.8173   28.9367 C   0  0  0  0  0  0  0  0  0  0  0  0
  -26.1715   -1.7868   28.6549 Cl  0  0  0  0  0  0  0  0  0  0  0  0
  -29.2534   -1.2699   28.0278 F   0  0  0  0  0  0  0  0  0  0  0  0
  -21.7213   -0.2247   29.1473 C   0  0  0  0  0  0  0  0  0  0  0  0
  -28.1607    0.7703   25.6512 C   0  0  0  0  0  0  0  0  0  0  0  0
  -27.7727    0.3046   24.4734 Br  0  0  0  0  0  0  0  0  0  0  0  0
  -29.3262    1.3538   25.9089 F   0  0  0  0  0  0  0  0  0  0  0  0
  -28.3206   -1.9098   30.8148 O   0  0  0  0  0  0  0  0  0  0  0  0
  -28.4358   -1.8165   32.1288 C   0  0  0  0  0  0  0  0  0  0  0  0
  -30.3354    2.4730   30.2941 C   0  0  0  0  0  0  0  0  0  0  0  0
  -30.9777    3.1709   29.6825 O   0  0  0  0  0  0  0  0  0  0  0  0
  -30.3970    2.4357   31.7339 N   0  0  0  0  0  0  0  0  0  0  0  0
  -31.1167    3.4763   32.3862 C   0  0  0  0  0  0  0  0  0  0  0  0
  -31.4895    3.1046   33.5287 C   0  0  0  0  0  0  0  0  0  0  0  0
  -30.9418    2.1193   34.1748 C   0  0  0  0  0  0  0  0  0  0  0  0
  -30.1619    1.1211   33.5534 C   0  0  0  0  0  0  0  0  0  0  0  0
  -29.9142    1.3174   32.3030 C   0  0  0  0  0  0  0  0  0  0  0  0
  -29.3432    0.2931   31.5827 C   0  0  0  0  0  0  0  0  0  0  0  0
  -28.9836   -0.8274   32.5733 C   0  0  0  0  0  0  0  0  0  0  0  0
  -29.3639   -0.5829   33.9786 C   0  0  0  0  0  0  0  0  0  0  0  0
  -31.1970    1.7219   35.7361 C   0  0  0  0  0  0  0  0  0  0  0  0
  -32.2391    1.4817   36.1015 O   0  0  0  0  0  0  0  0  0  0  0  0
  3  7  1  0
  7  8  1  0
 14 15  1  0
  1 16  1  0
 11 17  1  0
  7 18  1  0
 18 19  1  0
 18 20  1  0
  2 21  1  0
 21 22  1  0
  6 23  1  0
 23 24  2  0
 23 25  1  0
 25 26  1  0
 27 28  1  0
 28 29  1  0
 25 30  1  0
  5 31  1  0
 30 31  1  0
 22 32  1  0
 31 32  1  0
 29 33  1  0
 32 33  1  0
 28 34  1  0
 34 35  2  0
  8  9  1  0
 26 27  1  0
 29 30  1  0
  9 10  2  0
 10 11  1  0
 11 12  2  0
 12 13  1  0
 13 14  2  0
 14  9  1  0
  1  2  2  0
  2  5  1  0
  5  6  2  0
  6  4  1  0
  4  3  2  0
  3  1  1  0
M  END

$$$$
