No_4512-gen_results/8p0m/2024-11-26-14-13-15/
     RDKit          3D

 19 20  0  0  0  0  0  0  0  0999 V2000
  -28.0162   -0.8135   28.8779 C   0  0  0  0  0  0  0  0  0  0  0  0
  -27.0636   -0.1189   28.6079 C   0  0  0  0  0  0  0  0  0  0  0  0
  -27.0010    0.6913   27.4910 C   0  0  0  0  0  0  0  0  0  0  0  0
  -27.1778    1.9037   27.5632 C   0  0  0  0  0  0  0  0  0  0  0  0
  -28.0594   -1.3960   30.2136 C   0  0  0  0  0  0  0  0  0  0  0  0
  -26.8947   -1.6080   30.9179 C   0  0  0  0  0  0  0  0  0  0  0  0
  -25.7839   -0.2253   29.3757 C   0  0  0  0  0  0  0  0  0  0  0  0
  -25.7520   -0.9581   30.5315 C   0  0  0  0  0  0  0  0  0  0  0  0
  -27.1170    2.7946   26.3619 C   0  0  0  0  0  0  0  0  0  0  0  0
  -26.8513    2.2095   25.1238 C   0  0  0  0  0  0  0  0  0  0  0  0
  -26.6683    0.1690   26.1643 C   0  0  0  0  0  0  0  0  0  0  0  0
  -26.6112    0.9191   25.0364 C   0  0  0  0  0  0  0  0  0  0  0  0
  -29.2900   -2.1815   30.6468 C   0  0  0  0  0  0  0  0  0  0  0  0
  -30.2773   -1.7620   30.6881 O   0  0  0  0  0  0  0  0  0  0  0  0
  -29.0685   -3.4432   30.9892 O   0  0  0  0  0  0  0  0  0  0  0  0
  -24.4204    0.6312   28.8768 Cl  0  0  0  0  0  0  0  0  0  0  0  0
  -24.5045   -1.0835   31.2649 C   0  0  0  0  0  0  0  0  0  0  0  0
  -23.4115   -1.6347   30.6953 C   0  0  0  0  0  0  0  0  0  0  0  0
  -24.5085   -0.4574   32.5798 C   0  0  0  0  0  0  0  0  0  0  0  0
  2  3  1  0
  5 13  1  0
 13 14  1  0
 13 15  2  0
  7 16  1  0
  8 17  1  0
 17 18  1  0
 17 19  1  0
  1  2  2  0
  2  7  1  0
  7  8  2  0
  8  6  1  0
  6  5  2  0
  5  1  1  0
  3  4  2  0
  4  9  1  0
  9 10  2  0
 10 12  1  0
 12 11  2  0
 11  3  1  0
M  END

$$$$
