No_4185-gen_results/8p0m/2024-11-26-14-13-15/
     RDKit          3D

 24 27  0  0  0  0  0  0  0  0999 V2000
  -28.0162   -0.8135   28.8779 C   0  0  0  0  0  0  0  0  0  0  0  0
  -28.4690   -0.7850   29.8287 C   0  0  0  0  0  0  0  0  0  0  0  0
  -27.0871    0.2903   28.6377 C   0  0  0  0  0  0  0  0  0  0  0  0
  -26.7676    1.0274   29.4716 C   0  0  0  0  0  0  0  0  0  0  0  0
  -28.2764    0.0268   31.0145 C   0  0  0  0  0  0  0  0  0  0  0  0
  -27.3287    1.0538   30.7535 C   0  0  0  0  0  0  0  0  0  0  0  0
  -25.8185    2.0997   29.2484 N   0  0  0  0  0  0  0  0  0  0  0  0
  -25.0705    2.2177   28.5021 C   0  0  0  0  0  0  0  0  0  0  0  0
  -24.8319    3.3833   27.6354 C   0  0  0  0  0  0  0  0  0  0  0  0
  -24.0667    1.1623   28.1715 C   0  0  0  0  0  0  0  0  0  0  0  0
  -23.7047    0.2019   29.1211 C   0  0  0  0  0  0  0  0  0  0  0  0
  -22.9702   -0.8860   28.8812 C   0  0  0  0  0  0  0  0  0  0  0  0
  -25.4742    4.5066   27.9063 N   0  0  0  0  0  0  0  0  0  0  0  0
  -24.2353    3.3431   26.4057 N   0  0  0  0  0  0  0  0  0  0  0  0
  -26.0417    4.8505   29.0555 C   0  0  0  0  0  0  0  0  0  0  0  0
  -23.3657    2.3350   26.1178 C   0  0  0  0  0  0  0  0  0  0  0  0
  -23.1854    1.3125   27.0557 C   0  0  0  0  0  0  0  0  0  0  0  0
  -24.0564    0.3520   30.5529 C   0  0  0  0  0  0  0  0  0  0  0  0
  -23.7584   -0.6669   31.4898 C   0  0  0  0  0  0  0  0  0  0  0  0
  -23.0668   -1.7666   31.1164 C   0  0  0  0  0  0  0  0  0  0  0  0
  -22.7144   -1.9435   29.7795 C   0  0  0  0  0  0  0  0  0  0  0  0
  -26.9074    6.1110   28.9394 C   0  0  0  0  0  0  0  0  0  0  0  0
  -26.8534    6.6083   27.8071 C   0  0  0  0  0  0  0  0  0  0  0  0
  -25.8770    5.5793   26.9848 C   0  0  0  0  0  0  0  0  0  0  0  0
  4  7  1  0
 10 11  1  0
  9 13  1  0
 13 15  1  0
 15 22  2  0
 22 23  1  0
 13 24  1  0
 23 24  2  0
  7  8  1  0
  8  9  1  0
  9 14  2  0
 14 16  1  0
 16 17  2  0
 17 10  1  0
 10  8  2  0
  1  2  2  0
  2  5  1  0
  5  6  2  0
  6  4  1  0
  4  3  2  0
  3  1  1  0
 11 12  2  0
 12 21  1  0
 21 20  2  0
 20 19  1  0
 19 18  2  0
 18 11  1  0
M  END

$$$$
