No_4845-gen_results/8p0m/2024-11-26-14-13-15/
     RDKit          3D

 22 23  0  0  0  0  0  0  0  0999 V2000
  -28.1493   -0.8198   28.9079 Cl  0  0  0  0  0  0  0  0  0  0  0  0
  -27.8339    0.4961   29.0598 C   0  0  0  0  0  0  0  0  0  0  0  0
  -27.7903    1.1418   28.0451 F   0  0  0  0  0  0  0  0  0  0  0  0
  -26.4542    0.6687   29.7268 C   0  0  0  0  0  0  0  0  0  0  0  0
  -28.6845    1.1302   29.8976 F   0  0  0  0  0  0  0  0  0  0  0  0
  -25.3924    0.0136   29.1732 C   0  0  0  0  0  0  0  0  0  0  0  0
  -24.5761    0.6032   28.3274 C   0  0  0  0  0  0  0  0  0  0  0  0
  -23.1642    0.5473   28.5851 C   0  0  0  0  0  0  0  0  0  0  0  0
  -22.2201    1.3735   27.9344 C   0  0  0  0  0  0  0  0  0  0  0  0
  -22.6653    2.1417   26.8628 C   0  0  0  0  0  0  0  0  0  0  0  0
  -24.0597    2.1125   26.5045 C   0  0  0  0  0  0  0  0  0  0  0  0
  -24.9294    1.3578   27.2201 C   0  0  0  0  0  0  0  0  0  0  0  0
  -22.5944   -0.1524   29.7427 C   0  0  0  0  0  0  0  0  0  0  0  0
  -22.6547   -1.5487   29.5604 C   0  0  0  0  0  0  0  0  0  0  0  0
  -24.6785   -0.9052   30.1753 C   0  0  0  0  0  0  0  0  0  0  0  0
  -23.9075   -2.0278   30.0530 C   0  0  0  0  0  0  0  0  0  0  0  0
  -25.3475   -0.8857   31.5941 C   0  0  0  0  0  0  0  0  0  0  0  0
  -24.7128   -0.5301   32.5325 O   0  0  0  0  0  0  0  0  0  0  0  0
  -26.5690   -1.3459   31.7466 O   0  0  0  0  0  0  0  0  0  0  0  0
  -20.9561    1.4121   28.1506 F   0  0  0  0  0  0  0  0  0  0  0  0
  -25.2586   -0.1118   30.8458 Br  0  0  0  0  0  0  0  0  0  0  0  0
  -26.3355    2.2623   30.1458 C   0  0  0  0  0  0  0  0  0  0  0  0
  1  2  1  0
  2  3  1  0
  2  4  1  0
  2  5  1  0
  4  6  1  0
  6  7  1  0
  8 13  1  0
 13 14  1  0
  6 15  1  0
 14 16  1  0
 15 16  1  0
 15 17  1  0
 17 18  2  0
 17 19  1  0
  9 20  1  0
 15 21  1  0
  4 22  1  0
  7  8  2  0
  8  9  1  0
  9 10  2  0
 10 11  1  0
 11 12  2  0
 12  7  1  0
M  END

$$$$
