No_4322-gen_results/8p0m/2024-11-26-14-13-15/
     RDKit          3D

 28 29  0  0  0  0  0  0  0  0999 V2000
  -28.0162   -0.8135   28.8779 C   0  0  0  0  0  0  0  0  0  0  0  0
  -27.0636   -0.1189   28.6079 C   0  0  0  0  0  0  0  0  0  0  0  0
  -26.9716    0.7139   27.5060 C   0  0  0  0  0  0  0  0  0  0  0  0
  -25.8205    1.4909   27.1160 C   0  0  0  0  0  0  0  0  0  0  0  0
  -24.6562    1.4242   27.9180 C   0  0  0  0  0  0  0  0  0  0  0  0
  -24.6847    0.5901   29.0659 C   0  0  0  0  0  0  0  0  0  0  0  0
  -25.8099   -0.1265   29.3338 C   0  0  0  0  0  0  0  0  0  0  0  0
  -28.6943   -0.4734   30.1587 C   0  0  0  0  0  0  0  0  0  0  0  0
  -29.7069   -1.2924   30.6301 N   0  0  0  0  0  0  0  0  0  0  0  0
  -23.2754    2.3249   27.5457 Cl  0  0  0  0  0  0  0  0  0  0  0  0
  -30.2416   -2.0671   29.9367 C   0  0  0  0  0  0  0  0  0  0  0  0
  -27.9996    0.7922   26.6710 O   0  0  0  0  0  0  0  0  0  0  0  0
  -30.1528   -3.4930   30.3555 C   0  0  0  0  0  0  0  0  0  0  0  0
  -30.7329   -4.3612   29.5577 O   0  0  0  0  0  0  0  0  0  0  0  0
  -29.4302   -3.9246   31.3090 O   0  0  0  0  0  0  0  0  0  0  0  0
  -27.8992    0.6059   25.3291 C   0  0  0  0  0  0  0  0  0  0  0  0
  -31.0242   -1.8369   29.0657 O   0  0  0  0  0  0  0  0  0  0  0  0
  -28.9876    1.2332   24.6588 C   0  0  0  0  0  0  0  0  0  0  0  0
  -29.3497    2.4523   25.1583 C   0  0  0  0  0  0  0  0  0  0  0  0
  -28.7514    3.1813   25.8564 C   0  0  0  0  0  0  0  0  0  0  0  0
  -29.1894    4.5596   26.2744 C   0  0  0  0  0  0  0  0  0  0  0  0
  -28.4462    5.4477   27.0799 C   0  0  0  0  0  0  0  0  0  0  0  0
  -27.2041    4.9602   27.5470 C   0  0  0  0  0  0  0  0  0  0  0  0
  -26.5146    5.7582   28.4991 C   0  0  0  0  0  0  0  0  0  0  0  0
  -25.5282    5.1155   29.3546 C   0  0  0  0  0  0  0  0  0  0  0  0
  -25.5889    3.7259   29.3471 C   0  0  0  0  0  0  0  0  0  0  0  0
  -26.7466    3.0640   28.8954 C   0  0  0  0  0  0  0  0  0  0  0  0
  -27.5535    3.8497   27.9552 C   0  0  0  0  0  0  0  0  0  0  0  0
  1  8  1  0
  8  9  1  0
  5 10  1  0
  9 11  1  0
  3 12  1  0
 11 13  1  0
 13 14  1  0
 13 15  2  0
 12 16  1  0
 11 17  2  0
 16 18  1  0
 18 19  1  0
 19 20  2  3
 20 21  1  0
 21 22  2  3
 22 23  1  0
  1  2  1  0
  2  3  2  0
  3  4  1  0
  4  5  2  0
  5  6  1  0
  6  7  2  0
  7  2  1  0
 23 24  2  0
 24 25  1  0
 25 26  2  0
 26 27  1  0
 27 28  2  0
 28 23  1  0
M  END

$$$$
