No_4500-gen_results/8p0m/2024-11-26-14-13-15/
     RDKit          3D

 19 20  0  0  0  0  0  0  0  0999 V2000
  -28.0162   -0.8135   28.8779 C   0  0  0  0  0  0  0  0  0  0  0  0
  -28.4690   -0.7850   29.8287 C   0  0  0  0  0  0  0  0  0  0  0  0
  -26.5042   -0.7777   28.8766 C   0  0  0  0  0  0  0  0  0  0  0  0
  -25.9500    0.1157   29.4052 C   0  0  0  0  0  0  0  0  0  0  0  0
  -27.9964    0.1190   30.9527 C   0  0  0  0  0  0  0  0  0  0  0  0
  -26.6037    0.4647   30.8030 C   0  0  0  0  0  0  0  0  0  0  0  0
  -29.8458   -1.0110   30.0484 O   0  0  0  0  0  0  0  0  0  0  0  0
  -30.1198   -2.2283   30.5721 C   0  0  0  0  0  0  0  0  0  0  0  0
  -24.5054    0.3914   29.4338 C   0  0  0  0  0  0  0  0  0  0  0  0
  -24.0812    1.7686   29.5806 C   0  0  0  0  0  0  0  0  0  0  0  0
  -23.4830   -0.5049   29.1349 C   0  0  0  0  0  0  0  0  0  0  0  0
  -22.1907   -0.1038   28.8043 C   0  0  0  0  0  0  0  0  0  0  0  0
  -25.1438    2.7330   29.8841 C   0  0  0  0  0  0  0  0  0  0  0  0
  -21.8401    1.2217   28.6217 C   0  0  0  0  0  0  0  0  0  0  0  0
  -22.7887    2.1959   29.1230 C   0  0  0  0  0  0  0  0  0  0  0  0
  -24.7819    3.8960   29.8888 O   0  0  0  0  0  0  0  0  0  0  0  0
  -26.2830    2.4167   30.1392 O   0  0  0  0  0  0  0  0  0  0  0  0
  -27.1579    3.6132   30.1126 C   0  0  0  0  0  0  0  0  0  0  0  0
  -26.7475    4.4182   29.1838 C   0  0  0  0  0  0  0  0  0  0  0  0
  2  7  1  0
  7  8  1  0
  4  9  1  0
 10 13  1  0
 13 16  2  0
 13 17  1  0
 17 18  1  0
 18 19  1  0
  1  2  2  0
  2  5  1  0
  5  6  2  0
  6  4  1  0
  4  3  2  0
  3  1  1  0
  9 10  2  0
 10 15  1  0
 15 14  2  0
 14 12  1  0
 12 11  2  0
 11  9  1  0
M  END

$$$$
