No_4021-gen_results/8p0m/2024-11-26-14-13-15/
     RDKit          3D

 19 20  0  0  0  0  0  0  0  0999 V2000
  -28.0162   -0.8135   28.8779 C   0  0  0  0  0  0  0  0  0  0  0  0
  -28.4690   -0.7850   29.8287 C   0  0  0  0  0  0  0  0  0  0  0  0
  -26.5042   -0.7777   28.8766 C   0  0  0  0  0  0  0  0  0  0  0  0
  -25.9150   -0.6580   29.9230 C   0  0  0  0  0  0  0  0  0  0  0  0
  -27.9691   -0.7243   31.2047 C   0  0  0  0  0  0  0  0  0  0  0  0
  -26.5847   -0.6393   31.2062 C   0  0  0  0  0  0  0  0  0  0  0  0
  -24.4026   -0.5847   30.0419 C   0  0  0  0  0  0  0  0  0  0  0  0
  -23.6753   -0.1487   28.9955 C   0  0  0  0  0  0  0  0  0  0  0  0
  -22.2364   -0.0360   29.1546 C   0  0  0  0  0  0  0  0  0  0  0  0
  -21.5128    0.5230   28.0806 C   0  0  0  0  0  0  0  0  0  0  0  0
  -22.2121    1.3068   27.1237 C   0  0  0  0  0  0  0  0  0  0  0  0
  -23.5946    1.4156   27.1381 C   0  0  0  0  0  0  0  0  0  0  0  0
  -24.3367    0.7913   28.1168 C   0  0  0  0  0  0  0  0  0  0  0  0
  -24.1982    2.2804   26.1327 C   0  0  0  0  0  0  0  0  0  0  0  0
  -25.2475    3.0809   26.5057 C   0  0  0  0  0  0  0  0  0  0  0  0
  -25.0529    4.3260   26.9913 C   0  0  0  0  0  0  0  0  0  0  0  0
  -26.1197    5.1847   27.4247 C   0  0  0  0  0  0  0  0  0  0  0  0
  -25.9409    6.4541   27.9765 C   0  0  0  0  0  0  0  0  0  0  0  0
  -26.8640    7.1523   28.7293 C   0  0  0  0  0  0  0  0  0  0  0  0
  4  7  1  0
 12 14  1  0
 14 15  1  0
 15 16  2  3
 16 17  1  0
 17 18  2  3
 18 19  1  0
  7  8  1  0
  8  9  2  0
  9 10  1  0
 10 11  2  0
 11 12  1  0
 12 13  2  0
 13  8  1  0
  1  2  2  0
  2  5  1  0
  5  6  2  0
  6  4  1  0
  4  3  2  0
  3  1  1  0
M  END

$$$$
