No_487-gen_results/8p0m/2024-11-26-14-13-15/
     RDKit          3D

 21 22  0  0  0  0  0  0  0  0999 V2000
  -28.0162   -0.8135   28.8779 C   0  0  0  0  0  0  0  0  0  0  0  0
  -27.0636   -0.1190   28.6079 C   0  0  0  0  0  0  0  0  0  0  0  0
  -27.0010    0.6913   27.4910 C   0  0  0  0  0  0  0  0  0  0  0  0
  -28.1373    0.7363   26.6350 C   0  0  0  0  0  0  0  0  0  0  0  0
  -29.2360    0.0765   27.0690 C   0  0  0  0  0  0  0  0  0  0  0  0
  -29.2177   -0.6429   28.1747 C   0  0  0  0  0  0  0  0  0  0  0  0
  -28.0253   -1.7815   30.3211 Cl  0  0  0  0  0  0  0  0  0  0  0  0
  -30.5318    0.0632   26.3790 C   0  0  0  0  0  0  0  0  0  0  0  0
  -30.6195   -0.0999   25.1575 N   0  0  0  0  0  0  0  0  0  0  0  0
  -31.6084    0.1326   27.0077 O   0  0  0  0  0  0  0  0  0  0  0  0
  -31.8647   -0.2911   24.3511 C   0  0  0  0  0  0  0  0  0  0  0  0
  -29.4526   -0.2633   24.1721 C   0  0  0  0  0  0  0  0  0  0  0  0
  -25.7365    1.4058   27.0723 C   0  0  0  0  0  0  0  0  0  0  0  0
  -25.2125    2.3459   28.0665 C   0  0  0  0  0  0  0  0  0  0  0  0
  -23.8824    2.7732   27.7467 C   0  0  0  0  0  0  0  0  0  0  0  0
  -23.2156    2.3001   26.5853 C   0  0  0  0  0  0  0  0  0  0  0  0
  -24.9110    1.0231   26.0465 C   0  0  0  0  0  0  0  0  0  0  0  0
  -23.7701    1.4605   25.7782 C   0  0  0  0  0  0  0  0  0  0  0  0
  -25.8310    2.8472   29.2180 C   0  0  0  0  0  0  0  0  0  0  0  0
  -25.5468    2.4976   30.3590 O   0  0  0  0  0  0  0  0  0  0  0  0
  -26.9450    3.5458   28.9901 O   0  0  0  0  0  0  0  0  0  0  0  0
  1  7  1  0
  5  8  1  0
  8  9  1  0
  8 10  2  0
  9 11  1  0
  9 12  1  0
  3 13  1  0
 14 19  1  0
 19 20  2  0
 19 21  1  0
  1  2  2  0
  2  3  1  0
  3  4  2  0
  4  5  1  0
  5  6  2  0
  6  1  1  0
 13 14  2  0
 14 15  1  0
 15 16  2  0
 16 18  1  0
 18 17  2  0
 17 13  1  0
M  END

$$$$
