No_4474-gen_results/8p0m/2024-11-26-14-13-15/
     RDKit          3D

 24 26  0  0  0  0  0  0  0  0999 V2000
  -28.0162   -0.8135   28.8779 C   0  0  0  0  0  0  0  0  0  0  0  0
  -27.0636   -0.1190   28.6079 C   0  0  0  0  0  0  0  0  0  0  0  0
  -26.9287    1.1713   29.0083 C   0  0  0  0  0  0  0  0  0  0  0  0
  -27.9560    1.7411   29.7840 C   0  0  0  0  0  0  0  0  0  0  0  0
  -29.0569   -0.3271   29.7466 C   0  0  0  0  0  0  0  0  0  0  0  0
  -28.9828    0.9722   30.1516 C   0  0  0  0  0  0  0  0  0  0  0  0
  -25.8815   -0.6260   27.7945 C   0  0  0  0  0  0  0  0  0  0  0  0
  -25.4215    0.1302   26.7096 C   0  0  0  0  0  0  0  0  0  0  0  0
  -25.0332   -1.6821   28.2396 C   0  0  0  0  0  0  0  0  0  0  0  0
  -24.3977   -1.7439   29.4802 C   0  0  0  0  0  0  0  0  0  0  0  0
  -23.7356   -1.1139   30.0646 C   0  0  0  0  0  0  0  0  0  0  0  0
  -23.6232    0.0737   30.4991 C   0  0  0  0  0  0  0  0  0  0  0  0
  -24.4508    0.3955   31.5949 C   0  0  0  0  0  0  0  0  0  0  0  0
  -24.6857    1.7723   32.0506 C   0  0  0  0  0  0  0  0  0  0  0  0
  -23.9489    2.8017   31.3590 C   0  0  0  0  0  0  0  0  0  0  0  0
  -23.1173    2.4494   30.3323 C   0  0  0  0  0  0  0  0  0  0  0  0
  -22.9438    1.1590   29.8910 C   0  0  0  0  0  0  0  0  0  0  0  0
  -27.8833    3.2175   30.2149 C   0  0  0  0  0  0  0  0  0  0  0  0
  -27.3163    4.2359   29.4528 C   0  0  0  0  0  0  0  0  0  0  0  0
  -27.0609    4.0348   28.1186 C   0  0  0  0  0  0  0  0  0  0  0  0
  -26.3116    5.0628   27.4523 C   0  0  0  0  0  0  0  0  0  0  0  0
  -25.8729    6.1874   28.1399 C   0  0  0  0  0  0  0  0  0  0  0  0
  -26.1122    6.3518   29.4971 C   0  0  0  0  0  0  0  0  0  0  0  0
  -26.7693    5.3700   30.2059 C   0  0  0  0  0  0  0  0  0  0  0  0
  2  7  1  0
  7  8  1  0
  7  9  1  0
  9 10  2  3
 10 11  1  0
  4 18  1  0
 18 19  1  0
 11 12  1  0
 12 13  2  0
 13 14  1  0
 14 15  2  0
 15 16  1  0
 16 17  2  0
 17 12  1  0
  1  2  2  0
  2  3  1  0
  3  4  2  0
  4  6  1  0
  6  5  2  0
  5  1  1  0
 19 20  2  0
 20 21  1  0
 21 22  2  0
 22 23  1  0
 23 24  2  0
 24 19  1  0
M  END

$$$$
