No_4614-gen_results/8p0m/2024-11-26-14-13-15/
     RDKit          3D

 23 25  0  0  0  0  0  0  0  0999 V2000
  -28.1229   -1.3353   28.4874 O   0  0  0  0  0  0  0  0  0  0  0  0
  -27.0637   -0.8242   28.8687 C   0  0  0  0  0  0  0  0  0  0  0  0
  -26.4017   -0.0623   28.6224 C   0  0  0  0  0  0  0  0  0  0  0  0
  -26.5721   -1.5844   30.1172 N   0  0  0  0  0  0  0  0  0  0  0  0
  -25.0209    0.3562   29.0444 C   0  0  0  0  0  0  0  0  0  0  0  0
  -24.6645   -0.3860   30.2421 C   0  0  0  0  0  0  0  0  0  0  0  0
  -25.4289   -1.3598   30.6870 C   0  0  0  0  0  0  0  0  0  0  0  0
  -26.7073    0.8229   27.3445 C   0  0  0  0  0  0  0  0  0  0  0  0
  -25.8032    1.5451   26.7087 C   0  0  0  0  0  0  0  0  0  0  0  0
  -24.5506    1.9361   27.3262 C   0  0  0  0  0  0  0  0  0  0  0  0
  -24.1579    1.3313   28.4975 C   0  0  0  0  0  0  0  0  0  0  0  0
  -27.5998   -2.5508   30.5175 C   0  0  0  0  0  0  0  0  0  0  0  0
  -28.8876   -2.0580   30.8313 C   0  0  0  0  0  0  0  0  0  0  0  0
  -28.9117   -0.8136   31.1910 C   0  0  0  0  0  0  0  0  0  0  0  0
  -29.7723   -0.4933   31.9298 O   0  0  0  0  0  0  0  0  0  0  0  0
  -29.4025   -2.8560   31.9446 O   0  0  0  0  0  0  0  0  0  0  0  0
  -22.8023    1.5197   28.9760 C   0  0  0  0  0  0  0  0  0  0  0  0
  -22.1622    2.2233   28.5644 O   0  0  0  0  0  0  0  0  0  0  0  0
  -22.4972    0.9207   30.1370 O   0  0  0  0  0  0  0  0  0  0  0  0
  -23.3550   -0.1192   30.7309 C   0  0  0  0  0  0  0  0  0  0  0  0
  -30.9448    0.1018   31.5645 C   0  0  0  0  0  0  0  0  0  0  0  0
  -30.9336    0.3679   30.3953 C   0  0  0  0  0  0  0  0  0  0  0  0
  -31.8605    0.3561   29.5699 O   0  0  0  0  0  0  0  0  0  0  0  0
  1  2  2  0
  2  3  1  0
  2  4  1  0
  5  6  1  0
  4  7  1  0
  6  7  1  0
  4 12  1  0
 12 13  1  0
 13 14  1  0
 14 15  1  0
 13 16  1  0
 11 17  1  0
 17 18  2  0
 17 19  1  0
  6 20  1  0
 19 20  1  0
 15 21  1  0
 21 22  2  0
 22 23  2  0
  3  8  2  0
  8  9  1  0
  9 10  2  0
 10 11  1  0
 11  5  2  0
  5  3  1  0
M  END

$$$$
