No_4739-gen_results/8p0m/2024-11-26-14-13-15/
     RDKit          3D

 19 20  0  0  0  0  0  0  0  0999 V2000
  -28.0162   -0.8135   28.8779 C   0  0  0  0  0  0  0  0  0  0  0  0
  -27.0636   -0.1189   28.6079 C   0  0  0  0  0  0  0  0  0  0  0  0
  -25.7923   -0.4302   29.0761 C   0  0  0  0  0  0  0  0  0  0  0  0
  -25.5756   -1.5654   29.9363 C   0  0  0  0  0  0  0  0  0  0  0  0
  -26.7354   -2.3004   30.2173 C   0  0  0  0  0  0  0  0  0  0  0  0
  -27.9184   -1.9537   29.7629 C   0  0  0  0  0  0  0  0  0  0  0  0
  -29.0732   -2.7835   30.1783 C   0  0  0  0  0  0  0  0  0  0  0  0
  -29.0022   -3.9850   30.2347 O   0  0  0  0  0  0  0  0  0  0  0  0
  -30.1809   -2.1900   30.4596 O   0  0  0  0  0  0  0  0  0  0  0  0
  -27.2859    1.1141   27.8339 C   0  0  0  0  0  0  0  0  0  0  0  0
  -27.3553    1.0131   26.4493 C   0  0  0  0  0  0  0  0  0  0  0  0
  -27.1053   -0.0955   25.8300 C   0  0  0  0  0  0  0  0  0  0  0  0
  -27.1774   -0.1627   24.3635 C   0  0  0  0  0  0  0  0  0  0  0  0
  -27.8798    0.8287   23.7610 C   0  0  0  0  0  0  0  0  0  0  0  0
  -28.0072    2.0143   25.6500 C   0  0  0  0  0  0  0  0  0  0  0  0
  -28.2235    1.9441   24.3676 C   0  0  0  0  0  0  0  0  0  0  0  0
  -27.4163    2.3796   28.5678 C   0  0  0  0  0  0  0  0  0  0  0  0
  -28.5369    2.9361   28.8410 C   0  0  0  0  0  0  0  0  0  0  0  0
  -28.6113    4.1293   29.5738 C   0  0  0  0  0  0  0  0  0  0  0  0
  6  7  1  0
  7  8  2  0
  7  9  1  0
  2 10  1  0
 10 11  1  0
 10 17  1  0
 17 18  2  3
 18 19  1  0
  1  2  2  0
  2  3  1  0
  3  4  2  0
  4  5  1  0
  5  6  2  0
  6  1  1  0
 11 12  2  0
 12 13  1  0
 13 14  2  0
 14 16  1  0
 16 15  2  0
 15 11  1  0
M  END

$$$$
