No_4336-gen_results/8p0m/2024-11-26-14-13-15/
     RDKit          3D

 11 11  0  0  0  0  0  0  0  0999 V2000
  -28.1229   -1.3353   28.4874 O   0  0  0  0  0  0  0  0  0  0  0  0
  -27.0637   -0.8242   28.8687 C   0  0  0  0  0  0  0  0  0  0  0  0
  -25.9464   -1.0396   28.8492 C   0  0  0  0  0  0  0  0  0  0  0  0
  -24.7602   -0.1562   29.1644 C   0  0  0  0  0  0  0  0  0  0  0  0
  -23.3890   -0.4551   29.0162 C   0  0  0  0  0  0  0  0  0  0  0  0
  -27.4622    0.0876   29.9312 F   0  0  0  0  0  0  0  0  0  0  0  0
  -22.4057    0.5160   29.0946 C   0  0  0  0  0  0  0  0  0  0  0  0
  -22.7766    1.8304   29.1119 C   0  0  0  0  0  0  0  0  0  0  0  0
  -24.1083    2.2279   29.1109 C   0  0  0  0  0  0  0  0  0  0  0  0
  -25.0961    1.2468   29.0834 C   0  0  0  0  0  0  0  0  0  0  0  0
  -20.6204   -0.0478   29.0325 Br  0  0  0  0  0  0  0  0  0  0  0  0
  1  2  2  0
  2  3  1  0
  3  4  1  0
  2  6  1  0
  7 11  1  0
  4  5  2  0
  5  7  1  0
  7  8  2  0
  8  9  1  0
  9 10  2  0
 10  4  1  0
M  END

$$$$
