No_4550-gen_results/8p0m/2024-11-26-14-13-15/
     RDKit          3D

 17 18  0  0  0  0  0  0  0  0999 V2000
  -28.0162   -0.8135   28.8779 C   0  0  0  0  0  0  0  0  0  0  0  0
  -28.4690   -0.7850   29.8287 C   0  0  0  0  0  0  0  0  0  0  0  0
  -28.1960    0.3478   28.0550 C   0  0  0  0  0  0  0  0  0  0  0  0
  -29.0191    1.3501   28.3782 C   0  0  0  0  0  0  0  0  0  0  0  0
  -29.4107    0.1803   30.3782 C   0  0  0  0  0  0  0  0  0  0  0  0
  -29.6059    1.2495   29.6193 C   0  0  0  0  0  0  0  0  0  0  0  0
  -27.4478    0.3799   26.7122 C   0  0  0  0  0  0  0  0  0  0  0  0
  -27.8661    0.6718   25.7147 N   0  0  0  0  0  0  0  0  0  0  0  0
  -26.0558    0.0721   26.7437 N   0  0  0  0  0  0  0  0  0  0  0  0
  -25.2108   -0.1283   27.7852 C   0  0  0  0  0  0  0  0  0  0  0  0
  -24.1328    0.6917   28.0016 C   0  0  0  0  0  0  0  0  0  0  0  0
  -23.4057    0.6482   28.8231 C   0  0  0  0  0  0  0  0  0  0  0  0
  -23.3442   -0.4986   29.7750 C   0  0  0  0  0  0  0  0  0  0  0  0
  -25.2800   -1.2307   28.6647 C   0  0  0  0  0  0  0  0  0  0  0  0
  -24.3093   -1.3919   29.6324 C   0  0  0  0  0  0  0  0  0  0  0  0
  -25.5101    0.3415   25.4253 C   0  0  0  0  0  0  0  0  0  0  0  0
  -29.1669    0.9564   25.2900 C   0  0  0  0  0  0  0  0  0  0  0  0
  3  7  1  0
  7  8  2  3
  7  9  1  0
  9 10  1  0
  9 16  1  0
  8 17  1  0
 10 11  2  0
 11 12  1  0
 12 13  2  0
 13 15  1  0
 15 14  2  0
 14 10  1  0
  1  2  2  0
  2  5  1  0
  5  6  2  0
  6  4  1  0
  4  3  2  0
  3  1  1  0
M  END

$$$$
