No_4955-gen_results/8p0m/2024-11-26-14-13-15/
     RDKit          3D

 19 20  0  0  0  0  0  0  0  0999 V2000
  -28.0162   -0.8135   28.8779 C   0  0  0  0  0  0  0  0  0  0  0  0
  -27.0636   -0.1189   28.6079 C   0  0  0  0  0  0  0  0  0  0  0  0
  -25.7647   -0.3897   29.0360 C   0  0  0  0  0  0  0  0  0  0  0  0
  -25.5296   -1.5302   29.9014 C   0  0  0  0  0  0  0  0  0  0  0  0
  -26.6888   -2.2893   30.1810 C   0  0  0  0  0  0  0  0  0  0  0  0
  -27.8727   -1.9508   29.7373 C   0  0  0  0  0  0  0  0  0  0  0  0
  -24.6993    0.3604   28.7753 F   0  0  0  0  0  0  0  0  0  0  0  0
  -28.9352   -2.7184   30.0509 F   0  0  0  0  0  0  0  0  0  0  0  0
  -27.1383    1.1380   27.7288 C   0  0  0  0  0  0  0  0  0  0  0  0
  -26.7310    1.1507   26.5238 N   0  0  0  0  0  0  0  0  0  0  0  0
  -26.8626    0.3995   25.8081 C   0  0  0  0  0  0  0  0  0  0  0  0
  -26.2367    0.4644   24.5277 N   0  0  0  0  0  0  0  0  0  0  0  0
  -25.6803    2.0051   25.9793 C   0  0  0  0  0  0  0  0  0  0  0  0
  -25.0650    3.1397   26.6160 C   0  0  0  0  0  0  0  0  0  0  0  0
  -25.3912    1.4822   24.7172 C   0  0  0  0  0  0  0  0  0  0  0  0
  -28.1427    2.4184   28.3417 P   0  0  0  0  0  0  0  0  0  0  0  0
  -28.1143    2.4438   29.6618 O   0  0  0  0  0  0  0  0  0  0  0  0
  -27.4686    3.5948   27.8083 O   0  0  0  0  0  0  0  0  0  0  0  0
  -29.4320    2.2300   27.6755 O   0  0  0  0  0  0  0  0  0  0  0  0
  3  7  1  0
  6  8  1  0
  2  9  1  0
  9 10  1  0
 10 11  1  0
 11 12  1  0
 10 13  1  0
 13 14  1  0
 12 15  1  0
 13 15  1  0
  9 16  1  0
 16 17  1  0
 16 18  2  0
 16 19  1  0
  1  2  2  0
  2  3  1  0
  3  4  2  0
  4  5  1  0
  5  6  2  0
  6  1  1  0
M  END

$$$$
