No_4058-gen_results/8p0m/2024-11-26-14-13-15/
     RDKit          3D

 17 18  0  0  0  0  0  0  0  0999 V2000
  -28.0162   -0.8135   28.8779 C   0  0  0  0  0  0  0  0  0  0  0  0
  -27.0636   -0.1189   28.6079 C   0  0  0  0  0  0  0  0  0  0  0  0
  -26.9716    0.7139   27.5060 C   0  0  0  0  0  0  0  0  0  0  0  0
  -25.8205    1.4909   27.1160 C   0  0  0  0  0  0  0  0  0  0  0  0
  -24.6562    1.4242   27.9180 C   0  0  0  0  0  0  0  0  0  0  0  0
  -24.6847    0.5901   29.0659 C   0  0  0  0  0  0  0  0  0  0  0  0
  -25.8099   -0.1265   29.3338 C   0  0  0  0  0  0  0  0  0  0  0  0
  -29.1935   -0.1896   29.0164 N   0  0  0  0  0  0  0  0  0  0  0  0
  -23.4634    2.1759   27.6079 C   0  0  0  0  0  0  0  0  0  0  0  0
  -22.5548    1.7016   27.1338 O   0  0  0  0  0  0  0  0  0  0  0  0
  -23.4216    3.4032   28.0937 O   0  0  0  0  0  0  0  0  0  0  0  0
  -30.2859   -0.7560   29.5994 C   0  0  0  0  0  0  0  0  0  0  0  0
  -31.5074   -0.4983   29.0960 C   0  0  0  0  0  0  0  0  0  0  0  0
  -30.1630   -0.5678   31.0952 C   0  0  0  0  0  0  0  0  0  0  0  0
  -30.6844    0.1554   31.6013 C   0  0  0  0  0  0  0  0  0  0  0  0
  -32.0950    0.5485   31.2521 C   0  0  0  0  0  0  0  0  0  0  0  0
  -32.4425    0.2613   29.9167 C   0  0  0  0  0  0  0  0  0  0  0  0
  1  8  1  0
  5  9  1  0
  9 10  2  0
  9 11  1  0
  8 12  1  0
  1  2  1  0
  2  3  2  0
  3  4  1  0
  4  5  2  0
  5  6  1  0
  6  7  2  0
  7  2  1  0
 12 13  2  0
 13 17  1  0
 17 16  2  0
 16 15  1  0
 15 14  2  0
 14 12  1  0
M  END

$$$$
