No_4114-gen_results/8p0m/2024-11-26-14-13-15/
     RDKit          3D

 25 26  0  0  0  0  0  0  0  0999 V2000
  -28.0162   -0.8135   28.8779 C   0  0  0  0  0  0  0  0  0  0  0  0
  -28.4690   -0.7850   29.8287 C   0  0  0  0  0  0  0  0  0  0  0  0
  -27.1356    0.2359   28.5352 C   0  0  0  0  0  0  0  0  0  0  0  0
  -26.8745    1.2825   29.3982 C   0  0  0  0  0  0  0  0  0  0  0  0
  -27.5070    1.2380   30.6295 C   0  0  0  0  0  0  0  0  0  0  0  0
  -28.3293    0.1745   30.9350 C   0  0  0  0  0  0  0  0  0  0  0  0
  -26.4077    0.3070   27.2259 C   0  0  0  0  0  0  0  0  0  0  0  0
  -25.4085   -0.3655   27.2512 F   0  0  0  0  0  0  0  0  0  0  0  0
  -27.2243   -0.1905   26.2445 F   0  0  0  0  0  0  0  0  0  0  0  0
  -26.0096    1.5373   26.8208 F   0  0  0  0  0  0  0  0  0  0  0  0
  -29.3821   -2.0258   30.3317 C   0  0  0  0  0  0  0  0  0  0  0  0
  -30.4071   -2.2443   29.9828 O   0  0  0  0  0  0  0  0  0  0  0  0
  -28.7780   -2.9215   31.2329 O   0  0  0  0  0  0  0  0  0  0  0  0
  -27.2374    2.3310   31.5977 C   0  0  0  0  0  0  0  0  0  0  0  0
  -27.3213    2.2949   32.7085 O   0  0  0  0  0  0  0  0  0  0  0  0
  -26.4706    3.2962   31.0353 O   0  0  0  0  0  0  0  0  0  0  0  0
  -25.9725    4.2263   31.8633 C   0  0  0  0  0  0  0  0  0  0  0  0
  -24.7294    4.9133   31.4163 C   0  0  0  0  0  0  0  0  0  0  0  0
  -24.1133    5.4992   32.6567 C   0  0  0  0  0  0  0  0  0  0  0  0
  -22.9382    5.8071   32.5539 O   0  0  0  0  0  0  0  0  0  0  0  0
  -24.8641    6.0284   33.5919 N   0  0  0  0  0  0  0  0  0  0  0  0
  -26.1675    5.5765   33.8619 C   0  0  0  0  0  0  0  0  0  0  0  0
  -26.6280    4.6075   33.0566 C   0  0  0  0  0  0  0  0  0  0  0  0
  -24.2262    6.9774   34.5548 C   0  0  0  0  0  0  0  0  0  0  0  0
  -23.4491    7.9182   33.9431 C   0  0  0  0  0  0  0  0  0  0  0  0
  3  7  1  0
  7  8  1  0
  7  9  1  0
  7 10  1  0
  2 11  1  0
 11 12  2  0
 11 13  1  0
  5 14  1  0
 14 15  2  0
 14 16  1  0
 16 17  1  0
 17 18  1  0
 18 19  1  0
 19 20  2  0
 19 21  1  0
 21 22  1  0
 17 23  1  0
 21 24  1  0
 24 25  1  0
 23 22  1  0
  1  2  2  0
  2  6  1  0
  6  5  2  0
  5  4  1  0
  4  3  2  0
  3  1  1  0
M  END

$$$$
