No_4308-gen_results/8p0m/2024-11-26-14-13-15/
     RDKit          3D

 14 15  0  0  0  0  0  0  0  0999 V2000
  -28.0162   -0.8135   28.8779 C   0  0  0  0  0  0  0  0  0  0  0  0
  -28.4690   -0.7850   29.8287 C   0  0  0  0  0  0  0  0  0  0  0  0
  -26.5455   -0.8762   28.8500 C   0  0  0  0  0  0  0  0  0  0  0  0
  -25.8041   -1.0324   30.0571 C   0  0  0  0  0  0  0  0  0  0  0  0
  -26.5373   -1.0386   31.2171 C   0  0  0  0  0  0  0  0  0  0  0  0
  -27.8843   -0.9532   31.1862 C   0  0  0  0  0  0  0  0  0  0  0  0
  -24.3555   -1.1121   30.0346 C   0  0  0  0  0  0  0  0  0  0  0  0
  -23.6129   -1.1081   29.0414 C   0  0  0  0  0  0  0  0  0  0  0  0
  -22.3378   -0.5361   29.0379 C   0  0  0  0  0  0  0  0  0  0  0  0
  -21.6245   -0.0949   27.9165 C   0  0  0  0  0  0  0  0  0  0  0  0
  -21.3389    1.3850   28.0877 C   0  0  0  0  0  0  0  0  0  0  0  0
  -23.6773   -1.1934   31.4062 C   0  0  0  0  0  0  0  0  0  0  0  0
  -22.3205   -0.7764   31.4604 C   0  0  0  0  0  0  0  0  0  0  0  0
  -21.6819   -0.3374   30.3622 C   0  0  0  0  0  0  0  0  0  0  0  0
  4  7  1  0
  9 10  1  0
 10 11  2  0
  7  8  2  0
  8  9  1  0
  9 14  2  0
 14 13  1  0
 13 12  2  0
 12  7  1  0
  1  2  2  0
  2  6  1  0
  6  5  2  0
  5  4  1  0
  4  3  2  0
  3  1  1  0
M  END

$$$$
