No_4421-gen_results/8p0m/2024-11-26-14-13-15/
     RDKit          3D

 21 22  0  0  0  0  0  0  0  0999 V2000
  -28.0162   -0.8135   28.8779 C   0  0  0  0  0  0  0  0  0  0  0  0
  -27.0636   -0.1190   28.6079 C   0  0  0  0  0  0  0  0  0  0  0  0
  -26.9287    1.1713   29.0083 C   0  0  0  0  0  0  0  0  0  0  0  0
  -25.7702    2.0341   28.6884 C   0  0  0  0  0  0  0  0  0  0  0  0
  -24.7141    1.4431   27.9188 C   0  0  0  0  0  0  0  0  0  0  0  0
  -24.8590    0.0783   27.5836 C   0  0  0  0  0  0  0  0  0  0  0  0
  -25.9647   -0.6606   27.9164 C   0  0  0  0  0  0  0  0  0  0  0  0
  -29.1778   -0.3051   28.9638 N   0  0  0  0  0  0  0  0  0  0  0  0
  -29.7429    0.3639   28.0669 C   0  0  0  0  0  0  0  0  0  0  0  0
  -30.7508    0.3561   27.5991 C   0  0  0  0  0  0  0  0  0  0  0  0
  -31.7613   -0.5500   28.1516 C   0  0  0  0  0  0  0  0  0  0  0  0
  -30.1336   -0.7903   29.9946 C   0  0  0  0  0  0  0  0  0  0  0  0
  -31.4479   -1.0076   29.4649 C   0  0  0  0  0  0  0  0  0  0  0  0
  -23.4915    2.1209   27.5925 C   0  0  0  0  0  0  0  0  0  0  0  0
  -22.5968    1.6204   27.3773 F   0  0  0  0  0  0  0  0  0  0  0  0
  -23.8547    2.9727   26.4440 F   0  0  0  0  0  0  0  0  0  0  0  0
  -23.2542    3.1298   28.5692 F   0  0  0  0  0  0  0  0  0  0  0  0
  -27.8007   -1.9655   29.4499 O   0  0  0  0  0  0  0  0  0  0  0  0
  -31.2797    0.9725   26.2875 C   0  0  0  0  0  0  0  0  0  0  0  0
  -31.7888    1.9753   26.3542 O   0  0  0  0  0  0  0  0  0  0  0  0
  -31.1551    0.1860   25.1780 O   0  0  0  0  0  0  0  0  0  0  0  0
  1  2  1  0
  1  8  1  0
  8  9  1  0
 10 11  1  0
  8 12  1  0
  5 14  1  0
 14 15  1  0
 14 16  1  0
 14 17  1  0
  1 18  2  0
 10 19  1  0
 19 20  2  0
 19 21  1  0
  9 10  1  0
 11 13  1  0
 13 12  1  0
  2  3  2  0
  3  4  1  0
  4  5  2  0
  5  6  1  0
  6  7  2  0
  7  2  1  0
M  END

$$$$
