No_4071-gen_results/8p0m/2024-11-26-14-13-15/
     RDKit          3D

 13 13  0  0  0  0  0  0  0  0999 V2000
  -28.0162   -0.8135   28.8779 C   0  0  0  0  0  0  0  0  0  0  0  0
  -28.4690   -0.7850   29.8287 C   0  0  0  0  0  0  0  0  0  0  0  0
  -27.0871    0.2903   28.6377 C   0  0  0  0  0  0  0  0  0  0  0  0
  -26.0238    0.3644   29.2526 C   0  0  0  0  0  0  0  0  0  0  0  0
  -27.5370   -0.6187   31.0883 C   0  0  0  0  0  0  0  0  0  0  0  0
  -26.3844    0.1834   30.8012 C   0  0  0  0  0  0  0  0  0  0  0  0
  -29.3312   -2.0275   30.3379 C   0  0  0  0  0  0  0  0  0  0  0  0
  -30.7390   -1.7872   30.1479 C   0  0  0  0  0  0  0  0  0  0  0  0
  -31.4165   -2.7720   29.8499 O   0  0  0  0  0  0  0  0  0  0  0  0
  -31.2449   -0.7434   30.5823 O   0  0  0  0  0  0  0  0  0  0  0  0
  -29.0451   -2.5344   31.6923 N   0  0  0  0  0  0  0  0  0  0  0  0
  -27.7591   -1.2685   32.3204 C   0  0  0  0  0  0  0  0  0  0  0  0
  -29.4998   -3.3554   32.5210 C   0  0  0  0  0  0  0  0  0  0  0  0
  2  7  1  0
  7  8  1  0
  8  9  2  0
  8 10  1  0
  7 11  1  0
  5 12  1  0
 11 13  1  0
  1  2  2  0
  2  5  1  0
  5  6  2  0
  6  4  1  0
  4  3  2  0
  3  1  1  0
M  END

$$$$
