No_4290-gen_results/8p0m/2024-11-26-14-13-15/
     RDKit          3D

 10 10  0  0  0  0  0  0  0  0999 V2000
  -28.1229   -1.3353   28.4874 O   0  0  0  0  0  0  0  0  0  0  0  0
  -27.4806   -0.4044   28.7094 C   0  0  0  0  0  0  0  0  0  0  0  0
  -27.1904    0.2460   29.5268 C   0  0  0  0  0  0  0  0  0  0  0  0
  -26.6021   -0.1576   27.5515 N   0  0  0  0  0  0  0  0  0  0  0  0
  -25.6421    0.9031   27.5822 C   0  0  0  0  0  0  0  0  0  0  0  0
  -24.6411    1.0988   26.6164 C   0  0  0  0  0  0  0  0  0  0  0  0
  -25.3779    1.2986   28.8959 C   0  0  0  0  0  0  0  0  0  0  0  0
  -26.1618    1.1169   29.9303 C   0  0  0  0  0  0  0  0  0  0  0  0
  -23.5387    1.9070   26.8522 C   0  0  0  0  0  0  0  0  0  0  0  0
  -23.2828    2.3888   28.1418 C   0  0  0  0  0  0  0  0  0  0  0  0
  1  2  2  0
  2  3  1  0
  2  4  1  0
  4  5  1  0
  5  6  1  0
  5  7  1  0
  3  8  1  0
  6  9  2  3
  9 10  1  0
  8  7  1  0
M  END

$$$$
