No_4597-gen_results/8p0m/2024-11-26-14-13-15/
     RDKit          3D

 14 14  0  0  0  0  0  0  0  0999 V2000
  -28.1493   -0.8198   28.9079 Cl  0  0  0  0  0  0  0  0  0  0  0  0
  -26.9116   -0.0797   28.9452 C   0  0  0  0  0  0  0  0  0  0  0  0
  -26.7384    1.0439   29.2534 C   0  0  0  0  0  0  0  0  0  0  0  0
  -25.4392    1.7115   29.2755 C   0  0  0  0  0  0  0  0  0  0  0  0
  -24.2813    0.9888   28.8542 C   0  0  0  0  0  0  0  0  0  0  0  0
  -24.4869   -0.3041   28.4957 C   0  0  0  0  0  0  0  0  0  0  0  0
  -25.7046   -0.8667   28.5244 C   0  0  0  0  0  0  0  0  0  0  0  0
  -22.8877    1.3961   28.8614 C   0  0  0  0  0  0  0  0  0  0  0  0
  -21.8929    0.6784   28.5425 N   0  0  0  0  0  0  0  0  0  0  0  0
  -21.3829   -0.1268   29.1941 C   0  0  0  0  0  0  0  0  0  0  0  0
  -21.8657   -0.5930   30.2918 N   0  0  0  0  0  0  0  0  0  0  0  0
  -20.2918   -0.8888   28.6930 N   0  0  0  0  0  0  0  0  0  0  0  0
  -28.0086    2.1098   29.8014 Cl  0  0  0  0  0  0  0  0  0  0  0  0
  -25.1878    2.9599   29.6822 F   0  0  0  0  0  0  0  0  0  0  0  0
  1  2  1  0
  5  8  1  0
  8  9  1  0
  9 10  1  0
 10 11  2  0
 10 12  1  0
  3 13  1  0
  4 14  1  0
  2  3  2  0
  3  4  1  0
  4  5  2  0
  5  6  1  0
  6  7  2  0
  7  2  1  0
M  END

$$$$
