No_4602-gen_results/8p0m/2024-11-26-14-13-15/
     RDKit          3D

 24 26  0  0  0  0  0  0  0  0999 V2000
  -28.0162   -0.8135   28.8779 C   0  0  0  0  0  0  0  0  0  0  0  0
  -28.4690   -0.7850   29.8287 C   0  0  0  0  0  0  0  0  0  0  0  0
  -26.5042   -0.7777   28.8766 C   0  0  0  0  0  0  0  0  0  0  0  0
  -25.8103   -0.8531   30.1028 C   0  0  0  0  0  0  0  0  0  0  0  0
  -27.9906   -0.8916   31.2257 C   0  0  0  0  0  0  0  0  0  0  0  0
  -26.6042   -0.8676   31.2652 C   0  0  0  0  0  0  0  0  0  0  0  0
  -29.9385   -0.8194   29.8358 O   0  0  0  0  0  0  0  0  0  0  0  0
  -30.6393    0.2340   30.2522 C   0  0  0  0  0  0  0  0  0  0  0  0
  -31.5896    0.5939   29.5426 C   0  0  0  0  0  0  0  0  0  0  0  0
  -32.3726    1.7688   29.9178 C   0  0  0  0  0  0  0  0  0  0  0  0
  -32.0096    2.4414   31.1089 C   0  0  0  0  0  0  0  0  0  0  0  0
  -30.9404    1.9620   31.8347 C   0  0  0  0  0  0  0  0  0  0  0  0
  -30.2105    0.9050   31.4622 C   0  0  0  0  0  0  0  0  0  0  0  0
  -25.5579   -0.7100   27.4422 Cl  0  0  0  0  0  0  0  0  0  0  0  0
  -32.7808    3.5062   31.4871 N   0  0  0  0  0  0  0  0  0  0  0  0
  -33.7341    3.9650   31.1413 C   0  0  0  0  0  0  0  0  0  0  0  0
  -34.6051    3.2959   29.9214 Cl  0  0  0  0  0  0  0  0  0  0  0  0
  -34.3154    5.0864   31.7553 N   0  0  0  0  0  0  0  0  0  0  0  0
  -33.6488    5.7312   32.6661 C   0  0  0  0  0  0  0  0  0  0  0  0
  -33.4249    6.6733   33.0108 C   0  0  0  0  0  0  0  0  0  0  0  0
  -32.5726    7.2013   34.1434 C   0  0  0  0  0  0  0  0  0  0  0  0
  -31.8981    6.1625   34.7805 C   0  0  0  0  0  0  0  0  0  0  0  0
  -32.0394    4.8836   34.4048 C   0  0  0  0  0  0  0  0  0  0  0  0
  -32.8482    4.5905   33.3925 C   0  0  0  0  0  0  0  0  0  0  0  0
  2  7  1  0
  7  8  1  0
  3 14  1  0
 11 15  1  0
 15 16  2  3
 16 17  1  0
 16 18  1  0
 18 19  1  0
  8  9  2  0
  9 10  1  0
 10 11  2  0
 11 12  1  0
 12 13  2  0
 13  8  1  0
  1  2  2  0
  2  5  1  0
  5  6  2  0
  6  4  1  0
  4  3  2  0
  3  1  1  0
 19 20  2  0
 20 21  1  0
 21 22  2  0
 22 23  1  0
 23 24  2  0
 24 19  1  0
M  END

$$$$
