No_4569-gen_results/8p0m/2024-11-26-14-13-15/
     RDKit          3D

 30 31  0  0  0  0  0  0  0  0999 V2000
  -28.0162   -0.8135   28.8779 C   0  0  0  0  0  0  0  0  0  0  0  0
  -28.4690   -0.7850   29.8287 C   0  0  0  0  0  0  0  0  0  0  0  0
  -27.1356    0.2359   28.5352 C   0  0  0  0  0  0  0  0  0  0  0  0
  -26.8745    1.2825   29.3982 C   0  0  0  0  0  0  0  0  0  0  0  0
  -28.3613    0.1987   30.9244 C   0  0  0  0  0  0  0  0  0  0  0  0
  -27.5277    1.2234   30.6356 C   0  0  0  0  0  0  0  0  0  0  0  0
  -26.3879    0.2914   27.2334 C   0  0  0  0  0  0  0  0  0  0  0  0
  -25.7787   -0.5228   27.0339 F   0  0  0  0  0  0  0  0  0  0  0  0
  -25.6033    1.4597   27.1041 F   0  0  0  0  0  0  0  0  0  0  0  0
  -27.3759    0.5235   26.2013 F   0  0  0  0  0  0  0  0  0  0  0  0
  -29.3026   -2.1090   30.1683 C   0  0  0  0  0  0  0  0  0  0  0  0
  -28.8756   -3.2315   30.3546 O   0  0  0  0  0  0  0  0  0  0  0  0
  -30.5084   -1.9072   30.5162 O   0  0  0  0  0  0  0  0  0  0  0  0
  -27.3077    2.3301   31.6149 C   0  0  0  0  0  0  0  0  0  0  0  0
  -26.4790    3.0141   31.6013 C   0  0  0  0  0  0  0  0  0  0  0  0
  -26.1803    4.1809   32.5576 C   0  0  0  0  0  0  0  0  0  0  0  0
  -27.0730    4.3327   33.5716 C   0  0  0  0  0  0  0  0  0  0  0  0
  -28.1629    3.4612   33.5736 C   0  0  0  0  0  0  0  0  0  0  0  0
  -28.3254    2.4717   32.6612 C   0  0  0  0  0  0  0  0  0  0  0  0
  -24.9584    5.0116   32.4508 C   0  0  0  0  0  0  0  0  0  0  0  0
  -23.8215    4.4880   32.6441 N   0  0  0  0  0  0  0  0  0  0  0  0
  -25.1231    6.2038   32.1171 O   0  0  0  0  0  0  0  0  0  0  0  0
  -29.1503    3.6053   34.7244 C   0  0  0  0  0  0  0  0  0  0  0  0
  -28.9621    4.4675   35.4668 O   0  0  0  0  0  0  0  0  0  0  0  0
  -30.0946    2.7924   34.7107 O   0  0  0  0  0  0  0  0  0  0  0  0
  -31.3979   -2.9148   30.4651 C   0  0  0  0  0  0  0  0  0  0  0  0
  -32.7304   -2.6182   30.5585 C   0  0  0  0  0  0  0  0  0  0  0  0
  -33.5553   -3.4529   30.6230 O   0  0  0  0  0  0  0  0  0  0  0  0
  -33.0626   -1.4398   31.0245 O   0  0  0  0  0  0  0  0  0  0  0  0
  -31.0720   -4.0418   30.1397 O   0  0  0  0  0  0  0  0  0  0  0  0
  3  7  1  0
  7  8  1  0
  7  9  1  0
  7 10  1  0
  2 11  1  0
 11 12  2  0
 11 13  1  0
  6 14  1  0
 16 20  1  0
 20 21  1  0
 20 22  2  0
 18 23  1  0
 23 24  2  0
 23 25  1  0
 13 26  1  0
 26 27  1  0
 27 28  1  0
 27 29  2  0
 26 30  2  0
 14 15  2  0
 15 16  1  0
 16 17  2  0
 17 18  1  0
 18 19  2  0
 19 14  1  0
  1  2  2  0
  2  5  1  0
  5  6  2  0
  6  4  1  0
  4  3  2  0
  3  1  1  0
M  END

$$$$
