No_4337-gen_results/8p0m/2024-11-26-14-13-15/
     RDKit          3D

 27 30  0  0  0  0  0  0  0  0999 V2000
  -28.0162   -0.8135   28.8779 C   0  0  0  0  0  0  0  0  0  0  0  0
  -28.4690   -0.7850   29.8287 C   0  0  0  0  0  0  0  0  0  0  0  0
  -28.1960    0.3478   28.0550 C   0  0  0  0  0  0  0  0  0  0  0  0
  -29.0191    1.3501   28.3782 C   0  0  0  0  0  0  0  0  0  0  0  0
  -29.6249    1.2683   29.6012 C   0  0  0  0  0  0  0  0  0  0  0  0
  -29.3791    0.1469   30.3923 C   0  0  0  0  0  0  0  0  0  0  0  0
  -27.4551    0.3822   26.7102 C   0  0  0  0  0  0  0  0  0  0  0  0
  -26.0156    0.4242   26.8243 C   0  0  0  0  0  0  0  0  0  0  0  0
  -25.3311   -0.0592   27.8790 C   0  0  0  0  0  0  0  0  0  0  0  0
  -23.9173    0.0521   27.9533 C   0  0  0  0  0  0  0  0  0  0  0  0
  -23.1763   -0.4528   29.0959 C   0  0  0  0  0  0  0  0  0  0  0  0
  -21.8499   -0.0772   29.2700 C   0  0  0  0  0  0  0  0  0  0  0  0
  -21.2504    0.7996   28.3340 C   0  0  0  0  0  0  0  0  0  0  0  0
  -22.0346    1.5098   27.3907 C   0  0  0  0  0  0  0  0  0  0  0  0
  -23.3131    1.1768   27.2749 C   0  0  0  0  0  0  0  0  0  0  0  0
  -25.3552    1.2367   25.8412 C   0  0  0  0  0  0  0  0  0  0  0  0
  -23.9709    1.6411   25.9896 C   0  0  0  0  0  0  0  0  0  0  0  0
  -29.2504    2.4695   27.5276 C   0  0  0  0  0  0  0  0  0  0  0  0
  -28.4079    3.5246   27.5946 C   0  0  0  0  0  0  0  0  0  0  0  0
  -30.2730    2.3673   26.5612 C   0  0  0  0  0  0  0  0  0  0  0  0
  -27.5297    3.8166   28.4891 C   0  0  0  0  0  0  0  0  0  0  0  0
  -26.5167    4.7938   28.3736 C   0  0  0  0  0  0  0  0  0  0  0  0
  -26.5264    5.5594   27.2366 C   0  0  0  0  0  0  0  0  0  0  0  0
  -29.0270    4.8114   27.1498 C   0  0  0  0  0  0  0  0  0  0  0  0
  -27.9370    5.9038   26.8827 C   0  0  0  0  0  0  0  0  0  0  0  0
  -30.7271    1.2869   26.4447 F   0  0  0  0  0  0  0  0  0  0  0  0
  -29.9477    2.9604   25.3118 N   0  0  0  0  0  0  0  0  0  0  0  0
  3  7  1  0
  7  8  1  0
  4 18  1  0
 18 19  1  0
 18 20  1  0
 20 26  1  0
 20 27  1  0
  8  9  2  0
  9 10  1  0
 15 17  1  0
 17 16  2  0
 16  8  1  0
  1  2  2  0
  2  6  1  0
  6  5  2  0
  5  4  1  0
  4  3  2  0
  3  1  1  0
 10 11  2  0
 11 12  1  0
 12 13  2  0
 13 14  1  0
 14 15  2  0
 15 10  1  0
 19 21  2  0
 21 22  1  0
 22 23  2  0
 23 25  1  0
 25 24  2  0
 24 19  1  0
M  END

$$$$
