No_4978-gen_results/8p0m/2024-11-26-14-13-15/
     RDKit          3D

  9  9  0  0  0  0  0  0  0  0999 V2000
  -28.1229   -1.3353   28.4874 O   0  0  0  0  0  0  0  0  0  0  0  0
  -27.0637   -0.8242   28.8687 C   0  0  0  0  0  0  0  0  0  0  0  0
  -26.4017   -0.0623   28.6224 C   0  0  0  0  0  0  0  0  0  0  0  0
  -26.2652   -1.8674   29.7609 N   0  0  0  0  0  0  0  0  0  0  0  0
  -25.0436    0.3924   29.0662 C   0  0  0  0  0  0  0  0  0  0  0  0
  -24.2642    1.5358   28.7186 C   0  0  0  0  0  0  0  0  0  0  0  0
  -25.0148   -1.6871   30.2265 C   0  0  0  0  0  0  0  0  0  0  0  0
  -24.3245   -0.5767   29.9226 C   0  0  0  0  0  0  0  0  0  0  0  0
  -24.8990    2.6832   28.4319 C   0  0  0  0  0  0  0  0  0  0  0  0
  1  2  2  0
  2  3  1  0
  2  4  1  0
  3  5  1  0
  5  6  2  3
  4  7  1  0
  5  8  1  0
  7  8  1  0
  6  9  1  0
M  END

$$$$
