No_4108-gen_results/8p0m/2024-11-26-14-13-15/
     RDKit          3D

 15 17  0  0  0  0  0  0  0  0999 V2000
  -28.0162   -0.8135   28.8779 C   0  0  0  0  0  0  0  0  0  0  0  0
  -28.4690   -0.7850   29.8287 C   0  0  0  0  0  0  0  0  0  0  0  0
  -28.1960    0.3478   28.0550 C   0  0  0  0  0  0  0  0  0  0  0  0
  -29.0191    1.3501   28.3782 C   0  0  0  0  0  0  0  0  0  0  0  0
  -29.6249    1.2683   29.6012 C   0  0  0  0  0  0  0  0  0  0  0  0
  -29.3821    0.1816   30.4004 C   0  0  0  0  0  0  0  0  0  0  0  0
  -27.4591    0.3787   26.7048 C   0  0  0  0  0  0  0  0  0  0  0  0
  -27.5985    0.6357   25.6182 C   0  0  0  0  0  0  0  0  0  0  0  0
  -29.0006    1.0333   25.3131 C   0  0  0  0  0  0  0  0  0  0  0  0
  -29.2925    1.1428   23.9131 C   0  0  0  0  0  0  0  0  0  0  0  0
  -30.2629    1.0779   23.6538 C   0  0  0  0  0  0  0  0  0  0  0  0
  -31.5047    1.2979   24.4005 C   0  0  0  0  0  0  0  0  0  0  0  0
  -31.2463    1.3335   25.7741 C   0  0  0  0  0  0  0  0  0  0  0  0
  -30.0082    1.0893   26.2305 C   0  0  0  0  0  0  0  0  0  0  0  0
  -29.7148    1.1516   27.5554 N   0  0  0  0  0  0  0  0  0  0  0  0
  3  7  1  0
  7  8  2  0
  8  9  1  0
 14 15  1  0
 15  4  1  0
  1  2  2  0
  2  6  1  0
  6  5  2  0
  5  4  1  0
  4  3  2  0
  3  1  1  0
  9 10  2  0
 10 11  1  0
 11 12  2  0
 12 13  1  0
 13 14  2  0
 14  9  1  0
M  END

$$$$
