No_4013-gen_results/8p0m/2024-11-26-14-13-15/
     RDKit          3D

 20 22  0  0  0  0  0  0  0  0999 V2000
  -28.0162   -0.8135   28.8779 C   0  0  0  0  0  0  0  0  0  0  0  0
  -27.0636   -0.1189   28.6079 C   0  0  0  0  0  0  0  0  0  0  0  0
  -26.9287    1.1713   29.0083 C   0  0  0  0  0  0  0  0  0  0  0  0
  -27.9560    1.7411   29.7840 C   0  0  0  0  0  0  0  0  0  0  0  0
  -29.0569   -0.3271   29.7466 C   0  0  0  0  0  0  0  0  0  0  0  0
  -28.9828    0.9722   30.1516 C   0  0  0  0  0  0  0  0  0  0  0  0
  -26.0345   -0.5985   27.8629 F   0  0  0  0  0  0  0  0  0  0  0  0
  -29.9695    1.2642   31.0297 F   0  0  0  0  0  0  0  0  0  0  0  0
  -25.7631    2.0285   28.5665 C   0  0  0  0  0  0  0  0  0  0  0  0
  -25.9348    3.1671   27.8369 C   0  0  0  0  0  0  0  0  0  0  0  0
  -24.7909    3.9432   27.4167 C   0  0  0  0  0  0  0  0  0  0  0  0
  -23.5435    3.2709   27.3238 C   0  0  0  0  0  0  0  0  0  0  0  0
  -23.4188    1.9975   27.8889 C   0  0  0  0  0  0  0  0  0  0  0  0
  -24.4799    1.3669   28.5664 C   0  0  0  0  0  0  0  0  0  0  0  0
  -22.0599    1.4508   27.8688 C   0  0  0  0  0  0  0  0  0  0  0  0
  -21.8531    0.2974   28.5796 N   0  0  0  0  0  0  0  0  0  0  0  0
  -21.1071    1.9587   27.3489 O   0  0  0  0  0  0  0  0  0  0  0  0
  -22.7950   -0.4327   29.3421 C   0  0  0  0  0  0  0  0  0  0  0  0
  -23.8594    0.0173   29.6116 C   0  0  0  0  0  0  0  0  0  0  0  0
  -20.5152   -0.3530   28.5346 C   0  0  0  0  0  0  0  0  0  0  0  0
  2  7  1  0
  6  8  1  0
  3  9  1  0
 13 15  1  0
 15 16  1  0
 15 17  2  0
 16 18  1  0
 14 19  1  0
 16 20  1  0
 19 18  1  0
  1  2  2  0
  2  3  1  0
  3  4  2  0
  4  6  1  0
  6  5  2  0
  5  1  1  0
  9 10  2  0
 10 11  1  0
 11 12  2  0
 12 13  1  0
 13 14  2  0
 14  9  1  0
M  END

$$$$
