No_493-gen_results/8p0m/2024-11-26-14-13-15/
     RDKit          3D

 33 36  0  0  0  0  0  0  0  0999 V2000
  -28.0162   -0.8135   28.8779 C   0  0  0  0  0  0  0  0  0  0  0  0
  -27.0636   -0.1189   28.6079 C   0  0  0  0  0  0  0  0  0  0  0  0
  -25.7902   -0.2340   29.1297 C   0  0  0  0  0  0  0  0  0  0  0  0
  -24.6170    0.5841   28.8317 C   0  0  0  0  0  0  0  0  0  0  0  0
  -23.3377    0.4296   29.4273 C   0  0  0  0  0  0  0  0  0  0  0  0
  -23.1597   -0.7541   30.1731 C   0  0  0  0  0  0  0  0  0  0  0  0
  -24.1777   -1.5618   30.4843 C   0  0  0  0  0  0  0  0  0  0  0  0
  -25.4257   -1.3812   29.9553 C   0  0  0  0  0  0  0  0  0  0  0  0
  -27.7796   -1.8558   29.9605 C   0  0  0  0  0  0  0  0  0  0  0  0
  -26.5415   -2.1836   30.3942 C   0  0  0  0  0  0  0  0  0  0  0  0
  -24.7489    1.7937   27.9760 C   0  0  0  0  0  0  0  0  0  0  0  0
  -25.0870    2.9282   28.5536 C   0  0  0  0  0  0  0  0  0  0  0  0
  -25.3145    4.0961   27.8313 C   0  0  0  0  0  0  0  0  0  0  0  0
  -23.9903    1.8982   26.7705 C   0  0  0  0  0  0  0  0  0  0  0  0
  -24.1334    2.9682   25.9253 C   0  0  0  0  0  0  0  0  0  0  0  0
  -24.6550    4.1641   26.4952 C   0  0  0  0  0  0  0  0  0  0  0  0
  -25.7507    3.0139   29.9228 C   0  0  0  0  0  0  0  0  0  0  0  0
  -26.2224    4.1407   30.7765 Cl  0  0  0  0  0  0  0  0  0  0  0  0
  -26.3390    1.8113   30.3500 O   0  0  0  0  0  0  0  0  0  0  0  0
  -26.9348    2.0105   31.6742 C   0  0  0  0  0  0  0  0  0  0  0  0
  -26.7331    1.0221   32.2143 C   0  0  0  0  0  0  0  0  0  0  0  0
  -27.2083    0.9149   33.6846 C   0  0  0  0  0  0  0  0  0  0  0  0
  -28.0227    1.8803   34.1647 C   0  0  0  0  0  0  0  0  0  0  0  0
  -28.2924    2.9661   33.3674 C   0  0  0  0  0  0  0  0  0  0  0  0
  -27.7359    2.9863   32.1470 C   0  0  0  0  0  0  0  0  0  0  0  0
  -28.9561   -2.7370   30.3253 C   0  0  0  0  0  0  0  0  0  0  0  0
  -29.0930   -2.9555   31.5583 O   0  0  0  0  0  0  0  0  0  0  0  0
  -29.6110   -3.3294   29.4961 O   0  0  0  0  0  0  0  0  0  0  0  0
  -27.3855    4.2750   31.4488 C   0  0  0  0  0  0  0  0  0  0  0  0
  -28.6235    4.5592   30.5153 C   0  0  0  0  0  0  0  0  0  0  0  0
  -27.2830    5.4249   32.4618 C   0  0  0  0  0  0  0  0  0  0  0  0
  -27.5027    5.4005   31.1786 O   0  0  0  0  0  0  0  0  0  0  0  0
  -27.3470    6.5863   30.4817 C   0  0  0  0  0  0  0  0  0  0  0  0
  4 11  1  0
 12 17  1  0
 17 18  1  0
 17 19  1  0
 19 20  1  0
  9 26  1  0
 26 27  2  0
 26 28  1  0
 25 29  1  0
 29 30  1  0
 29 31  1  0
 29 32  1  0
 32 33  1  0
 20 21  2  0
 21 22  1  0
 22 23  2  0
 23 24  1  0
 24 25  2  0
 25 20  1  0
  1  2  2  0
  2  3  1  0
  8 10  1  0
 10  9  2  0
  9  1  1  0
  3  4  2  0
  4  5  1  0
  5  6  2  0
  6  7  1  0
  7  8  2  0
  8  3  1  0
 11 12  1  0
 12 13  2  0
 13 16  1  0
 16 15  2  0
 15 14  1  0
 14 11  2  0
M  END

$$$$
