No_4690-gen_results/8p0m/2024-11-26-14-13-15/
     RDKit          3D

 16 17  0  0  0  0  0  0  0  0999 V2000
  -28.0162   -0.8135   28.8779 C   0  0  0  0  0  0  0  0  0  0  0  0
  -27.0636   -0.1189   28.6079 C   0  0  0  0  0  0  0  0  0  0  0  0
  -26.8756    1.1325   28.9134 C   0  0  0  0  0  0  0  0  0  0  0  0
  -25.6883    1.9515   28.5672 C   0  0  0  0  0  0  0  0  0  0  0  0
  -24.6394    1.2834   27.8753 C   0  0  0  0  0  0  0  0  0  0  0  0
  -23.4556    1.9996   27.5653 C   0  0  0  0  0  0  0  0  0  0  0  0
  -25.8432   -0.7373   27.9210 C   0  0  0  0  0  0  0  0  0  0  0  0
  -24.6903   -0.0521   27.5832 C   0  0  0  0  0  0  0  0  0  0  0  0
  -22.7842    2.4779   28.2512 O   0  0  0  0  0  0  0  0  0  0  0  0
  -23.2005    2.0374   26.1913 O   0  0  0  0  0  0  0  0  0  0  0  0
  -29.2435   -0.2375   29.0814 N   0  0  0  0  0  0  0  0  0  0  0  0
  -29.6324    0.6838   28.4386 C   0  0  0  0  0  0  0  0  0  0  0  0
  -30.9984    1.0686   28.7119 C   0  0  0  0  0  0  0  0  0  0  0  0
  -30.1651   -0.8706   30.0205 C   0  0  0  0  0  0  0  0  0  0  0  0
  -31.3479    0.1088   29.6959 C   0  0  0  0  0  0  0  0  0  0  0  0
  -32.5078   -0.1154   30.2363 F   0  0  0  0  0  0  0  0  0  0  0  0
  5  6  1  0
  6  9  2  0
  6 10  1  0
  1 11  1  0
 11 12  1  0
 12 13  2  0
 11 14  1  0
 13 15  1  0
 14 15  1  0
 15 16  1  0
  1  2  1  0
  2  3  2  0
  3  4  1  0
  4  5  2  0
  5  8  1  0
  8  7  2  0
  7  2  1  0
M  END

$$$$
