No_4488-gen_results/8p0m/2024-11-26-14-13-15/
     RDKit          3D

 20 21  0  0  0  0  0  0  0  0999 V2000
  -28.0162   -0.8135   28.8779 C   0  0  0  0  0  0  0  0  0  0  0  0
  -28.4690   -0.7850   29.8287 C   0  0  0  0  0  0  0  0  0  0  0  0
  -26.5042   -0.7777   28.8766 C   0  0  0  0  0  0  0  0  0  0  0  0
  -25.6540   -0.6597   27.7191 C   0  0  0  0  0  0  0  0  0  0  0  0
  -27.9180   -0.9374   31.1824 C   0  0  0  0  0  0  0  0  0  0  0  0
  -26.5423   -0.9399   31.2606 C   0  0  0  0  0  0  0  0  0  0  0  0
  -25.7832   -0.8935   30.1201 C   0  0  0  0  0  0  0  0  0  0  0  0
  -25.2204    0.6866   27.3939 C   0  0  0  0  0  0  0  0  0  0  0  0
  -23.9014    0.8981   27.7598 C   0  0  0  0  0  0  0  0  0  0  0  0
  -23.1016    0.3129   28.6912 C   0  0  0  0  0  0  0  0  0  0  0  0
  -21.7291    0.5461   28.8593 C   0  0  0  0  0  0  0  0  0  0  0  0
  -21.1130    1.4709   28.0200 C   0  0  0  0  0  0  0  0  0  0  0  0
  -23.0981    1.7325   26.8045 C   0  0  0  0  0  0  0  0  0  0  0  0
  -21.7847    2.0262   26.9722 C   0  0  0  0  0  0  0  0  0  0  0  0
  -26.0123    1.5826   26.7550 C   0  0  0  0  0  0  0  0  0  0  0  0
  -26.5859    1.4567   25.6490 C   0  0  0  0  0  0  0  0  0  0  0  0
  -26.6011    0.2581   24.8493 C   0  0  0  0  0  0  0  0  0  0  0  0
  -27.5219   -0.0437   23.8576 C   0  0  0  0  0  0  0  0  0  0  0  0
  -28.6861    0.8612   23.8364 C   0  0  0  0  0  0  0  0  0  0  0  0
  -29.7953    0.6021   23.1273 C   0  0  0  0  0  0  0  0  0  0  0  0
  3  4  1  0
  4  8  1  0
  8  9  1  0
  8 15  1  0
 15 16  2  3
 16 17  1  0
 17 18  2  3
 18 19  1  0
 19 20  1  0
  1  2  2  0
  2  5  1  0
  5  6  2  0
  6  7  1  0
  7  3  2  0
  3  1  1  0
  9 10  2  0
 10 11  1  0
 11 12  2  0
 12 14  1  0
 14 13  2  0
 13  9  1  0
M  END

$$$$
