No_4892-gen_results/8p0m/2024-11-26-14-13-15/
     RDKit          3D

 20 21  0  0  0  0  0  0  0  0999 V2000
  -28.0162   -0.8135   28.8779 C   0  0  0  0  0  0  0  0  0  0  0  0
  -27.0636   -0.1189   28.6079 C   0  0  0  0  0  0  0  0  0  0  0  0
  -25.7647   -0.3897   29.0360 C   0  0  0  0  0  0  0  0  0  0  0  0
  -25.5296   -1.5302   29.9014 C   0  0  0  0  0  0  0  0  0  0  0  0
  -26.6888   -2.2893   30.1810 C   0  0  0  0  0  0  0  0  0  0  0  0
  -27.8727   -1.9508   29.7373 C   0  0  0  0  0  0  0  0  0  0  0  0
  -24.6274    0.3693   28.7540 N   0  0  0  0  0  0  0  0  0  0  0  0
  -24.5034    1.1490   27.7392 C   0  0  0  0  0  0  0  0  0  0  0  0
  -23.2309    1.7893   27.5097 C   0  0  0  0  0  0  0  0  0  0  0  0
  -22.9407    2.7235   26.5584 C   0  0  0  0  0  0  0  0  0  0  0  0
  -25.8195    1.6745   26.9089 Cl  0  0  0  0  0  0  0  0  0  0  0  0
  -22.1026    1.3027   28.3011 C   0  0  0  0  0  0  0  0  0  0  0  0
  -21.0414    1.2241   28.1785 N   0  0  0  0  0  0  0  0  0  0  0  0
  -22.5035    0.4287   29.3783 N   0  0  0  0  0  0  0  0  0  0  0  0
  -23.6495   -0.0741   29.5686 C   0  0  0  0  0  0  0  0  0  0  0  0
  -29.0522   -2.7911   30.1066 C   0  0  0  0  0  0  0  0  0  0  0  0
  -30.0964   -2.4851   29.8880 O   0  0  0  0  0  0  0  0  0  0  0  0
  -28.7002   -4.0861   30.4430 O   0  0  0  0  0  0  0  0  0  0  0  0
  -24.0233    3.5420   26.1918 C   0  0  0  0  0  0  0  0  0  0  0  0
  -24.9667    3.8970   27.0451 C   0  0  0  0  0  0  0  0  0  0  0  0
  3  7  1  0
  7  8  1  0
  9 10  1  0
  8 11  1  0
  9 12  1  0
 12 14  1  0
  7 15  1  0
 14 15  1  0
  6 16  1  0
 16 17  2  0
 16 18  1  0
 10 19  1  0
 19 20  1  0
 13 12  1  0
  8  9  1  0
  1  2  2  0
  2  3  1  0
  3  4  2  0
  4  5  1  0
  5  6  2  0
  6  1  1  0
M  END

$$$$
