No_4117-gen_results/8p0m/2024-11-26-14-13-15/
     RDKit          3D

 14 16  0  0  0  0  0  0  0  0999 V2000
  -28.0162   -0.8135   28.8779 C   0  0  0  0  0  0  0  0  0  0  0  0
  -28.4690   -0.7850   29.8287 C   0  0  0  0  0  0  0  0  0  0  0  0
  -27.1356    0.2359   28.5352 C   0  0  0  0  0  0  0  0  0  0  0  0
  -26.8745    1.2825   29.3982 C   0  0  0  0  0  0  0  0  0  0  0  0
  -25.9742    2.3797   29.0831 C   0  0  0  0  0  0  0  0  0  0  0  0
  -28.3915    0.1302   30.9603 C   0  0  0  0  0  0  0  0  0  0  0  0
  -27.5035    1.2424   30.6700 C   0  0  0  0  0  0  0  0  0  0  0  0
  -25.3582    2.9659   29.8272 C   0  0  0  0  0  0  0  0  0  0  0  0
  -25.9208    2.7194   27.6546 C   0  0  0  0  0  0  0  0  0  0  0  0
  -24.9873    3.7419   27.2573 C   0  0  0  0  0  0  0  0  0  0  0  0
  -24.4250    4.1431   29.5317 C   0  0  0  0  0  0  0  0  0  0  0  0
  -24.2916    4.4902   28.1636 C   0  0  0  0  0  0  0  0  0  0  0  0
  -26.4563    0.2070   27.1920 C   0  0  0  0  0  0  0  0  0  0  0  0
  -26.0801    1.5114   26.6253 C   0  0  0  0  0  0  0  0  0  0  0  0
  4  5  1  0
  3 13  1  0
  9 14  1  0
 13 14  1  0
  1  2  2  0
  2  6  1  0
  6  7  2  0
  7  4  1  0
  4  3  2  0
  3  1  1  0
  5  8  2  0
  8 11  1  0
 11 12  2  0
 12 10  1  0
 10  9  2  0
  9  5  1  0
M  END

$$$$
