No_4982-gen_results/8p0m/2024-11-26-14-13-15/
     RDKit          3D

 14 14  0  0  0  0  0  0  0  0999 V2000
  -28.0162   -0.8135   28.8779 C   0  0  0  0  0  0  0  0  0  0  0  0
  -28.4690   -0.7850   29.8287 C   0  0  0  0  0  0  0  0  0  0  0  0
  -26.5455   -0.8762   28.8500 C   0  0  0  0  0  0  0  0  0  0  0  0
  -25.8041   -1.0324   30.0571 C   0  0  0  0  0  0  0  0  0  0  0  0
  -27.9437   -0.9869   31.2075 C   0  0  0  0  0  0  0  0  0  0  0  0
  -26.5825   -1.0386   31.2231 C   0  0  0  0  0  0  0  0  0  0  0  0
  -29.9648   -0.7353   29.8902 N   0  0  0  0  0  0  0  0  0  0  0  0
  -30.7710   -1.5353   30.3549 C   0  0  0  0  0  0  0  0  0  0  0  0
  -30.4814   -2.5338   30.9481 C   0  0  0  0  0  0  0  0  0  0  0  0
  -30.7831   -3.5080   31.1168 C   0  0  0  0  0  0  0  0  0  0  0  0
  -30.2559   -4.6999   31.9011 C   0  0  0  0  0  0  0  0  0  0  0  0
  -30.6049   -5.8968   32.0085 C   0  0  0  0  0  0  0  0  0  0  0  0
  -31.7240   -6.2848   31.1769 C   0  0  0  0  0  0  0  0  0  0  0  0
  -32.3092   -5.3580   30.3767 C   0  0  0  0  0  0  0  0  0  0  0  0
  2  7  1  0
  7  8  1  0
  8  9  2  3
  9 10  1  0
 10 11  2  3
 11 12  1  0
 12 13  2  3
 13 14  1  0
  1  2  2  0
  2  5  1  0
  5  6  2  0
  6  4  1  0
  4  3  2  0
  3  1  1  0
M  END

$$$$
