No_4159-gen_results/8p0m/2024-11-26-14-13-15/
     RDKit          3D

 12 12  0  0  0  0  0  0  0  0999 V2000
  -28.0162   -0.8135   28.8779 C   0  0  0  0  0  0  0  0  0  0  0  0
  -27.0636   -0.1190   28.6079 C   0  0  0  0  0  0  0  0  0  0  0  0
  -26.8756    1.1325   28.9134 C   0  0  0  0  0  0  0  0  0  0  0  0
  -25.6883    1.9515   28.5672 C   0  0  0  0  0  0  0  0  0  0  0  0
  -24.6394    1.2834   27.8753 C   0  0  0  0  0  0  0  0  0  0  0  0
  -24.8068   -0.0513   27.6040 C   0  0  0  0  0  0  0  0  0  0  0  0
  -25.9019   -0.7670   27.9511 C   0  0  0  0  0  0  0  0  0  0  0  0
  -28.4359   -0.2771   30.1639 F   0  0  0  0  0  0  0  0  0  0  0  0
  -23.4397    1.9788   27.4642 C   0  0  0  0  0  0  0  0  0  0  0  0
  -22.2664    2.2796   27.8639 N   0  0  0  0  0  0  0  0  0  0  0  0
  -23.6320    2.5684   26.0363 C   0  0  0  0  0  0  0  0  0  0  0  0
  -27.8129   -2.1205   29.2788 F   0  0  0  0  0  0  0  0  0  0  0  0
  1  2  2  3
  2  3  1  0
  3  4  1  0
  4  5  1  0
  5  6  1  0
  2  7  1  0
  6  7  1  0
  1  8  1  0
  5  9  1  0
  9 10  1  0
  9 11  1  0
  1 12  1  0
M  END

$$$$
