No_4291-gen_results/8p0m/2024-11-26-14-13-15/
     RDKit          3D

 13 14  0  0  0  0  0  0  0  0999 V2000
  -28.0162   -0.8135   28.8779 C   0  0  0  0  0  0  0  0  0  0  0  0
  -27.0636   -0.1189   28.6079 C   0  0  0  0  0  0  0  0  0  0  0  0
  -25.7923   -0.4302   29.0761 C   0  0  0  0  0  0  0  0  0  0  0  0
  -25.5756   -1.5654   29.9363 C   0  0  0  0  0  0  0  0  0  0  0  0
  -26.7354   -2.3004   30.2173 C   0  0  0  0  0  0  0  0  0  0  0  0
  -27.9184   -1.9537   29.7629 C   0  0  0  0  0  0  0  0  0  0  0  0
  -27.3307    1.0101   27.8524 N   0  0  0  0  0  0  0  0  0  0  0  0
  -26.3102    1.7710   27.4869 C   0  0  0  0  0  0  0  0  0  0  0  0
  -25.9786    2.6993   27.0438 C   0  0  0  0  0  0  0  0  0  0  0  0
  -24.6727    3.3603   26.6994 C   0  0  0  0  0  0  0  0  0  0  0  0
  -23.5879    2.5821   26.9248 C   0  0  0  0  0  0  0  0  0  0  0  0
  -23.7777    1.3314   27.4739 C   0  0  0  0  0  0  0  0  0  0  0  0
  -24.9834    0.8888   27.7833 C   0  0  0  0  0  0  0  0  0  0  0  0
  2  7  1  0
  7  8  1  0
  1  2  2  0
  2  3  1  0
  3  4  2  0
  4  5  1  0
  5  6  2  0
  6  1  1  0
  8  9  2  0
  9 10  1  0
 10 11  2  0
 11 12  1  0
 12 13  2  0
 13  8  1  0
M  END

$$$$
