No_4522-gen_results/8p0m/2024-11-26-14-13-15/
     RDKit          3D

 19 19  0  0  0  0  0  0  0  0999 V2000
  -28.0162   -0.8135   28.8779 C   0  0  0  0  0  0  0  0  0  0  0  0
  -27.0636   -0.1189   28.6079 C   0  0  0  0  0  0  0  0  0  0  0  0
  -27.0010    0.6913   27.4910 C   0  0  0  0  0  0  0  0  0  0  0  0
  -25.8548    1.4825   27.0830 C   0  0  0  0  0  0  0  0  0  0  0  0
  -24.6901    1.4526   27.8807 C   0  0  0  0  0  0  0  0  0  0  0  0
  -24.7379    0.6010   29.0416 C   0  0  0  0  0  0  0  0  0  0  0  0
  -25.8234   -0.1688   29.3887 C   0  0  0  0  0  0  0  0  0  0  0  0
  -29.2455   -0.0678   29.1937 C   0  0  0  0  0  0  0  0  0  0  0  0
  -29.1656    0.7417   30.0140 F   0  0  0  0  0  0  0  0  0  0  0  0
  -30.1835   -0.2537   28.4004 F   0  0  0  0  0  0  0  0  0  0  0  0
  -23.5282    2.2243   27.5860 C   0  0  0  0  0  0  0  0  0  0  0  0
  -22.5868    2.2934   28.4964 N   0  0  0  0  0  0  0  0  0  0  0  0
  -23.3823    2.7012   26.4166 O   0  0  0  0  0  0  0  0  0  0  0  0
  -25.7175   -1.1234   30.7485 Cl  0  0  0  0  0  0  0  0  0  0  0  0
  -28.0320    0.7812   26.7026 O   0  0  0  0  0  0  0  0  0  0  0  0
  -27.8943    0.7305   25.3760 C   0  0  0  0  0  0  0  0  0  0  0  0
  -30.1191   -0.2472   29.7142 O   0  0  0  0  0  0  0  0  0  0  0  0
  -31.2760    0.4790   30.1397 F   0  0  0  0  0  0  0  0  0  0  0  0
  -29.0241    1.3450   24.6864 C   0  0  0  0  0  0  0  0  0  0  0  0
  1  2  1  0
  1  8  1  0
  8  9  1  0
  8 10  1  0
  5 11  1  0
 11 12  1  0
 11 13  2  0
  7 14  1  0
  3 15  1  0
 15 16  1  0
  8 17  1  0
 17 18  1  0
 16 19  1  0
  2  3  2  0
  3  4  1  0
  4  5  2  0
  5  6  1  0
  6  7  2  0
  7  2  1  0
M  END

$$$$
