No_405-gen_results/8p0m/2024-11-26-14-13-15/
     RDKit          3D

 19 19  0  0  0  0  0  0  0  0999 V2000
  -28.0162   -0.8135   28.8779 C   0  0  0  0  0  0  0  0  0  0  0  0
  -27.0636   -0.1189   28.6079 C   0  0  0  0  0  0  0  0  0  0  0  0
  -26.9287    1.1713   29.0083 C   0  0  0  0  0  0  0  0  0  0  0  0
  -25.7702    2.0341   28.6884 C   0  0  0  0  0  0  0  0  0  0  0  0
  -24.7141    1.4431   27.9188 C   0  0  0  0  0  0  0  0  0  0  0  0
  -24.8590    0.0783   27.5836 C   0  0  0  0  0  0  0  0  0  0  0  0
  -25.9647   -0.6606   27.9164 C   0  0  0  0  0  0  0  0  0  0  0  0
  -27.9820   -1.6112   30.1028 N   0  0  0  0  0  0  0  0  0  0  0  0
  -23.5351    2.1704   27.5550 C   0  0  0  0  0  0  0  0  0  0  0  0
  -22.4638    1.6493   27.0986 N   0  0  0  0  0  0  0  0  0  0  0  0
  -23.4384    3.3966   27.9238 O   0  0  0  0  0  0  0  0  0  0  0  0
  -29.2109   -0.5827   28.5099 O   0  0  0  0  0  0  0  0  0  0  0  0
  -29.0415   -2.4929   30.5740 C   0  0  0  0  0  0  0  0  0  0  0  0
  -26.6889   -1.8881   30.7753 C   0  0  0  0  0  0  0  0  0  0  0  0
  -29.4121   -2.1594   31.8728 C   0  0  0  0  0  0  0  0  0  0  0  0
  -30.0806   -0.9026   32.0398 C   0  0  0  0  0  0  0  0  0  0  0  0
  -30.0146   -0.4126   33.1013 N   0  0  0  0  0  0  0  0  0  0  0  0
  -29.2999    0.0875   33.7758 C   0  0  0  0  0  0  0  0  0  0  0  0
  -29.5590    0.9486   34.9160 C   0  0  0  0  0  0  0  0  0  0  0  0
  1  2  1  0
  1  8  1  0
  5  9  1  0
  9 10  2  0
  9 11  1  0
  1 12  2  0
  8 13  1  0
  8 14  1  0
 13 15  1  0
 15 16  1  0
 16 17  1  0
 17 18  1  0
 18 19  2  0
  2  3  2  0
  3  4  1  0
  4  5  2  0
  5  6  1  0
  6  7  2  0
  7  2  1  0
M  END

$$$$
