No_4076-gen_results/8p0m/2024-11-26-14-13-15/
     RDKit          3D

 35 38  0  0  0  0  0  0  0  0999 V2000
  -28.0162   -0.8135   28.8779 C   0  0  0  0  0  0  0  0  0  0  0  0
  -27.0636   -0.1189   28.6079 C   0  0  0  0  0  0  0  0  0  0  0  0
  -25.7647   -0.3897   29.0360 C   0  0  0  0  0  0  0  0  0  0  0  0
  -24.5516    0.4058   28.7646 C   0  0  0  0  0  0  0  0  0  0  0  0
  -24.6957    1.4480   27.7988 C   0  0  0  0  0  0  0  0  0  0  0  0
  -23.5821    2.2166   27.4626 C   0  0  0  0  0  0  0  0  0  0  0  0
  -22.3211    1.8240   27.9807 C   0  0  0  0  0  0  0  0  0  0  0  0
  -22.1777    0.8172   28.8883 C   0  0  0  0  0  0  0  0  0  0  0  0
  -23.3181    0.0418   29.2597 C   0  0  0  0  0  0  0  0  0  0  0  0
  -27.8970   -1.8952   29.8587 C   0  0  0  0  0  0  0  0  0  0  0  0
  -26.6530   -2.3395   30.2732 C   0  0  0  0  0  0  0  0  0  0  0  0
  -25.5330   -1.5566   29.9092 C   0  0  0  0  0  0  0  0  0  0  0  0
  -29.0621   -2.7222   30.2424 C   0  0  0  0  0  0  0  0  0  0  0  0
  -28.9743   -3.9297   30.2769 O   0  0  0  0  0  0  0  0  0  0  0  0
  -30.1306   -2.1612   30.6012 O   0  0  0  0  0  0  0  0  0  0  0  0
  -23.6573    3.1917   26.5751 O   0  0  0  0  0  0  0  0  0  0  0  0
  -31.3035   -2.8462   30.8382 C   0  0  0  0  0  0  0  0  0  0  0  0
  -32.5168   -2.1608   30.5361 C   0  0  0  0  0  0  0  0  0  0  0  0
  -32.4604   -0.8866   30.5375 N   0  0  0  0  0  0  0  0  0  0  0  0
  -32.4914   -0.2215   31.6250 C   0  0  0  0  0  0  0  0  0  0  0  0
  -32.1848    0.8387   31.9673 C   0  0  0  0  0  0  0  0  0  0  0  0
  -32.1276    1.4645   33.2894 C   0  0  0  0  0  0  0  0  0  0  0  0
  -32.5222    0.5986   34.3128 C   0  0  0  0  0  0  0  0  0  0  0  0
  -32.8335   -0.6839   34.0276 C   0  0  0  0  0  0  0  0  0  0  0  0
  -32.7527   -1.1646   32.7658 C   0  0  0  0  0  0  0  0  0  0  0  0
  -32.5445   -0.0798   29.3198 C   0  0  0  0  0  0  0  0  0  0  0  0
  -33.6480    0.0409   28.7527 C   0  0  0  0  0  0  0  0  0  0  0  0
  -33.7495    0.8202   27.6209 C   0  0  0  0  0  0  0  0  0  0  0  0
  -32.5978    1.4031   27.0609 C   0  0  0  0  0  0  0  0  0  0  0  0
  -31.3708    1.2278   27.6815 C   0  0  0  0  0  0  0  0  0  0  0  0
  -31.3165    0.5215   28.8599 C   0  0  0  0  0  0  0  0  0  0  0  0
  -30.1591    1.8815   27.1271 C   0  0  0  0  0  0  0  0  0  0  0  0
  -30.1914    2.8374   26.3819 O   0  0  0  0  0  0  0  0  0  0  0  0
  -29.0312    1.4839   27.5687 O   0  0  0  0  0  0  0  0  0  0  0  0
  -27.8998    2.0853   26.9129 C   0  0  0  0  0  0  0  0  0  0  0  0
  3  4  1  0
 10 13  1  0
 13 14  2  0
 13 15  1  0
  6 16  1  0
 15 17  1  0
 17 18  1  0
 18 19  1  0
 19 20  1  0
 19 26  1  0
 30 32  1  0
 32 33  2  0
 32 34  1  0
 34 35  1  0
 26 27  2  0
 27 28  1  0
 28 29  2  0
 29 30  1  0
 30 31  2  0
 31 26  1  0
  1  2  2  0
  2  3  1  0
  3 12  2  0
 12 11  1  0
 11 10  2  0
 10  1  1  0
 20 21  2  0
 21 22  1  0
 22 23  2  0
 23 24  1  0
 24 25  2  0
 25 20  1  0
  4  5  2  0
  5  6  1  0
  6  7  2  0
  7  8  1  0
  8  9  2  0
  9  4  1  0
M  END

$$$$
