No_4823-gen_results/8p0m/2024-11-26-14-13-15/
     RDKit          3D

 21 22  0  0  0  0  0  0  0  0999 V2000
  -28.0162   -0.8135   28.8779 C   0  0  0  0  0  0  0  0  0  0  0  0
  -27.0636   -0.1189   28.6079 C   0  0  0  0  0  0  0  0  0  0  0  0
  -25.7923   -0.4302   29.0761 C   0  0  0  0  0  0  0  0  0  0  0  0
  -24.5456    0.3494   28.8225 C   0  0  0  0  0  0  0  0  0  0  0  0
  -24.6586    1.4196   27.8878 C   0  0  0  0  0  0  0  0  0  0  0  0
  -23.5403    2.1791   27.5500 C   0  0  0  0  0  0  0  0  0  0  0  0
  -22.2925    1.7428   28.0473 C   0  0  0  0  0  0  0  0  0  0  0  0
  -22.1712    0.7079   28.9284 C   0  0  0  0  0  0  0  0  0  0  0  0
  -23.3345   -0.0624   29.3081 C   0  0  0  0  0  0  0  0  0  0  0  0
  -27.9466   -1.8823   29.8708 C   0  0  0  0  0  0  0  0  0  0  0  0
  -26.7159   -2.3287   30.3060 C   0  0  0  0  0  0  0  0  0  0  0  0
  -25.5921   -1.5643   29.9672 C   0  0  0  0  0  0  0  0  0  0  0  0
  -29.0314   -2.7998   30.3259 C   0  0  0  0  0  0  0  0  0  0  0  0
  -29.5379   -2.6329   31.2697 N   0  0  0  0  0  0  0  0  0  0  0  0
  -29.6162   -1.5263   31.9381 C   0  0  0  0  0  0  0  0  0  0  0  0
  -29.7686   -0.4349   31.4537 C   0  0  0  0  0  0  0  0  0  0  0  0
  -30.0189    0.5817   31.9276 C   0  0  0  0  0  0  0  0  0  0  0  0
  -30.1071    1.9392   31.2829 C   0  0  0  0  0  0  0  0  0  0  0  0
  -30.1899    3.1548   31.8830 C   0  0  0  0  0  0  0  0  0  0  0  0
  -30.3680    3.1518   33.2924 C   0  0  0  0  0  0  0  0  0  0  0  0
  -30.3155    2.0070   33.9981 C   0  0  0  0  0  0  0  0  0  0  0  0
  3  4  1  0
 10 13  1  0
 13 14  1  0
 14 15  1  0
 15 16  2  3
 16 17  1  0
 17 18  2  3
 18 19  1  0
 19 20  2  3
 20 21  1  0
  1  2  2  0
  2  3  1  0
  3 12  2  0
 12 11  1  0
 11 10  2  0
 10  1  1  0
  4  5  2  0
  5  6  1  0
  6  7  2  0
  7  8  1  0
  8  9  2  0
  9  4  1  0
M  END

$$$$
