No_4285-gen_results/8p0m/2024-11-26-14-13-15/
     RDKit          3D

 23 25  0  0  0  0  0  0  0  0999 V2000
  -28.0162   -0.8135   28.8779 C   0  0  0  0  0  0  0  0  0  0  0  0
  -28.4690   -0.7850   29.8287 C   0  0  0  0  0  0  0  0  0  0  0  0
  -26.5455   -0.8762   28.8500 C   0  0  0  0  0  0  0  0  0  0  0  0
  -25.8041   -1.0324   30.0571 C   0  0  0  0  0  0  0  0  0  0  0  0
  -27.9437   -0.9869   31.2075 C   0  0  0  0  0  0  0  0  0  0  0  0
  -26.5825   -1.0386   31.2231 C   0  0  0  0  0  0  0  0  0  0  0  0
  -24.3810   -1.1082   30.0855 C   0  0  0  0  0  0  0  0  0  0  0  0
  -23.7590   -1.1322   30.8961 C   0  0  0  0  0  0  0  0  0  0  0  0
  -22.2646   -1.0127   30.9454 C   0  0  0  0  0  0  0  0  0  0  0  0
  -21.7399   -0.8181   29.7258 C   0  0  0  0  0  0  0  0  0  0  0  0
  -23.8113   -1.0939   28.6965 C   0  0  0  0  0  0  0  0  0  0  0  0
  -22.4555   -0.8362   28.5918 C   0  0  0  0  0  0  0  0  0  0  0  0
  -30.0813   -0.6681   29.8766 C   0  0  0  0  0  0  0  0  0  0  0  0
  -30.7696   -1.4640   30.3440 O   0  0  0  0  0  0  0  0  0  0  0  0
  -30.5431    0.3626   29.2713 O   0  0  0  0  0  0  0  0  0  0  0  0
  -31.6091    0.8260   29.2210 C   0  0  0  0  0  0  0  0  0  0  0  0
  -32.0944    1.0166   28.0781 C   0  0  0  0  0  0  0  0  0  0  0  0
  -31.2861    1.5163   27.0797 C   0  0  0  0  0  0  0  0  0  0  0  0
  -30.7133    2.6855   27.2825 C   0  0  0  0  0  0  0  0  0  0  0  0
  -29.6111    3.0654   27.2109 C   0  0  0  0  0  0  0  0  0  0  0  0
  -28.5373    2.1401   26.8048 C   0  0  0  0  0  0  0  0  0  0  0  0
  -29.0114    1.0517   26.0078 C   0  0  0  0  0  0  0  0  0  0  0  0
  -30.3476    0.6277   26.4761 C   0  0  0  0  0  0  0  0  0  0  0  0
  4  7  1  0
  2 13  1  0
 13 14  2  0
 13 15  1  0
 15 16  1  0
 16 17  1  0
 17 18  1  0
  7  8  2  0
  8  9  1  0
  9 10  2  0
 10 12  1  0
 12 11  2  0
 11  7  1  0
 18 19  2  0
 19 20  1  0
 20 21  2  0
 21 22  1  0
 22 23  2  0
 23 18  1  0
  1  2  2  0
  2  5  1  0
  5  6  2  0
  6  4  1  0
  4  3  2  0
  3  1  1  0
M  END

$$$$
