No_4031-gen_results/8p0m/2024-11-26-14-13-15/
     RDKit          3D

 16 17  0  0  0  0  0  0  0  0999 V2000
  -28.0162   -0.8135   28.8779 C   0  0  0  0  0  0  0  0  0  0  0  0
  -27.0636   -0.1190   28.6079 C   0  0  0  0  0  0  0  0  0  0  0  0
  -26.9716    0.7139   27.5060 C   0  0  0  0  0  0  0  0  0  0  0  0
  -28.1053    0.7744   26.6421 C   0  0  0  0  0  0  0  0  0  0  0  0
  -29.2008    0.1044   27.0527 C   0  0  0  0  0  0  0  0  0  0  0  0
  -28.0219   -1.5899   30.0879 C   0  0  0  0  0  0  0  0  0  0  0  0
  -29.1640   -0.6394   28.1484 C   0  0  0  0  0  0  0  0  0  0  0  0
  -27.0234   -2.3569   30.3744 N   0  0  0  0  0  0  0  0  0  0  0  0
  -29.3283   -2.4721   30.1942 C   0  0  0  0  0  0  0  0  0  0  0  0
  -28.0710   -0.5757   31.3924 C   0  0  0  0  0  0  0  0  0  0  0  0
  -29.4971   -2.9665   31.4334 N   0  0  0  0  0  0  0  0  0  0  0  0
  -29.5900   -2.4486   32.2936 C   0  0  0  0  0  0  0  0  0  0  0  0
  -27.1809    0.4065   31.4863 C   0  0  0  0  0  0  0  0  0  0  0  0
  -29.0635   -1.0258   32.3762 C   0  0  0  0  0  0  0  0  0  0  0  0
  -25.9063    0.2017   31.9869 C   0  0  0  0  0  0  0  0  0  0  0  0
  -24.9765    1.2070   32.1437 C   0  0  0  0  0  0  0  0  0  0  0  0
  1  6  1  0
  6  8  1  0
  6  9  1  0
  6 10  1  0
  9 11  1  0
 10 13  1  0
 10 14  1  0
 12 14  1  0
 13 15  2  3
 15 16  1  0
 11 12  1  0
  1  2  2  0
  2  3  1  0
  3  4  2  0
  4  5  1  0
  5  7  2  0
  7  1  1  0
M  END

$$$$
