No_4684-gen_results/8p0m/2024-11-26-14-13-15/
     RDKit          3D

 21 24  0  0  0  0  0  0  0  0999 V2000
  -28.0162   -0.8135   28.8779 C   0  0  0  0  0  0  0  0  0  0  0  0
  -27.0636   -0.1189   28.6079 C   0  0  0  0  0  0  0  0  0  0  0  0
  -25.7923   -0.4302   29.0761 C   0  0  0  0  0  0  0  0  0  0  0  0
  -24.5456    0.3494   28.8225 C   0  0  0  0  0  0  0  0  0  0  0  0
  -24.6586    1.4196   27.8878 C   0  0  0  0  0  0  0  0  0  0  0  0
  -25.9471    1.6811   27.3792 C   0  0  0  0  0  0  0  0  0  0  0  0
  -27.0439    0.9739   27.6871 C   0  0  0  0  0  0  0  0  0  0  0  0
  -29.2364   -0.0611   29.2668 C   0  0  0  0  0  0  0  0  0  0  0  0
  -29.8066   -0.3562   30.3832 C   0  0  0  0  0  0  0  0  0  0  0  0
  -29.6377   -1.6892   30.9871 C   0  0  0  0  0  0  0  0  0  0  0  0
  -28.5402   -2.4407   30.5652 C   0  0  0  0  0  0  0  0  0  0  0  0
  -27.7176   -1.8902   29.8136 C   0  0  0  0  0  0  0  0  0  0  0  0
  -26.3178   -2.0985   29.6846 N   0  0  0  0  0  0  0  0  0  0  0  0
  -25.3729   -2.2055   30.8349 C   0  0  0  0  0  0  0  0  0  0  0  0
  -23.2297   -0.0914   29.3485 C   0  0  0  0  0  0  0  0  0  0  0  0
  -22.0931    0.2480   28.7888 C   0  0  0  0  0  0  0  0  0  0  0  0
  -22.0852    1.1741   27.7057 C   0  0  0  0  0  0  0  0  0  0  0  0
  -23.4132    1.9624   27.3424 C   0  0  0  0  0  0  0  0  0  0  0  0
  -25.9987    2.8935   26.4805 C   0  0  0  0  0  0  0  0  0  0  0  0
  -26.6753    2.7024   25.5648 O   0  0  0  0  0  0  0  0  0  0  0  0
  -25.4181    4.0044   26.8626 O   0  0  0  0  0  0  0  0  0  0  0  0
  1  2  1  0
  3 13  1  0
 12 13  1  0
 13 14  1  0
  6 19  1  0
 19 20  2  0
 19 21  1  0
  2  3  1  0
  3  4  2  0
  5  6  2  0
  6  7  1  0
  7  2  2  0
  1  8  2  0
  8  9  1  0
  9 10  2  0
 10 11  1  0
 11 12  2  0
 12  1  1  0
  4  5  1  0
  5 18  1  0
 18 17  2  0
 17 16  1  0
 16 15  2  0
 15  4  1  0
M  END

$$$$
