No_4256-gen_results/8p0m/2024-11-26-14-13-15/
     RDKit          3D

 35 38  0  0  0  0  0  0  0  0999 V2000
  -28.0162   -0.8135   28.8779 C   0  0  0  0  0  0  0  0  0  0  0  0
  -28.4690   -0.7850   29.8287 C   0  0  0  0  0  0  0  0  0  0  0  0
  -28.1816    0.4277   28.1134 C   0  0  0  0  0  0  0  0  0  0  0  0
  -27.4498    0.6435   26.8500 C   0  0  0  0  0  0  0  0  0  0  0  0
  -26.4529    0.9939   26.6681 C   0  0  0  0  0  0  0  0  0  0  0  0
  -25.1812    0.8624   26.8165 C   0  0  0  0  0  0  0  0  0  0  0  0
  -24.2036    1.0464   27.4866 C   0  0  0  0  0  0  0  0  0  0  0  0
  -29.4367    0.0780   30.4436 C   0  0  0  0  0  0  0  0  0  0  0  0
  -23.2068    1.1720   27.8982 C   0  0  0  0  0  0  0  0  0  0  0  0
  -29.6775    1.1885   29.7341 C   0  0  0  0  0  0  0  0  0  0  0  0
  -29.0585    1.3972   28.5508 C   0  0  0  0  0  0  0  0  0  0  0  0
  -21.9757    1.0627   28.5527 C   0  0  0  0  0  0  0  0  0  0  0  0
  -28.3630    0.1968   25.7087 C   0  0  0  0  0  0  0  0  0  0  0  0
  -28.3368   -0.8662   25.3353 F   0  0  0  0  0  0  0  0  0  0  0  0
  -29.1975    1.2440   25.1420 C   0  0  0  0  0  0  0  0  0  0  0  0
  -20.9788    0.5646   29.3288 C   0  0  0  0  0  0  0  0  0  0  0  0
  -29.3253    2.3320   25.4775 C   0  0  0  0  0  0  0  0  0  0  0  0
  -30.0404    3.3023   25.3311 C   0  0  0  0  0  0  0  0  0  0  0  0
  -29.9761    4.7436   25.7191 C   0  0  0  0  0  0  0  0  0  0  0  0
  -28.8842    4.9872   26.5965 C   0  0  0  0  0  0  0  0  0  0  0  0
  -27.8958    4.1206   26.8209 C   0  0  0  0  0  0  0  0  0  0  0  0
  -28.0292    2.8363   26.3534 C   0  0  0  0  0  0  0  0  0  0  0  0
  -26.8735    2.1409   26.6581 C   0  0  0  0  0  0  0  0  0  0  0  0
  -25.5988    2.8137   26.9397 C   0  0  0  0  0  0  0  0  0  0  0  0
  -30.6693    2.2460   30.2597 C   0  0  0  0  0  0  0  0  0  0  0  0
  -30.3905    3.0563   31.1047 N   0  0  0  0  0  0  0  0  0  0  0  0
  -32.1578    2.3234   29.4745 P   0  0  0  0  0  0  0  0  0  0  0  0
  -32.2872    3.3977   28.9004 O   0  0  0  0  0  0  0  0  0  0  0  0
  -33.1051    2.2002   30.6918 O   0  0  0  0  0  0  0  0  0  0  0  0
  -32.2774    1.0807   28.6366 O   0  0  0  0  0  0  0  0  0  0  0  0
  -24.7212    2.3248   27.8662 N   0  0  0  0  0  0  0  0  0  0  0  0
  -24.7234    0.0844   25.3848 C   0  0  0  0  0  0  0  0  0  0  0  0
  -29.5555    3.7789   31.5081 C   0  0  0  0  0  0  0  0  0  0  0  0
  -28.4022    3.7044   31.0467 O   0  0  0  0  0  0  0  0  0  0  0  0
  -29.7340    4.8589   32.5266 C   0  0  0  0  0  0  0  0  0  0  0  0
  3  4  1  0
  7  9  1  0
  9 12  3  0
  4 13  1  0
 13 14  1  0
 13 15  1  0
 12 16  1  0
 22 23  1  0
 10 25  1  0
 25 26  1  0
 25 27  1  0
 27 28  2  0
 27 29  1  0
 27 30  1  0
  6 32  1  0
 26 33  1  0
 33 34  2  0
 33 35  1  0
  4  5  1  0
 15 17  1  0
 17 18  2  0
 18 19  1  0
 19 20  2  0
 20 21  1  0
 21 22  2  0
 22 17  1  0
  5  6  2  0
  6  7  1  0
  7 31  2  0
 31 24  1  0
 24 23  2  0
 23  5  1  0
  1  2  2  0
  2  8  1  0
  8 10  2  0
 10 11  1  0
 11  3  2  0
  3  1  1  0
M  END

$$$$
