No_4770-gen_results/8p0m/2024-11-26-14-13-15/
     RDKit          3D

 26 28  0  0  0  0  0  0  0  0999 V2000
  -28.0162   -0.8135   28.8779 C   0  0  0  0  0  0  0  0  0  0  0  0
  -28.4690   -0.7850   29.8287 C   0  0  0  0  0  0  0  0  0  0  0  0
  -26.5042   -0.7777   28.8766 C   0  0  0  0  0  0  0  0  0  0  0  0
  -25.8103   -0.8531   30.1028 C   0  0  0  0  0  0  0  0  0  0  0  0
  -30.0136   -0.8410   29.8508 C   0  0  0  0  0  0  0  0  0  0  0  0
  -26.5670   -0.8850   31.2517 C   0  0  0  0  0  0  0  0  0  0  0  0
  -27.9411   -0.9069   31.1850 C   0  0  0  0  0  0  0  0  0  0  0  0
  -30.6563   -1.6921   30.1809 O   0  0  0  0  0  0  0  0  0  0  0  0
  -30.5701    0.1290   28.9124 N   0  0  0  0  0  0  0  0  0  0  0  0
  -31.9489    0.0902   28.6444 C   0  0  0  0  0  0  0  0  0  0  0  0
  -29.8009    0.4523   27.7981 C   0  0  0  0  0  0  0  0  0  0  0  0
  -28.3755   -0.0176   27.7476 N   0  0  0  0  0  0  0  0  0  0  0  0
  -30.1192    0.8972   26.7043 O   0  0  0  0  0  0  0  0  0  0  0  0
  -27.5641    0.4173   26.6940 C   0  0  0  0  0  0  0  0  0  0  0  0
  -27.3674    1.5865   26.4563 C   0  0  0  0  0  0  0  0  0  0  0  0
  -26.1890    2.3271   27.0666 C   0  0  0  0  0  0  0  0  0  0  0  0
  -25.9904    3.6787   26.8528 C   0  0  0  0  0  0  0  0  0  0  0  0
  -24.7738    4.2162   27.2915 C   0  0  0  0  0  0  0  0  0  0  0  0
  -23.8211    3.4626   27.8238 C   0  0  0  0  0  0  0  0  0  0  0  0
  -24.9418    1.8359   27.5971 C   0  0  0  0  0  0  0  0  0  0  0  0
  -23.6925    2.2847   28.0533 C   0  0  0  0  0  0  0  0  0  0  0  0
  -22.5369    1.4148   28.7196 Cl  0  0  0  0  0  0  0  0  0  0  0  0
  -24.3538   -0.9967   30.1611 C   0  0  0  0  0  0  0  0  0  0  0  0
  -23.6912   -1.8321   29.1846 C   0  0  0  0  0  0  0  0  0  0  0  0
  -23.5233   -0.8133   31.1754 C   0  0  0  0  0  0  0  0  0  0  0  0
  -23.9873   -0.0615   32.2590 N   0  0  0  0  0  0  0  0  0  0  0  0
  2  5  1  0
  5  8  2  0
  5  9  1  0
  9 10  1  0
  9 11  1  0
  1 12  1  0
 11 12  1  0
 11 13  2  0
 12 14  1  0
 14 15  2  3
 15 16  1  0
 21 22  1  0
  4 23  1  0
 23 24  1  0
 23 25  1  0
 25 26  1  0
 16 17  2  0
 17 18  1  0
 18 19  2  0
 19 21  1  0
 21 20  2  0
 20 16  1  0
  1  2  2  0
  2  7  1  0
  7  6  2  0
  6  4  1  0
  4  3  2  0
  3  1  1  0
M  END

$$$$
