No_4186-gen_results/8p0m/2024-11-26-14-13-15/
     RDKit          3D

 35 38  0  0  0  0  0  0  0  0999 V2000
  -28.1229   -1.3353   28.4874 O   0  0  0  0  0  0  0  0  0  0  0  0
  -28.5208   -0.4363   29.0779 C   0  0  0  0  0  0  0  0  0  0  0  0
  -28.5894    0.5916   28.9464 C   0  0  0  0  0  0  0  0  0  0  0  0
  -28.7865   -0.8872   30.4874 N   0  0  0  0  0  0  0  0  0  0  0  0
  -27.7841    1.2822   27.9869 C   0  0  0  0  0  0  0  0  0  0  0  0
  -26.4272    1.0397   27.9945 C   0  0  0  0  0  0  0  0  0  0  0  0
  -25.6366    1.3015   28.8292 C   0  0  0  0  0  0  0  0  0  0  0  0
  -25.6662    2.3617   29.5902 C   0  0  0  0  0  0  0  0  0  0  0  0
  -24.5873    2.6534   30.5760 C   0  0  0  0  0  0  0  0  0  0  0  0
  -23.5939    1.7402   30.6987 C   0  0  0  0  0  0  0  0  0  0  0  0
  -23.4228    0.6437   29.9517 C   0  0  0  0  0  0  0  0  0  0  0  0
  -24.4444    0.3581   28.9889 C   0  0  0  0  0  0  0  0  0  0  0  0
  -29.2649   -0.0693   31.5578 C   0  0  0  0  0  0  0  0  0  0  0  0
  -26.0406    0.4439   26.6350 C   0  0  0  0  0  0  0  0  0  0  0  0
  -28.5676   -2.3263   30.9143 C   0  0  0  0  0  0  0  0  0  0  0  0
  -26.8450    0.5903   25.5091 C   0  0  0  0  0  0  0  0  0  0  0  0
  -28.3935    2.2438   27.1816 C   0  0  0  0  0  0  0  0  0  0  0  0
  -27.9797    1.4721   25.7067 C   0  0  0  0  0  0  0  0  0  0  0  0
  -24.6938    3.7456   31.3972 O   0  0  0  0  0  0  0  0  0  0  0  0
  -25.1527    3.7343   32.6340 C   0  0  0  0  0  0  0  0  0  0  0  0
  -26.3350    4.5853   32.7265 C   0  0  0  0  0  0  0  0  0  0  0  0
  -27.1645    4.2559   33.6562 C   0  0  0  0  0  0  0  0  0  0  0  0
  -28.4426    4.8923   33.7734 C   0  0  0  0  0  0  0  0  0  0  0  0
  -28.7121    5.9753   32.9147 C   0  0  0  0  0  0  0  0  0  0  0  0
  -27.7889    6.3094   31.9509 C   0  0  0  0  0  0  0  0  0  0  0  0
  -26.5968    5.6238   31.8566 C   0  0  0  0  0  0  0  0  0  0  0  0
  -28.0148    7.4151   30.9978 C   0  0  0  0  0  0  0  0  0  0  0  0
  -27.6931    7.4427   29.9692 O   0  0  0  0  0  0  0  0  0  0  0  0
  -28.3276    8.5926   31.6450 O   0  0  0  0  0  0  0  0  0  0  0  0
  -30.4837    0.4459   31.4733 C   0  0  0  0  0  0  0  0  0  0  0  0
  -30.8053    1.4692   32.3762 C   0  0  0  0  0  0  0  0  0  0  0  0
  -30.0752    1.5863   33.5762 C   0  0  0  0  0  0  0  0  0  0  0  0
  -28.8395    0.9419   33.6663 C   0  0  0  0  0  0  0  0  0  0  0  0
  -28.3783    0.1438   32.6734 C   0  0  0  0  0  0  0  0  0  0  0  0
  -27.4348   -2.7594   30.6046 C   0  0  0  0  0  0  0  0  0  0  0  0
  1  2  2  0
  2  3  1  0
  2  4  1  0
  3  5  1  0
  6  7  1  0
  4 13  1  0
  4 15  1  0
  9 19  1  0
 19 20  1  0
 20 21  1  0
 25 27  1  0
 27 28  2  0
 27 29  1  0
 15 35  1  0
  5  6  1  0
  6 14  2  0
 14 16  1  0
 16 18  2  0
 18 17  1  0
 17  5  2  0
 13 30  2  0
 30 31  1  0
 31 32  2  0
 32 33  1  0
 33 34  2  0
 34 13  1  0
  7  8  2  0
  8  9  1  0
  9 10  2  0
 10 11  1  0
 11 12  2  0
 12  7  1  0
 21 22  2  0
 22 23  1  0
 23 24  2  0
 24 25  1  0
 25 26  2  0
 26 21  1  0
M  END

$$$$
