No_4025-gen_results/8p0m/2024-11-26-14-13-15/
     RDKit          3D

 22 24  0  0  0  0  0  0  0  0999 V2000
  -28.0162   -0.8135   28.8779 C   0  0  0  0  0  0  0  0  0  0  0  0
  -27.0636   -0.1189   28.6079 C   0  0  0  0  0  0  0  0  0  0  0  0
  -27.0010    0.6913   27.4910 C   0  0  0  0  0  0  0  0  0  0  0  0
  -25.8548    1.4825   27.0830 C   0  0  0  0  0  0  0  0  0  0  0  0
  -24.6901    1.4526   27.8807 C   0  0  0  0  0  0  0  0  0  0  0  0
  -24.7379    0.6010   29.0416 C   0  0  0  0  0  0  0  0  0  0  0  0
  -25.8234   -0.1688   29.3887 C   0  0  0  0  0  0  0  0  0  0  0  0
  -28.7568   -0.5479   30.0191 N   0  0  0  0  0  0  0  0  0  0  0  0
  -29.7597   -1.3260   30.5171 C   0  0  0  0  0  0  0  0  0  0  0  0
  -30.3964   -0.9170   31.6880 C   0  0  0  0  0  0  0  0  0  0  0  0
  -28.5369    0.6053   30.8302 C   0  0  0  0  0  0  0  0  0  0  0  0
  -27.6447    1.5502   30.4369 C   0  0  0  0  0  0  0  0  0  0  0  0
  -29.5321    0.4944   31.8912 C   0  0  0  0  0  0  0  0  0  0  0  0
  -23.4641    2.1603   27.5426 C   0  0  0  0  0  0  0  0  0  0  0  0
  -23.5102    3.0802   26.7392 O   0  0  0  0  0  0  0  0  0  0  0  0
  -22.3298    1.8873   28.1243 O   0  0  0  0  0  0  0  0  0  0  0  0
  -28.2873    2.8522   30.0310 C   0  0  0  0  0  0  0  0  0  0  0  0
  -28.0809    3.7492   30.4487 C   0  0  0  0  0  0  0  0  0  0  0  0
  -28.7705    5.0268   29.9866 C   0  0  0  0  0  0  0  0  0  0  0  0
  -29.2206    2.6842   28.9473 C   0  0  0  0  0  0  0  0  0  0  0  0
  -29.8885    3.7282   28.3922 C   0  0  0  0  0  0  0  0  0  0  0  0
  -29.6352    4.9698   28.9913 C   0  0  0  0  0  0  0  0  0  0  0  0
  1  2  1  0
  1  8  1  0
  8  9  1  0
  9 10  2  0
  8 11  1  0
 11 12  1  0
 10 13  1  0
 11 13  1  0
  5 14  1  0
 14 15  2  0
 14 16  1  0
 12 17  1  0
  2  3  2  0
  3  4  1  0
  4  5  2  0
  5  6  1  0
  6  7  2  0
  7  2  1  0
 17 18  2  0
 18 19  1  0
 19 22  2  0
 22 21  1  0
 21 20  2  0
 20 17  1  0
M  END

$$$$
