No_4364-gen_results/8p0m/2024-11-26-14-13-15/
     RDKit          3D

 25 25  0  0  0  0  0  0  0  0999 V2000
  -28.0162   -0.8135   28.8779 C   0  0  0  0  0  0  0  0  0  0  0  0
  -27.0636   -0.1190   28.6079 C   0  0  0  0  0  0  0  0  0  0  0  0
  -26.9716    0.7139   27.5060 C   0  0  0  0  0  0  0  0  0  0  0  0
  -25.8205    1.4909   27.1160 C   0  0  0  0  0  0  0  0  0  0  0  0
  -24.6562    1.4242   27.9180 C   0  0  0  0  0  0  0  0  0  0  0  0
  -24.6847    0.5901   29.0659 C   0  0  0  0  0  0  0  0  0  0  0  0
  -25.8099   -0.1266   29.3338 C   0  0  0  0  0  0  0  0  0  0  0  0
  -28.6943   -0.4734   30.1587 C   0  0  0  0  0  0  0  0  0  0  0  0
  -28.7309    0.5070   30.6385 O   0  0  0  0  0  0  0  0  0  0  0  0
  -29.3247   -1.6399   30.8008 N   0  0  0  0  0  0  0  0  0  0  0  0
  -23.4694    2.1988   27.6006 C   0  0  0  0  0  0  0  0  0  0  0  0
  -22.5417    2.2050   28.4546 O   0  0  0  0  0  0  0  0  0  0  0  0
  -23.3054    2.6369   26.3792 O   0  0  0  0  0  0  0  0  0  0  0  0
  -29.3731   -2.9372   30.3214 C   0  0  0  0  0  0  0  0  0  0  0  0
  -28.3881   -3.6798   30.5955 C   0  0  0  0  0  0  0  0  0  0  0  0
  -27.3640   -3.5494   30.4192 O   0  0  0  0  0  0  0  0  0  0  0  0
  -28.6560   -4.7937   31.4504 O   0  0  0  0  0  0  0  0  0  0  0  0
  -30.7878   -3.3755   29.6347 Cl  0  0  0  0  0  0  0  0  0  0  0  0
  -28.1209    0.8595   26.5773 C   0  0  0  0  0  0  0  0  0  0  0  0
  -28.0118    0.4750   25.4931 F   0  0  0  0  0  0  0  0  0  0  0  0
  -28.5504    2.1855   26.6416 F   0  0  0  0  0  0  0  0  0  0  0  0
  -29.3064    0.3479   27.0703 F   0  0  0  0  0  0  0  0  0  0  0  0
  -30.0959   -1.3269   32.0439 C   0  0  0  0  0  0  0  0  0  0  0  0
  -31.0157   -0.8618   32.3002 C   0  0  0  0  0  0  0  0  0  0  0  0
  -31.6185   -0.6531   33.5597 C   0  0  0  0  0  0  0  0  0  0  0  0
  1  8  1  0
  8  9  2  0
  8 10  1  0
  5 11  1  0
 11 12  2  0
 11 13  1  0
 10 14  1  0
 14 15  1  0
 15 16  2  0
 15 17  1  0
 14 18  1  0
  3 19  1  0
 19 20  1  0
 19 21  1  0
 19 22  1  0
 10 23  1  0
 23 24  2  3
 24 25  1  0
  1  2  1  0
  2  3  2  0
  3  4  1  0
  4  5  2  0
  5  6  1  0
  6  7  2  0
  7  2  1  0
M  END

$$$$
