No_4507-gen_results/8p0m/2024-11-26-14-13-15/
     RDKit          3D

 21 22  0  0  0  0  0  0  0  0999 V2000
  -28.0162   -0.8135   28.8779 C   0  0  0  0  0  0  0  0  0  0  0  0
  -28.4690   -0.7850   29.8287 C   0  0  0  0  0  0  0  0  0  0  0  0
  -26.5455   -0.8762   28.8500 C   0  0  0  0  0  0  0  0  0  0  0  0
  -25.8041   -1.0324   30.0571 C   0  0  0  0  0  0  0  0  0  0  0  0
  -26.5373   -1.0386   31.2171 C   0  0  0  0  0  0  0  0  0  0  0  0
  -27.8843   -0.9532   31.1862 C   0  0  0  0  0  0  0  0  0  0  0  0
  -24.3555   -1.1121   30.0346 C   0  0  0  0  0  0  0  0  0  0  0  0
  -23.6129   -1.1081   29.0414 C   0  0  0  0  0  0  0  0  0  0  0  0
  -22.1516   -0.9907   29.0790 C   0  0  0  0  0  0  0  0  0  0  0  0
  -23.5978   -0.1195   30.9277 C   0  0  0  0  0  0  0  0  0  0  0  0
  -22.9721    0.8382   30.6052 C   0  0  0  0  0  0  0  0  0  0  0  0
  -21.9245    0.4380   29.5356 C   0  0  0  0  0  0  0  0  0  0  0  0
  -30.0559   -0.6758   29.9066 C   0  0  0  0  0  0  0  0  0  0  0  0
  -30.5371   -0.2034   29.0128 O   0  0  0  0  0  0  0  0  0  0  0  0
  -30.6729   -0.7365   31.0449 O   0  0  0  0  0  0  0  0  0  0  0  0
  -25.9299   -0.6751   27.6434 O   0  0  0  0  0  0  0  0  0  0  0  0
  -25.3801    0.5818   27.2692 C   0  0  0  0  0  0  0  0  0  0  0  0
  -25.8327    1.7192   27.6694 C   0  0  0  0  0  0  0  0  0  0  0  0
  -25.1594    2.8861   27.3752 C   0  0  0  0  0  0  0  0  0  0  0  0
  -25.4281    4.2035   27.9478 C   0  0  0  0  0  0  0  0  0  0  0  0
  -24.3617    0.6197   26.2437 C   0  0  0  0  0  0  0  0  0  0  0  0
  4  7  1  0
  2 13  1  0
 13 14  1  0
 13 15  2  0
  3 16  1  0
 16 17  1  0
 17 18  1  0
 18 19  2  3
 19 20  1  0
 17 21  1  0
  1  2  2  0
  2  6  1  0
  6  5  2  0
  5  4  1  0
  4  3  2  0
  3  1  1  0
  7  8  2  0
  8  9  1  0
  9 12  2  0
 12 11  1  0
 11 10  2  0
 10  7  1  0
M  END

$$$$
