No_4744-gen_results/8p0m/2024-11-26-14-13-15/
     RDKit          3D

 24 25  0  0  0  0  0  0  0  0999 V2000
  -28.0162   -0.8135   28.8779 C   0  0  0  0  0  0  0  0  0  0  0  0
  -28.4690   -0.7850   29.8287 C   0  0  0  0  0  0  0  0  0  0  0  0
  -26.5455   -0.8762   28.8500 C   0  0  0  0  0  0  0  0  0  0  0  0
  -25.8041   -1.0324   30.0571 C   0  0  0  0  0  0  0  0  0  0  0  0
  -27.9437   -0.9869   31.2075 C   0  0  0  0  0  0  0  0  0  0  0  0
  -24.4008   -1.0969   30.0965 C   0  0  0  0  0  0  0  0  0  0  0  0
  -26.5612   -1.0746   31.2270 C   0  0  0  0  0  0  0  0  0  0  0  0
  -23.7186    0.1121   29.8577 C   0  0  0  0  0  0  0  0  0  0  0  0
  -22.4354    0.1410   29.2414 C   0  0  0  0  0  0  0  0  0  0  0  0
  -21.8243    1.3186   28.9009 C   0  0  0  0  0  0  0  0  0  0  0  0
  -24.2152    1.3866   30.2825 C   0  0  0  0  0  0  0  0  0  0  0  0
  -23.6920    2.5913   29.8574 C   0  0  0  0  0  0  0  0  0  0  0  0
  -22.4485    2.5510   29.1858 C   0  0  0  0  0  0  0  0  0  0  0  0
  -30.0882   -0.7019   29.8725 C   0  0  0  0  0  0  0  0  0  0  0  0
  -30.5100   -0.2395   28.9209 O   0  0  0  0  0  0  0  0  0  0  0  0
  -30.7663   -1.0395   30.9015 O   0  0  0  0  0  0  0  0  0  0  0  0
  -25.7383   -0.7507   27.5847 C   0  0  0  0  0  0  0  0  0  0  0  0
  -26.1804    0.1333   26.6542 N   0  0  0  0  0  0  0  0  0  0  0  0
  -25.7630    1.1662   26.2546 C   0  0  0  0  0  0  0  0  0  0  0  0
  -24.4698    1.5427   26.7410 C   0  0  0  0  0  0  0  0  0  0  0  0
  -26.7696    2.3395   25.5523 Cl  0  0  0  0  0  0  0  0  0  0  0  0
  -23.9427   -1.6307   31.4602 C   0  0  0  0  0  0  0  0  0  0  0  0
  -23.9161   -2.2084   29.0810 C   0  0  0  0  0  0  0  0  0  0  0  0
  -23.9817    2.9478   26.7053 C   0  0  0  0  0  0  0  0  0  0  0  0
  4  6  1  0
  6  8  1  0
  2 14  1  0
 14 15  2  0
 14 16  1  0
  3 17  1  0
 17 18  1  0
 18 19  1  0
 19 20  1  0
 19 21  1  0
  6 22  1  0
  6 23  1  0
 20 24  1  0
  8  9  2  0
  9 10  1  0
 10 13  2  0
 13 12  1  0
 12 11  2  0
 11  8  1  0
  1  2  2  0
  2  5  1  0
  5  7  2  0
  7  4  1  0
  4  3  2  0
  3  1  1  0
M  END

$$$$
