No_4174-gen_results/8p0m/2024-11-26-14-13-15/
     RDKit          3D

 15 16  0  0  0  0  0  0  0  0999 V2000
  -28.0162   -0.8135   28.8779 C   0  0  0  0  0  0  0  0  0  0  0  0
  -27.0636   -0.1189   28.6079 C   0  0  0  0  0  0  0  0  0  0  0  0
  -26.9716    0.7139   27.5060 C   0  0  0  0  0  0  0  0  0  0  0  0
  -25.8205    1.4909   27.1160 C   0  0  0  0  0  0  0  0  0  0  0  0
  -24.6562    1.4242   27.9180 C   0  0  0  0  0  0  0  0  0  0  0  0
  -23.4598    2.1165   27.6160 C   0  0  0  0  0  0  0  0  0  0  0  0
  -22.3448    1.9937   28.4413 C   0  0  0  0  0  0  0  0  0  0  0  0
  -22.2164    0.7373   28.9666 C   0  0  0  0  0  0  0  0  0  0  0  0
  -23.2887   -0.1160   29.3252 C   0  0  0  0  0  0  0  0  0  0  0  0
  -24.5199    0.1976   28.7009 C   0  0  0  0  0  0  0  0  0  0  0  0
  -25.6987   -0.4206   29.2110 C   0  0  0  0  0  0  0  0  0  0  0  0
  -28.0242   -1.3693   30.2955 C   0  0  0  0  0  0  0  0  0  0  0  0
  -29.1282   -2.0159   30.7519 N   0  0  0  0  0  0  0  0  0  0  0  0
  -29.8667   -1.4800   31.4601 C   0  0  0  0  0  0  0  0  0  0  0  0
  -30.0080   -0.5115   31.7059 C   0  0  0  0  0  0  0  0  0  0  0  0
  1  2  2  3
  2  3  1  0
  3  4  1  0
  4  5  1  0
  2 11  1  0
 10 11  1  0
  1 12  1  0
 12 13  1  0
 13 14  2  3
 14 15  1  0
  5  6  2  0
  6  7  1  0
  7  8  2  0
  8  9  1  0
  9 10  2  0
 10  5  1  0
M  END

$$$$
