No_4249-gen_results/8p0m/2024-11-26-14-13-15/
     RDKit          3D

 20 21  0  0  0  0  0  0  0  0999 V2000
  -28.0162   -0.8135   28.8779 C   0  0  0  0  0  0  0  0  0  0  0  0
  -27.0636   -0.1189   28.6079 C   0  0  0  0  0  0  0  0  0  0  0  0
  -26.9716    0.7139   27.5060 C   0  0  0  0  0  0  0  0  0  0  0  0
  -28.1053    0.7744   26.6421 C   0  0  0  0  0  0  0  0  0  0  0  0
  -29.2041    0.1179   27.0477 C   0  0  0  0  0  0  0  0  0  0  0  0
  -29.2127   -0.6088   28.1281 C   0  0  0  0  0  0  0  0  0  0  0  0
  -25.7106    1.4518   27.1380 C   0  0  0  0  0  0  0  0  0  0  0  0
  -24.6052    0.9253   27.6902 C   0  0  0  0  0  0  0  0  0  0  0  0
  -24.5938    0.0936   28.8218 C   0  0  0  0  0  0  0  0  0  0  0  0
  -25.7077   -0.4530   29.2468 C   0  0  0  0  0  0  0  0  0  0  0  0
  -23.2701    1.6921   27.4122 C   0  0  0  0  0  0  0  0  0  0  0  0
  -22.1196    1.1734   27.8460 N   0  0  0  0  0  0  0  0  0  0  0  0
  -23.2616    2.7178   26.6718 O   0  0  0  0  0  0  0  0  0  0  0  0
  -20.7940    1.7992   27.5768 C   0  0  0  0  0  0  0  0  0  0  0  0
  -25.6406   -1.4869   30.2884 C   0  0  0  0  0  0  0  0  0  0  0  0
  -25.3434   -1.1228   31.3315 O   0  0  0  0  0  0  0  0  0  0  0  0
  -26.0750   -2.6583   29.9542 O   0  0  0  0  0  0  0  0  0  0  0  0
  -30.3057    0.2682   26.3401 F   0  0  0  0  0  0  0  0  0  0  0  0
  -22.0210    0.0576   28.7418 C   0  0  0  0  0  0  0  0  0  0  0  0
  -22.6165   -0.3851   29.5345 C   0  0  0  0  0  0  0  0  0  0  0  0
  8 11  1  0
 11 12  1  0
 11 13  2  0
 12 14  1  0
 10 15  1  0
 15 16  2  0
 15 17  1  0
  5 18  1  0
 12 19  1  0
 19 20  2  0
  1  2  2  0
  3  4  2  0
  4  5  1  0
  5  6  2  0
  6  1  1  0
  2  3  1  0
  3  7  1  0
  7  8  2  0
  8  9  1  0
  9 10  2  0
 10  2  1  0
M  END

$$$$
