No_4958-gen_results/8p0m/2024-11-26-14-13-15/
     RDKit          3D

 35 36  0  0  0  0  0  0  0  0999 V2000
  -28.0162   -0.8135   28.8779 C   0  0  0  0  0  0  0  0  0  0  0  0
  -27.0636   -0.1190   28.6079 C   0  0  0  0  0  0  0  0  0  0  0  0
  -26.9716    0.7139   27.5060 C   0  0  0  0  0  0  0  0  0  0  0  0
  -25.8205    1.4909   27.1160 C   0  0  0  0  0  0  0  0  0  0  0  0
  -24.6562    1.4242   27.9180 C   0  0  0  0  0  0  0  0  0  0  0  0
  -24.7114    0.5419   29.0507 C   0  0  0  0  0  0  0  0  0  0  0  0
  -25.8042   -0.2058   29.3881 C   0  0  0  0  0  0  0  0  0  0  0  0
  -27.8742   -1.9903   29.2637 F   0  0  0  0  0  0  0  0  0  0  0  0
  -29.1952   -0.4442   28.7262 F   0  0  0  0  0  0  0  0  0  0  0  0
  -23.4718    2.1654   27.6310 C   0  0  0  0  0  0  0  0  0  0  0  0
  -22.4198    1.6768   27.3292 N   0  0  0  0  0  0  0  0  0  0  0  0
  -23.6615    3.4378   27.4384 O   0  0  0  0  0  0  0  0  0  0  0  0
  -21.8488    0.4912   27.9142 C   0  0  0  0  0  0  0  0  0  0  0  0
  -21.1351    0.7722   29.2291 C   0  0  0  0  0  0  0  0  0  0  0  0
  -27.9908    0.8176   26.6685 O   0  0  0  0  0  0  0  0  0  0  0  0
  -27.8475    0.4401   25.3628 C   0  0  0  0  0  0  0  0  0  0  0  0
  -29.0810    0.0628   24.7788 C   0  0  0  0  0  0  0  0  0  0  0  0
  -29.1050   -0.7918   23.9468 O   0  0  0  0  0  0  0  0  0  0  0  0
  -30.1660    0.8076   24.8883 N   0  0  0  0  0  0  0  0  0  0  0  0
  -31.4309    0.5629   24.3218 C   0  0  0  0  0  0  0  0  0  0  0  0
  -32.0847    1.5011   23.7974 C   0  0  0  0  0  0  0  0  0  0  0  0
  -31.6198    2.6582   23.6869 C   0  0  0  0  0  0  0  0  0  0  0  0
  -32.3010    3.8347   23.1268 C   0  0  0  0  0  0  0  0  0  0  0  0
  -33.3638    3.7635   22.8566 C   0  0  0  0  0  0  0  0  0  0  0  0
  -34.1162    2.5195   22.8026 C   0  0  0  0  0  0  0  0  0  0  0  0
  -33.4606    1.4027   23.2917 C   0  0  0  0  0  0  0  0  0  0  0  0
  -31.8181   -0.6663   24.3493 O   0  0  0  0  0  0  0  0  0  0  0  0
  -34.1840    4.9544   22.2911 C   0  0  0  0  0  0  0  0  0  0  0  0
  -34.3818    5.9399   23.0989 N   0  0  0  0  0  0  0  0  0  0  0  0
  -34.3977    5.8189   24.4011 C   0  0  0  0  0  0  0  0  0  0  0  0
  -34.8274    4.9531   25.0803 C   0  0  0  0  0  0  0  0  0  0  0  0
  -35.7961    4.0827   24.7065 C   0  0  0  0  0  0  0  0  0  0  0  0
  -36.3619    3.1613   25.6404 C   0  0  0  0  0  0  0  0  0  0  0  0
  -37.3354    2.2467   25.2579 C   0  0  0  0  0  0  0  0  0  0  0  0
  -37.7795    2.3026   23.9293 C   0  0  0  0  0  0  0  0  0  0  0  0
  1  8  1  0
  1  9  1  0
  5 10  1  0
 10 11  1  0
 10 12  2  0
 11 13  1  0
 13 14  1  0
  3 15  1  0
 15 16  1  0
 16 17  1  0
 17 18  2  0
 17 19  1  0
 19 20  1  0
 20 21  1  0
 20 27  2  0
 24 28  1  0
 28 29  1  0
 29 30  1  0
 30 31  2  3
 31 32  1  0
 32 33  2  3
 33 34  1  0
 34 35  2  0
  1  2  1  0
  2  3  2  0
  3  4  1  0
  4  5  2  0
  5  6  1  0
  6  7  2  0
  7  2  1  0
 21 22  2  0
 22 23  1  0
 23 24  2  0
 24 25  1  0
 25 26  2  0
 26 21  1  0
M  END

$$$$
