No_4546-gen_results/8p0m/2024-11-26-14-13-15/
     RDKit          3D

 32 34  0  0  0  0  0  0  0  0999 V2000
  -28.0162   -0.8135   28.8779 C   0  0  0  0  0  0  0  0  0  0  0  0
  -27.0636   -0.1189   28.6079 C   0  0  0  0  0  0  0  0  0  0  0  0
  -25.7923   -0.4302   29.0761 C   0  0  0  0  0  0  0  0  0  0  0  0
  -25.5756   -1.5654   29.9363 C   0  0  0  0  0  0  0  0  0  0  0  0
  -26.7354   -2.3004   30.2173 C   0  0  0  0  0  0  0  0  0  0  0  0
  -27.9184   -1.9537   29.7629 C   0  0  0  0  0  0  0  0  0  0  0  0
  -29.0001   -2.7012   30.1151 O   0  0  0  0  0  0  0  0  0  0  0  0
  -24.5290    0.3490   28.7998 C   0  0  0  0  0  0  0  0  0  0  0  0
  -24.4808    1.2113   27.7998 C   0  0  0  0  0  0  0  0  0  0  0  0
  -23.2760    1.8178   27.4206 C   0  0  0  0  0  0  0  0  0  0  0  0
  -22.0486    1.5250   28.1131 C   0  0  0  0  0  0  0  0  0  0  0  0
  -23.2966   -0.0161   29.4358 C   0  0  0  0  0  0  0  0  0  0  0  0
  -22.0768    0.6512   29.1041 C   0  0  0  0  0  0  0  0  0  0  0  0
  -28.8856   -3.9734   30.5998 C   0  0  0  0  0  0  0  0  0  0  0  0
  -30.0799   -4.7405   30.5558 C   0  0  0  0  0  0  0  0  0  0  0  0
  -30.6972   -4.8857   29.5517 O   0  0  0  0  0  0  0  0  0  0  0  0
  -31.2978   -6.0351   29.1323 C   0  0  0  0  0  0  0  0  0  0  0  0
  -31.6670   -6.8598   30.0346 C   0  0  0  0  0  0  0  0  0  0  0  0
  -30.9523   -6.8952   31.3028 C   0  0  0  0  0  0  0  0  0  0  0  0
  -30.0717   -5.8135   31.6043 C   0  0  0  0  0  0  0  0  0  0  0  0
  -31.8213   -6.0040   27.7695 C   0  0  0  0  0  0  0  0  0  0  0  0
  -31.6295   -5.0420   27.0399 O   0  0  0  0  0  0  0  0  0  0  0  0
  -32.1622   -7.0789   27.3112 F   0  0  0  0  0  0  0  0  0  0  0  0
  -29.4835   -5.6479   32.7454 O   0  0  0  0  0  0  0  0  0  0  0  0
  -29.6919   -4.5634   33.5805 C   0  0  0  0  0  0  0  0  0  0  0  0
  -29.6216   -4.9485   34.9562 C   0  0  0  0  0  0  0  0  0  0  0  0
  -29.1762   -6.0753   35.0644 F   0  0  0  0  0  0  0  0  0  0  0  0
  -28.7718   -4.0769   35.6914 O   0  0  0  0  0  0  0  0  0  0  0  0
  -30.8685   -4.8973   35.4724 F   0  0  0  0  0  0  0  0  0  0  0  0
  -28.0949   -4.3324   36.7380 C   0  0  0  0  0  0  0  0  0  0  0  0
  -27.2493   -3.1988   37.2411 C   0  0  0  0  0  0  0  0  0  0  0  0
  -27.9892   -2.2118   37.5168 O   0  0  0  0  0  0  0  0  0  0  0  0
  6  7  1  0
  3  8  1  0
  7 14  1  0
 14 15  1  0
 15 16  1  0
 16 17  1  0
 17 18  2  0
 18 19  1  0
 15 20  1  0
 19 20  2  0
 17 21  1  0
 21 22  1  0
 21 23  1  0
 20 24  1  0
 24 25  1  0
 25 26  1  0
 26 27  1  0
 26 28  1  0
 26 29  1  0
 28 30  1  0
 30 31  2  0
 31 32  2  0
  1  2  2  0
  2  3  1  0
  3  4  2  0
  4  5  1  0
  5  6  2  0
  6  1  1  0
  8  9  2  0
  9 10  1  0
 10 11  2  0
 11 13  1  0
 13 12  2  0
 12  8  1  0
M  END

$$$$
