No_420-gen_results/8p0m/2024-11-26-14-13-15/
     RDKit          3D

 28 31  0  0  0  0  0  0  0  0999 V2000
  -28.1229   -1.3353   28.4874 O   0  0  0  0  0  0  0  0  0  0  0  0
  -27.4806   -0.4044   28.7094 C   0  0  0  0  0  0  0  0  0  0  0  0
  -27.1904    0.2460   29.5268 C   0  0  0  0  0  0  0  0  0  0  0  0
  -26.6021   -0.1576   27.5515 N   0  0  0  0  0  0  0  0  0  0  0  0
  -25.6421    0.9031   27.5822 C   0  0  0  0  0  0  0  0  0  0  0  0
  -25.5004    1.6142   28.7368 C   0  0  0  0  0  0  0  0  0  0  0  0
  -26.2553    1.3158   29.8133 C   0  0  0  0  0  0  0  0  0  0  0  0
  -24.8956    1.1459   26.4881 N   0  0  0  0  0  0  0  0  0  0  0  0
  -23.8815    2.1227   26.6390 C   0  0  0  0  0  0  0  0  0  0  0  0
  -23.6445    2.7856   27.7321 C   0  0  0  0  0  0  0  0  0  0  0  0
  -24.4089    2.5903   28.7808 C   0  0  0  0  0  0  0  0  0  0  0  0
  -28.0829   -0.0743   30.8641 C   0  0  0  0  0  0  0  0  0  0  0  0
  -22.9751    2.4906   25.6162 N   0  0  0  0  0  0  0  0  0  0  0  0
  -27.6781   -0.4198   31.7899 O   0  0  0  0  0  0  0  0  0  0  0  0
  -29.3352    0.2001   30.6196 O   0  0  0  0  0  0  0  0  0  0  0  0
  -30.3174   -0.4619   31.3529 C   0  0  0  0  0  0  0  0  0  0  0  0
  -31.2527   -0.8825   30.6747 C   0  0  0  0  0  0  0  0  0  0  0  0
  -32.3083   -1.6222   31.3262 C   0  0  0  0  0  0  0  0  0  0  0  0
  -32.2775   -1.7433   32.7626 C   0  0  0  0  0  0  0  0  0  0  0  0
  -31.1732   -1.2087   33.3994 C   0  0  0  0  0  0  0  0  0  0  0  0
  -30.1797   -0.5724   32.7280 C   0  0  0  0  0  0  0  0  0  0  0  0
  -33.4132   -2.0794   30.6850 O   0  0  0  0  0  0  0  0  0  0  0  0
  -33.4450   -2.4792   29.6005 C   0  0  0  0  0  0  0  0  0  0  0  0
  -33.8185   -2.0190   28.7766 C   0  0  0  0  0  0  0  0  0  0  0  0
  -32.7900   -3.8561   29.3878 C   0  0  0  0  0  0  0  0  0  0  0  0
  -32.6685   -4.4136   28.1421 C   0  0  0  0  0  0  0  0  0  0  0  0
  -33.7847   -2.4909   27.3048 C   0  0  0  0  0  0  0  0  0  0  0  0
  -33.1951   -3.7048   27.0665 C   0  0  0  0  0  0  0  0  0  0  0  0
  1  2  2  0
  2  3  1  0
  2  4  1  0
  4  5  1  0
  6  7  1  0
  3 12  1  0
  9 13  1  0
 12 14  2  0
 12 15  1  0
 15 16  1  0
 18 22  1  0
 22 23  1  0
  3  7  1  0
  5  6  2  0
  6 11  1  0
 11 10  2  0
 10  9  1  0
  9  8  2  0
  8  5  1  0
 23 24  2  0
 24 27  1  0
 27 28  2  0
 28 26  1  0
 26 25  2  0
 25 23  1  0
 16 17  2  0
 17 18  1  0
 18 19  2  0
 19 20  1  0
 20 21  2  0
 21 16  1  0
M  END

$$$$
