No_4376-gen_results/8p0m/2024-11-26-14-13-15/
     RDKit          3D

 14 14  0  0  0  0  0  0  0  0999 V2000
  -28.0162   -0.8135   28.8779 C   0  0  0  0  0  0  0  0  0  0  0  0
  -27.0636   -0.1189   28.6079 C   0  0  0  0  0  0  0  0  0  0  0  0
  -27.0010    0.6913   27.4910 C   0  0  0  0  0  0  0  0  0  0  0  0
  -25.8548    1.4825   27.0830 C   0  0  0  0  0  0  0  0  0  0  0  0
  -24.6901    1.4526   27.8807 C   0  0  0  0  0  0  0  0  0  0  0  0
  -24.7379    0.6010   29.0416 C   0  0  0  0  0  0  0  0  0  0  0  0
  -25.8234   -0.1688   29.3887 C   0  0  0  0  0  0  0  0  0  0  0  0
  -28.2080   -1.5109   30.4528 P   0  0  0  0  0  0  0  0  0  0  0  0
  -28.8898   -2.7983   30.2830 O   0  0  0  0  0  0  0  0  0  0  0  0
  -26.7999   -1.7011   30.9967 O   0  0  0  0  0  0  0  0  0  0  0  0
  -28.9897   -0.5380   31.3027 O   0  0  0  0  0  0  0  0  0  0  0  0
  -23.5530    2.2817   27.5752 C   0  0  0  0  0  0  0  0  0  0  0  0
  -22.5106    2.2214   28.3533 N   0  0  0  0  0  0  0  0  0  0  0  0
  -23.5649    2.9828   26.5133 O   0  0  0  0  0  0  0  0  0  0  0  0
  1  2  1  0
  1  8  1  0
  8  9  2  0
  8 10  1  0
  8 11  1  0
  5 12  1  0
 12 13  1  0
 12 14  2  0
  2  3  2  0
  3  4  1  0
  4  5  2  0
  5  6  1  0
  6  7  2  0
  7  2  1  0
M  END

$$$$
