No_4277-gen_results/8p0m/2024-11-26-14-13-15/
     RDKit          3D

 22 24  0  0  0  0  0  0  0  0999 V2000
  -28.0162   -0.8135   28.8779 C   0  0  0  0  0  0  0  0  0  0  0  0
  -28.4690   -0.7850   29.8287 C   0  0  0  0  0  0  0  0  0  0  0  0
  -28.1960    0.3478   28.0550 C   0  0  0  0  0  0  0  0  0  0  0  0
  -27.4421    0.5100   26.7946 C   0  0  0  0  0  0  0  0  0  0  0  0
  -26.1689   -0.0794   26.6787 C   0  0  0  0  0  0  0  0  0  0  0  0
  -25.7312   -0.9607   27.6875 C   0  0  0  0  0  0  0  0  0  0  0  0
  -26.5043   -1.2222   28.7582 C   0  0  0  0  0  0  0  0  0  0  0  0
  -30.0109   -0.1589   30.2279 Br  0  0  0  0  0  0  0  0  0  0  0  0
  -28.1462   -2.0124   30.8890 C   0  0  0  0  0  0  0  0  0  0  0  0
  -28.5423   -2.9378   30.8259 O   0  0  0  0  0  0  0  0  0  0  0  0
  -27.2378   -1.5894   31.7756 O   0  0  0  0  0  0  0  0  0  0  0  0
  -27.7862    1.4326   25.7358 C   0  0  0  0  0  0  0  0  0  0  0  0
  -29.0913    1.5427   25.4917 C   0  0  0  0  0  0  0  0  0  0  0  0
  -26.9723    1.1735   24.5456 C   0  0  0  0  0  0  0  0  0  0  0  0
  -27.1768    2.8720   26.2423 C   0  0  0  0  0  0  0  0  0  0  0  0
  -29.9238    2.4386   26.0103 C   0  0  0  0  0  0  0  0  0  0  0  0
  -29.7680    0.5333   24.7654 C   0  0  0  0  0  0  0  0  0  0  0  0
  -29.5278    3.7940   26.3392 C   0  0  0  0  0  0  0  0  0  0  0  0
  -28.0758    3.8852   26.7857 C   0  0  0  0  0  0  0  0  0  0  0  0
  -25.4012    0.0636   25.5286 C   0  0  0  0  0  0  0  0  0  0  0  0
  -25.7579    0.6862   24.5430 N   0  0  0  0  0  0  0  0  0  0  0  0
  -29.6931    0.2448   23.6903 C   0  0  0  0  0  0  0  0  0  0  0  0
  1  2  2  3
  1  3  1  0
  3  4  1  0
  4  5  1  0
  5  6  1  0
  1  7  1  0
  6  7  1  0
  2  8  1  0
  2  9  1  0
  9 10  2  0
  9 11  1  0
  4 12  1  0
 12 13  1  0
 12 14  1  0
 12 15  1  0
 13 16  1  0
 13 17  1  0
 18 19  1  0
  5 20  1  0
 14 21  1  0
 17 22  2  0
 20 21  1  0
 16 18  1  0
 19 15  1  0
M  END

$$$$
