No_4477-gen_results/8p0m/2024-11-26-14-13-15/
     RDKit          3D

 17 19  0  0  0  0  0  0  0  0999 V2000
  -28.0162   -0.8135   28.8779 C   0  0  0  0  0  0  0  0  0  0  0  0
  -27.0636   -0.1189   28.6079 C   0  0  0  0  0  0  0  0  0  0  0  0
  -26.9287    1.1713   29.0083 C   0  0  0  0  0  0  0  0  0  0  0  0
  -25.7702    2.0341   28.6884 C   0  0  0  0  0  0  0  0  0  0  0  0
  -24.7141    1.4431   27.9188 C   0  0  0  0  0  0  0  0  0  0  0  0
  -24.8590    0.0783   27.5836 C   0  0  0  0  0  0  0  0  0  0  0  0
  -25.9647   -0.6606   27.9164 C   0  0  0  0  0  0  0  0  0  0  0  0
  -29.1778   -0.3051   28.9638 N   0  0  0  0  0  0  0  0  0  0  0  0
  -29.7430    0.3639   28.0670 C   0  0  0  0  0  0  0  0  0  0  0  0
  -30.7508    0.3561   27.5991 C   0  0  0  0  0  0  0  0  0  0  0  0
  -31.2813    1.1395   26.4774 C   0  0  0  0  0  0  0  0  0  0  0  0
  -30.3812    2.1179   25.9807 C   0  0  0  0  0  0  0  0  0  0  0  0
  -29.1115    2.1999   26.4673 C   0  0  0  0  0  0  0  0  0  0  0  0
  -28.7233    1.3803   27.4476 C   0  0  0  0  0  0  0  0  0  0  0  0
  -27.4289    1.6718   28.0334 C   0  0  0  0  0  0  0  0  0  0  0  0
  -26.7320    2.6330   26.9909 C   0  0  0  0  0  0  0  0  0  0  0  0
  -24.8250    2.0729   30.0142 C   0  0  0  0  0  0  0  0  0  0  0  0
  1  2  1  0
  1  8  1  0
  8  9  1  0
  3 15  1  0
 14 15  1  0
 15 16  1  0
  4 17  1  0
  2  3  2  0
  3  4  1  0
  4  5  2  0
  5  6  1  0
  6  7  2  0
  7  2  1  0
  9 10  2  0
 10 11  1  0
 11 12  2  0
 12 13  1  0
 13 14  2  0
 14  9  1  0
M  END

$$$$
