No_4258-gen_results/8p0m/2024-11-26-14-13-15/
     RDKit          3D

 12 12  0  0  0  0  0  0  0  0999 V2000
  -28.0544   -1.0498   28.7246 N   0  0  0  0  0  0  0  0  0  0  0  0
  -27.7460   -0.0733   29.0098 C   0  0  0  0  0  0  0  0  0  0  0  0
  -27.5562    0.3369   30.3393 C   0  0  0  0  0  0  0  0  0  0  0  0
  -27.8558   -0.5867   31.3709 C   0  0  0  0  0  0  0  0  0  0  0  0
  -28.2477   -1.8503   30.9650 C   0  0  0  0  0  0  0  0  0  0  0  0
  -28.3271   -2.1308   29.6397 C   0  0  0  0  0  0  0  0  0  0  0  0
  -27.4155    0.8771   28.0581 N   0  0  0  0  0  0  0  0  0  0  0  0
  -27.2368    1.8726   27.8371 C   0  0  0  0  0  0  0  0  0  0  0  0
  -26.4086    2.7304   27.5652 C   0  0  0  0  0  0  0  0  0  0  0  0
  -26.4895    4.1824   27.4166 C   0  0  0  0  0  0  0  0  0  0  0  0
  -25.4182    5.0454   27.1732 C   0  0  0  0  0  0  0  0  0  0  0  0
  -24.1503    4.4729   26.8881 C   0  0  0  0  0  0  0  0  0  0  0  0
  2  7  1  0
  7  8  1  0
  8  9  2  3
  9 10  1  0
 10 11  2  3
 11 12  1  0
  1  2  2  0
  2  3  1  0
  3  4  2  0
  4  5  1  0
  5  6  2  0
  6  1  1  0
M  END

$$$$
