No_4584-gen_results/8p0m/2024-11-26-14-13-15/
     RDKit          3D

 17 18  0  0  0  0  0  0  0  0999 V2000
  -28.1229   -1.3353   28.4874 O   0  0  0  0  0  0  0  0  0  0  0  0
  -27.0637   -0.8242   28.8687 C   0  0  0  0  0  0  0  0  0  0  0  0
  -25.9773   -1.1378   28.8137 N   0  0  0  0  0  0  0  0  0  0  0  0
  -24.7669   -0.3464   29.1634 C   0  0  0  0  0  0  0  0  0  0  0  0
  -27.1684    0.7551   29.2892 C   0  0  0  0  0  0  0  0  0  0  0  0
  -24.9442    0.9296   29.5403 C   0  0  0  0  0  0  0  0  0  0  0  0
  -23.7270    1.8024   29.7846 C   0  0  0  0  0  0  0  0  0  0  0  0
  -26.1544    1.5605   29.5880 C   0  0  0  0  0  0  0  0  0  0  0  0
  -23.8309    2.7883   30.3667 O   0  0  0  0  0  0  0  0  0  0  0  0
  -22.5865    1.6125   29.0482 O   0  0  0  0  0  0  0  0  0  0  0  0
  -28.6115    1.1801   29.3622 C   0  0  0  0  0  0  0  0  0  0  0  0
  -29.1966    1.1000   30.3238 C   0  0  0  0  0  0  0  0  0  0  0  0
  -30.5767    1.6022   30.4894 C   0  0  0  0  0  0  0  0  0  0  0  0
  -29.1587    1.7047   28.1632 C   0  0  0  0  0  0  0  0  0  0  0  0
  -30.4425    2.2239   28.1539 C   0  0  0  0  0  0  0  0  0  0  0  0
  -31.1462    2.1751   29.3788 C   0  0  0  0  0  0  0  0  0  0  0  0
  -32.3758    2.6821   29.4041 F   0  0  0  0  0  0  0  0  0  0  0  0
  1  2  2  0
  2  3  1  0
  3  4  1  0
  2  5  1  0
  4  6  1  0
  6  7  1  0
  6  8  1  0
  7  9  2  0
  7 10  1  0
  5 11  1  0
 16 17  1  0
  8  5  1  0
 11 12  2  0
 12 13  1  0
 13 16  2  0
 16 15  1  0
 15 14  2  0
 14 11  1  0
M  END

$$$$
