No_4657-gen_results/8p0m/2024-11-26-14-13-15/
     RDKit          3D

 19 21  0  0  0  0  0  0  0  0999 V2000
  -28.0162   -0.8135   28.8779 C   0  0  0  0  0  0  0  0  0  0  0  0
  -28.4690   -0.7850   29.8287 C   0  0  0  0  0  0  0  0  0  0  0  0
  -26.5042   -0.7777   28.8766 C   0  0  0  0  0  0  0  0  0  0  0  0
  -25.8103   -0.8531   30.1028 C   0  0  0  0  0  0  0  0  0  0  0  0
  -27.9906   -0.8916   31.2257 C   0  0  0  0  0  0  0  0  0  0  0  0
  -24.3976   -0.8364   30.1775 C   0  0  0  0  0  0  0  0  0  0  0  0
  -26.5754   -0.8899   31.2661 C   0  0  0  0  0  0  0  0  0  0  0  0
  -23.7708   -0.9176   31.0960 C   0  0  0  0  0  0  0  0  0  0  0  0
  -22.3018   -0.8444   31.2151 C   0  0  0  0  0  0  0  0  0  0  0  0
  -21.6829   -0.5879   30.0577 C   0  0  0  0  0  0  0  0  0  0  0  0
  -23.4571   -0.5861   29.0038 C   0  0  0  0  0  0  0  0  0  0  0  0
  -22.2391   -0.4694   28.9183 C   0  0  0  0  0  0  0  0  0  0  0  0
  -29.9461   -0.7618   29.8350 O   0  0  0  0  0  0  0  0  0  0  0  0
  -30.5718    0.4071   30.1354 C   0  0  0  0  0  0  0  0  0  0  0  0
  -31.5090    0.7620   29.5776 C   0  0  0  0  0  0  0  0  0  0  0  0
  -32.1745    2.0413   29.8459 C   0  0  0  0  0  0  0  0  0  0  0  0
  -31.6265    2.8453   30.8623 C   0  0  0  0  0  0  0  0  0  0  0  0
  -30.5009    2.3953   31.5029 C   0  0  0  0  0  0  0  0  0  0  0  0
  -29.9254    1.2376   31.1838 C   0  0  0  0  0  0  0  0  0  0  0  0
  4  6  1  0
  2 13  1  0
 13 14  1  0
 14 15  2  0
 15 16  1  0
 16 17  2  0
 17 18  1  0
 18 19  2  0
 19 14  1  0
  6  8  2  0
  8  9  1  0
  9 10  2  0
 10 12  1  0
 12 11  2  0
 11  6  1  0
  1  2  2  0
  2  5  1  0
  5  7  2  0
  7  4  1  0
  4  3  2  0
  3  1  1  0
M  END

$$$$
