No_4515-gen_results/8p0m/2024-11-26-14-13-15/
     RDKit          3D

 15 15  0  0  0  0  0  0  0  0999 V2000
  -28.0162   -0.8135   28.8779 C   0  0  0  0  0  0  0  0  0  0  0  0
  -27.0636   -0.1190   28.6079 C   0  0  0  0  0  0  0  0  0  0  0  0
  -25.7923   -0.4302   29.0761 C   0  0  0  0  0  0  0  0  0  0  0  0
  -25.5756   -1.5654   29.9363 C   0  0  0  0  0  0  0  0  0  0  0  0
  -26.7354   -2.3004   30.2173 C   0  0  0  0  0  0  0  0  0  0  0  0
  -27.9184   -1.9537   29.7629 C   0  0  0  0  0  0  0  0  0  0  0  0
  -27.1148    1.3528   27.5928 P   0  0  0  0  0  0  0  0  0  0  0  0
  -27.6661    2.2172   27.6776 O   0  0  0  0  0  0  0  0  0  0  0  0
  -25.5323    1.6396   27.5086 O   0  0  0  0  0  0  0  0  0  0  0  0
  -27.2317    0.5771   26.0894 O   0  0  0  0  0  0  0  0  0  0  0  0
  -24.9290    2.2340   28.4862 C   0  0  0  0  0  0  0  0  0  0  0  0
  -23.3824    2.1406   28.3040 C   0  0  0  0  0  0  0  0  0  0  0  0
  -22.9568    1.0067   27.9488 O   0  0  0  0  0  0  0  0  0  0  0  0
  -21.5495    0.8767   28.2028 C   0  0  0  0  0  0  0  0  0  0  0  0
  -28.4427    0.5478   25.4852 C   0  0  0  0  0  0  0  0  0  0  0  0
  2  7  1  0
  7  8  2  0
  7  9  1  0
  7 10  1  0
  9 11  1  0
 11 12  2  3
 12 13  1  0
 13 14  1  0
 10 15  1  0
  1  2  2  0
  2  3  1  0
  3  4  2  0
  4  5  1  0
  5  6  2  0
  6  1  1  0
M  END

$$$$
