No_4073-gen_results/8p0m/2024-11-26-14-13-15/
     RDKit          3D

 16 17  0  0  0  0  0  0  0  0999 V2000
  -28.0162   -0.8135   28.8779 C   0  0  0  0  0  0  0  0  0  0  0  0
  -28.4690   -0.7850   29.8287 C   0  0  0  0  0  0  0  0  0  0  0  0
  -28.1816    0.4277   28.1134 C   0  0  0  0  0  0  0  0  0  0  0  0
  -27.4498    0.6435   26.8500 C   0  0  0  0  0  0  0  0  0  0  0  0
  -26.4529    0.9939   26.6681 C   0  0  0  0  0  0  0  0  0  0  0  0
  -25.5832    0.4817   25.6004 C   0  0  0  0  0  0  0  0  0  0  0  0
  -29.4401    0.0830   30.4451 C   0  0  0  0  0  0  0  0  0  0  0  0
  -29.6515    1.2097   29.7516 C   0  0  0  0  0  0  0  0  0  0  0  0
  -29.0257    1.4242   28.5721 C   0  0  0  0  0  0  0  0  0  0  0  0
  -26.2254   -0.2015   24.5680 C   0  0  0  0  0  0  0  0  0  0  0  0
  -28.3483    0.6546   25.6748 C   0  0  0  0  0  0  0  0  0  0  0  0
  -27.6230   -0.0400   24.5742 C   0  0  0  0  0  0  0  0  0  0  0  0
  -30.4878    2.1965   30.2430 O   0  0  0  0  0  0  0  0  0  0  0  0
  -30.3969    2.6794   31.4190 C   0  0  0  0  0  0  0  0  0  0  0  0
  -30.6830    3.8989   31.6743 C   0  0  0  0  0  0  0  0  0  0  0  0
  -30.6095    4.4523   33.0269 C   0  0  0  0  0  0  0  0  0  0  0  0
  3  4  1  0
  8 13  1  0
 13 14  1  0
 14 15  2  3
 15 16  1  0
  4  5  2  0
  5  6  1  0
  6 10  2  0
 10 12  1  0
 12 11  2  0
 11  4  1  0
  1  2  2  0
  2  7  1  0
  7  8  2  0
  8  9  1  0
  9  3  2  0
  3  1  1  0
M  END

$$$$
