No_4693-gen_results/8p0m/2024-11-26-14-13-15/
     RDKit          3D

 28 30  0  0  0  0  0  0  0  0999 V2000
  -28.0162   -0.8135   28.8779 C   0  0  0  0  0  0  0  0  0  0  0  0
  -28.4690   -0.7850   29.8287 C   0  0  0  0  0  0  0  0  0  0  0  0
  -27.0871    0.2903   28.6377 C   0  0  0  0  0  0  0  0  0  0  0  0
  -26.8317    1.2487   29.5869 C   0  0  0  0  0  0  0  0  0  0  0  0
  -28.3914    0.0801   31.0065 C   0  0  0  0  0  0  0  0  0  0  0  0
  -27.4940    1.1521   30.7841 C   0  0  0  0  0  0  0  0  0  0  0  0
  -26.3819    0.3661   27.4556 O   0  0  0  0  0  0  0  0  0  0  0  0
  -25.0356    0.3699   27.4975 C   0  0  0  0  0  0  0  0  0  0  0  0
  -24.3058   -0.4185   28.2656 C   0  0  0  0  0  0  0  0  0  0  0  0
  -22.8931   -0.2610   28.3625 C   0  0  0  0  0  0  0  0  0  0  0  0
  -22.4676    0.9934   28.2981 C   0  0  0  0  0  0  0  0  0  0  0  0
  -24.5767    1.7248   27.1782 C   0  0  0  0  0  0  0  0  0  0  0  0
  -23.2057    1.9509   27.4990 C   0  0  0  0  0  0  0  0  0  0  0  0
  -25.2864    2.6685   26.4685 C   0  0  0  0  0  0  0  0  0  0  0  0
  -25.9735    3.4128   27.1931 O   0  0  0  0  0  0  0  0  0  0  0  0
  -27.0540    4.0649   26.7534 C   0  0  0  0  0  0  0  0  0  0  0  0
  -27.2839    2.1636   31.8682 C   0  0  0  0  0  0  0  0  0  0  0  0
  -27.8268    1.9404   32.9143 F   0  0  0  0  0  0  0  0  0  0  0  0
  -25.9530    2.2169   32.0911 F   0  0  0  0  0  0  0  0  0  0  0  0
  -27.6066    3.3737   31.3784 F   0  0  0  0  0  0  0  0  0  0  0  0
  -28.3208    3.8530   27.4010 C   0  0  0  0  0  0  0  0  0  0  0  0
  -29.2674    3.1360   26.7962 C   0  0  0  0  0  0  0  0  0  0  0  0
  -29.0105    2.5821   25.7738 C   0  0  0  0  0  0  0  0  0  0  0  0
  -29.9569    1.7940   25.0877 C   0  0  0  0  0  0  0  0  0  0  0  0
  -31.1865    1.5745   25.6938 C   0  0  0  0  0  0  0  0  0  0  0  0
  -31.4736    2.1526   26.9316 C   0  0  0  0  0  0  0  0  0  0  0  0
  -30.5145    2.9481   27.5468 C   0  0  0  0  0  0  0  0  0  0  0  0
  -30.8017    3.5551   28.8470 C   0  0  0  0  0  0  0  0  0  0  0  0
  3  7  1  0
  7  8  1  0
 12 14  1  0
 14 15  1  0
 15 16  1  0
  6 17  1  0
 17 18  1  0
 17 19  1  0
 17 20  1  0
 16 21  1  0
 27 28  1  0
 21 22  1  0
 22 23  2  0
 23 24  1  0
 24 25  2  0
 25 26  1  0
 26 27  2  0
 27 22  1  0
  1  2  2  0
  2  5  1  0
  5  6  2  0
  6  4  1  0
  4  3  2  0
  3  1  1  0
  8  9  2  0
  9 10  1  0
 10 11  2  0
 11 13  1  0
 13 12  2  0
 12  8  1  0
M  END

$$$$
