No_4271-gen_results/8p0m/2024-11-26-14-13-15/
     RDKit          3D

 26 27  0  0  0  0  0  0  0  0999 V2000
  -28.0162   -0.8135   28.8779 C   0  0  0  0  0  0  0  0  0  0  0  0
  -27.0636   -0.1189   28.6079 C   0  0  0  0  0  0  0  0  0  0  0  0
  -26.9716    0.7139   27.5060 C   0  0  0  0  0  0  0  0  0  0  0  0
  -25.8206    1.4910   27.1160 C   0  0  0  0  0  0  0  0  0  0  0  0
  -24.6562    1.4242   27.9180 C   0  0  0  0  0  0  0  0  0  0  0  0
  -24.6847    0.5901   29.0659 C   0  0  0  0  0  0  0  0  0  0  0  0
  -25.8099   -0.1265   29.3338 C   0  0  0  0  0  0  0  0  0  0  0  0
  -27.9680   -1.6901   30.0059 N   0  0  0  0  0  0  0  0  0  0  0  0
  -23.4715    2.1888   27.6131 C   0  0  0  0  0  0  0  0  0  0  0  0
  -23.2745    2.6995   26.5020 O   0  0  0  0  0  0  0  0  0  0  0  0
  -22.3512    1.9908   28.3525 O   0  0  0  0  0  0  0  0  0  0  0  0
  -29.0623   -2.3572   30.4773 C   0  0  0  0  0  0  0  0  0  0  0  0
  -28.8342   -3.5602   31.3601 C   0  0  0  0  0  0  0  0  0  0  0  0
  -29.4124   -4.6791   30.8466 C   0  0  0  0  0  0  0  0  0  0  0  0
  -30.8675   -4.7251   30.9541 C   0  0  0  0  0  0  0  0  0  0  0  0
  -31.4900   -3.5740   30.2502 C   0  0  0  0  0  0  0  0  0  0  0  0
  -29.9949   -1.5429   30.7916 F   0  0  0  0  0  0  0  0  0  0  0  0
  -30.8644   -2.7670   29.8181 F   0  0  0  0  0  0  0  0  0  0  0  0
  -32.6749   -3.7332   29.7749 F   0  0  0  0  0  0  0  0  0  0  0  0
  -28.1173    0.8140   26.5911 C   0  0  0  0  0  0  0  0  0  0  0  0
  -28.0107    0.4322   25.3189 C   0  0  0  0  0  0  0  0  0  0  0  0
  -29.0550    0.3945   24.4137 C   0  0  0  0  0  0  0  0  0  0  0  0
  -30.3336    0.6443   24.8593 C   0  0  0  0  0  0  0  0  0  0  0  0
  -31.3843    0.6121   24.0001 C   0  0  0  0  0  0  0  0  0  0  0  0
  -29.4308    1.0611   27.1022 C   0  0  0  0  0  0  0  0  0  0  0  0
  -30.5074    1.0213   26.1670 C   0  0  0  0  0  0  0  0  0  0  0  0
  1  8  1  0
  5  9  1  0
  9 10  2  0
  9 11  1  0
  8 12  2  3
 12 13  1  0
 13 14  1  0
 14 15  1  0
 15 16  1  0
 12 17  1  0
 16 18  1  0
 16 19  1  0
  3 20  1  0
 23 24  1  0
  1  2  1  0
  2  3  2  0
  3  4  1  0
  4  5  2  0
  5  6  1  0
  6  7  2  0
  7  2  1  0
 20 21  2  0
 21 22  1  0
 22 23  2  0
 23 26  1  0
 26 25  2  0
 25 20  1  0
M  END

$$$$
