No_4783-gen_results/8p0m/2024-11-26-14-13-15/
     RDKit          3D

 15 16  0  0  0  0  0  0  0  0999 V2000
  -28.0162   -0.8135   28.8779 C   0  0  0  0  0  0  0  0  0  0  0  0
  -28.4690   -0.7850   29.8287 C   0  0  0  0  0  0  0  0  0  0  0  0
  -27.1356    0.2359   28.5352 C   0  0  0  0  0  0  0  0  0  0  0  0
  -26.8745    1.2825   29.3982 C   0  0  0  0  0  0  0  0  0  0  0  0
  -27.5070    1.2380   30.6295 C   0  0  0  0  0  0  0  0  0  0  0  0
  -28.3269    0.1637   30.9240 C   0  0  0  0  0  0  0  0  0  0  0  0
  -26.4007    0.2985   27.2217 C   0  0  0  0  0  0  0  0  0  0  0  0
  -26.6927    0.8617   26.3033 C   0  0  0  0  0  0  0  0  0  0  0  0
  -27.8889    1.7130   26.3140 C   0  0  0  0  0  0  0  0  0  0  0  0
  -28.1176    2.4355   27.1531 C   0  0  0  0  0  0  0  0  0  0  0  0
  -29.3693    3.1586   27.1039 C   0  0  0  0  0  0  0  0  0  0  0  0
  -30.1130    3.1469   25.9263 C   0  0  0  0  0  0  0  0  0  0  0  0
  -28.7207    1.6565   25.0923 C   0  0  0  0  0  0  0  0  0  0  0  0
  -29.7839    2.3446   24.9350 C   0  0  0  0  0  0  0  0  0  0  0  0
  -25.7225    0.5982   24.6442 Br  0  0  0  0  0  0  0  0  0  0  0  0
  3  7  1  0
  7  8  2  3
  8  9  1  0
  8 15  1  0
  1  2  2  0
  2  6  1  0
  6  5  2  0
  5  4  1  0
  4  3  2  0
  3  1  1  0
  9 10  2  0
 10 11  1  0
 11 12  2  0
 12 14  1  0
 14 13  2  0
 13  9  1  0
M  END

$$$$
