No_4599-gen_results/8p0m/2024-11-26-14-13-15/
     RDKit          3D

 35 36  0  0  0  0  0  0  0  0999 V2000
  -28.0162   -0.8135   28.8779 C   0  0  0  0  0  0  0  0  0  0  0  0
  -27.0636   -0.1190   28.6079 C   0  0  0  0  0  0  0  0  0  0  0  0
  -26.9287    1.1713   29.0083 C   0  0  0  0  0  0  0  0  0  0  0  0
  -25.7702    2.0341   28.6884 C   0  0  0  0  0  0  0  0  0  0  0  0
  -24.7141    1.4431   27.9188 C   0  0  0  0  0  0  0  0  0  0  0  0
  -24.8590    0.0783   27.5836 C   0  0  0  0  0  0  0  0  0  0  0  0
  -25.9647   -0.6606   27.9164 C   0  0  0  0  0  0  0  0  0  0  0  0
  -27.9821   -1.6367   30.0748 N   0  0  0  0  0  0  0  0  0  0  0  0
  -29.2163   -0.4132   28.6627 O   0  0  0  0  0  0  0  0  0  0  0  0
  -26.7315   -2.0678   30.6432 C   0  0  0  0  0  0  0  0  0  0  0  0
  -29.1005   -2.4113   30.5218 C   0  0  0  0  0  0  0  0  0  0  0  0
  -23.5128    2.1515   27.5474 C   0  0  0  0  0  0  0  0  0  0  0  0
  -22.4892    1.8528   27.3586 O   0  0  0  0  0  0  0  0  0  0  0  0
  -23.8426    3.4887   27.2670 O   0  0  0  0  0  0  0  0  0  0  0  0
  -28.9942   -3.7704   30.4789 C   0  0  0  0  0  0  0  0  0  0  0  0
  -29.8939   -4.4428   30.9271 O   0  0  0  0  0  0  0  0  0  0  0  0
  -28.0480   -4.3652   29.7580 O   0  0  0  0  0  0  0  0  0  0  0  0
  -30.2420   -5.7043   30.5500 C   0  0  0  0  0  0  0  0  0  0  0  0
  -31.2626   -5.6249   29.4434 C   0  0  0  0  0  0  0  0  0  0  0  0
  -31.2369   -6.5789   28.6581 O   0  0  0  0  0  0  0  0  0  0  0  0
  -31.9172   -4.5581   29.1487 N   0  0  0  0  0  0  0  0  0  0  0  0
  -32.7282   -4.3968   27.9981 C   0  0  0  0  0  0  0  0  0  0  0  0
  -32.3874   -3.2334   27.2916 C   0  0  0  0  0  0  0  0  0  0  0  0
  -32.5588   -3.0822   25.9311 C   0  0  0  0  0  0  0  0  0  0  0  0
  -32.0841   -2.0012   25.1701 C   0  0  0  0  0  0  0  0  0  0  0  0
  -31.4958   -0.9364   25.7758 C   0  0  0  0  0  0  0  0  0  0  0  0
  -31.5656   -0.9947   27.2036 C   0  0  0  0  0  0  0  0  0  0  0  0
  -31.8588   -2.0520   27.8968 C   0  0  0  0  0  0  0  0  0  0  0  0
  -31.0633    0.2208   25.0350 C   0  0  0  0  0  0  0  0  0  0  0  0
  -30.9165    1.0438   25.5866 F   0  0  0  0  0  0  0  0  0  0  0  0
  -31.9249    0.4097   24.0111 F   0  0  0  0  0  0  0  0  0  0  0  0
  -29.8784   -0.2539   24.3838 F   0  0  0  0  0  0  0  0  0  0  0  0
  -34.1391   -4.4012   28.4321 C   0  0  0  0  0  0  0  0  0  0  0  0
  -34.7307   -5.1699   28.8156 C   0  0  0  0  0  0  0  0  0  0  0  0
  -36.1488   -5.1175   29.2396 C   0  0  0  0  0  0  0  0  0  0  0  0
  1  2  1  0
  1  8  1  0
  1  9  2  0
  8 10  1  0
  8 11  1  0
  5 12  1  0
 12 13  2  0
 12 14  1  0
 11 15  1  0
 15 16  1  0
 15 17  2  0
 16 18  1  0
 18 19  1  0
 19 20  2  0
 19 21  1  0
 21 22  1  0
 22 23  1  0
 26 29  1  0
 29 30  1  0
 29 31  1  0
 29 32  1  0
 22 33  1  0
 33 34  2  3
 34 35  1  0
  2  3  2  0
  3  4  1  0
  4  5  2  0
  5  6  1  0
  6  7  2  0
  7  2  1  0
 23 24  2  0
 24 25  1  0
 25 26  2  0
 26 27  1  0
 27 28  2  0
 28 23  1  0
M  END

$$$$
