No_4309-gen_results/8p0m/2024-11-26-14-13-15/
     RDKit          3D

 28 30  0  0  0  0  0  0  0  0999 V2000
  -28.0162   -0.8135   28.8779 C   0  0  0  0  0  0  0  0  0  0  0  0
  -27.0636   -0.1189   28.6079 C   0  0  0  0  0  0  0  0  0  0  0  0
  -26.9287    1.1713   29.0083 C   0  0  0  0  0  0  0  0  0  0  0  0
  -25.7702    2.0341   28.6884 C   0  0  0  0  0  0  0  0  0  0  0  0
  -24.7141    1.4431   27.9188 C   0  0  0  0  0  0  0  0  0  0  0  0
  -24.8590    0.0783   27.5836 C   0  0  0  0  0  0  0  0  0  0  0  0
  -25.9647   -0.6606   27.9164 C   0  0  0  0  0  0  0  0  0  0  0  0
  -29.1701   -0.2984   28.9471 N   0  0  0  0  0  0  0  0  0  0  0  0
  -29.7216    0.3727   28.0429 C   0  0  0  0  0  0  0  0  0  0  0  0
  -29.5072    0.7748   27.1519 C   0  0  0  0  0  0  0  0  0  0  0  0
  -30.2809    1.4989   26.1225 C   0  0  0  0  0  0  0  0  0  0  0  0
  -31.2886    0.4185   28.3294 C   0  0  0  0  0  0  0  0  0  0  0  0
  -32.0975    1.1089   27.4869 C   0  0  0  0  0  0  0  0  0  0  0  0
  -31.5721    1.6636   26.3766 C   0  0  0  0  0  0  0  0  0  0  0  0
  -27.8207   -1.8753   29.5483 O   0  0  0  0  0  0  0  0  0  0  0  0
  -23.4860    2.1108   27.6143 C   0  0  0  0  0  0  0  0  0  0  0  0
  -22.5615    1.6272   27.5383 F   0  0  0  0  0  0  0  0  0  0  0  0
  -23.7165    3.3551   27.2342 F   0  0  0  0  0  0  0  0  0  0  0  0
  -29.7738   -0.3456   30.3712 C   0  0  0  0  0  0  0  0  0  0  0  0
  -30.4139   -1.4419   30.7346 C   0  0  0  0  0  0  0  0  0  0  0  0
  -31.0243   -1.4955   31.9668 C   0  0  0  0  0  0  0  0  0  0  0  0
  -31.6207   -2.7073   32.3918 C   0  0  0  0  0  0  0  0  0  0  0  0
  -31.5747   -3.8070   31.5466 C   0  0  0  0  0  0  0  0  0  0  0  0
  -30.9251   -3.7900   30.3311 C   0  0  0  0  0  0  0  0  0  0  0  0
  -30.3042   -2.6105   29.9302 C   0  0  0  0  0  0  0  0  0  0  0  0
  -30.8537   -4.9823   29.4776 C   0  0  0  0  0  0  0  0  0  0  0  0
  -30.0491   -5.0312   28.6507 O   0  0  0  0  0  0  0  0  0  0  0  0
  -31.9259   -5.7092   29.4699 O   0  0  0  0  0  0  0  0  0  0  0  0
  1  2  1  0
  1  8  1  0
  8  9  1  0
  1 15  2  0
  5 16  1  0
 16 17  1  0
 16 18  1  0
  8 19  1  0
 24 26  1  0
 26 27  2  0
 26 28  1  0
 19 20  1  0
  2  3  2  0
  3  4  1  0
  4  5  2  0
  5  6  1  0
  6  7  2  0
  7  2  1  0
  9 10  2  0
 10 11  1  0
 11 14  2  0
 14 13  1  0
 13 12  2  0
 12  9  1  0
 20 21  2  0
 21 22  1  0
 22 23  2  0
 23 24  1  0
 24 25  2  0
 25 20  1  0
M  END

$$$$
