No_4878-gen_results/8p0m/2024-11-26-14-13-15/
     RDKit          3D

 35 37  0  0  0  0  0  0  0  0999 V2000
  -28.0162   -0.8135   28.8779 C   0  0  0  0  0  0  0  0  0  0  0  0
  -28.4690   -0.7850   29.8287 C   0  0  0  0  0  0  0  0  0  0  0  0
  -26.5042   -0.7777   28.8766 C   0  0  0  0  0  0  0  0  0  0  0  0
  -25.8305   -1.6807   29.6849 C   0  0  0  0  0  0  0  0  0  0  0  0
  -28.1490   -1.8854   30.9031 C   0  0  0  0  0  0  0  0  0  0  0  0
  -26.6460   -1.9561   31.0330 C   0  0  0  0  0  0  0  0  0  0  0  0
  -28.6274   -1.7308   32.1858 O   0  0  0  0  0  0  0  0  0  0  0  0
  -30.0168   -0.9269   29.8771 O   0  0  0  0  0  0  0  0  0  0  0  0
  -24.6534   -2.3030   29.3807 C   0  0  0  0  0  0  0  0  0  0  0  0
  -23.4721   -1.5067   29.2502 C   0  0  0  0  0  0  0  0  0  0  0  0
  -23.3950   -0.1928   29.8405 C   0  0  0  0  0  0  0  0  0  0  0  0
  -22.6117    0.7850   29.1412 C   0  0  0  0  0  0  0  0  0  0  0  0
  -23.2236    1.8985   28.5538 C   0  0  0  0  0  0  0  0  0  0  0  0
  -24.0276    1.4878   27.6694 O   0  0  0  0  0  0  0  0  0  0  0  0
  -24.4773    2.1912   26.9111 F   0  0  0  0  0  0  0  0  0  0  0  0
  -28.2850    0.4639   28.0605 O   0  0  0  0  0  0  0  0  0  0  0  0
  -22.2028    2.6857   28.0130 O   0  0  0  0  0  0  0  0  0  0  0  0
  -28.3978    1.5684   28.6303 C   0  0  0  0  0  0  0  0  0  0  0  0
  -28.8547    2.5120   27.8039 C   0  0  0  0  0  0  0  0  0  0  0  0
  -29.0850    2.3332   26.5539 C   0  0  0  0  0  0  0  0  0  0  0  0
  -29.7953    1.6320   26.0665 C   0  0  0  0  0  0  0  0  0  0  0  0
  -29.9644    1.3701   24.6120 C   0  0  0  0  0  0  0  0  0  0  0  0
  -30.7940    0.3943   24.0901 C   0  0  0  0  0  0  0  0  0  0  0  0
  -31.3726   -0.5462   25.0231 C   0  0  0  0  0  0  0  0  0  0  0  0
  -31.1592   -0.4284   26.3827 C   0  0  0  0  0  0  0  0  0  0  0  0
  -30.3353    0.5966   26.8814 C   0  0  0  0  0  0  0  0  0  0  0  0
  -30.7741   -0.0469   30.5087 C   0  0  0  0  0  0  0  0  0  0  0  0
  -30.5616    0.4891   31.3683 C   0  0  0  0  0  0  0  0  0  0  0  0
  -31.4187    1.5550   31.9817 C   0  0  0  0  0  0  0  0  0  0  0  0
  -32.6415    1.7364   31.3361 C   0  0  0  0  0  0  0  0  0  0  0  0
  -32.0594    0.1135   29.8265 C   0  0  0  0  0  0  0  0  0  0  0  0
  -32.9534    1.0269   30.2645 C   0  0  0  0  0  0  0  0  0  0  0  0
  -29.4081   -2.6500   32.7676 C   0  0  0  0  0  0  0  0  0  0  0  0
  -29.7784   -2.2321   34.0409 C   0  0  0  0  0  0  0  0  0  0  0  0
  -30.4199   -2.7620   34.8156 C   0  0  0  0  0  0  0  0  0  0  0  0
  1  2  1  0
  1  3  1  0
  3  4  1  0
  2  5  1  0
  4  6  1  0
  5  6  1  0
  5  7  1  0
  2  8  1  0
  4  9  1  0
  9 10  1  0
 10 11  1  0
 11 12  1  0
 12 13  1  0
 13 14  1  0
 14 15  1  0
  1 16  1  0
 13 17  1  0
 16 18  1  0
 18 19  2  3
 19 20  1  0
  8 27  1  0
  7 33  1  0
 33 34  1  0
 34 35  2  0
 20 21  1  0
 27 28  2  0
 28 29  1  0
 29 30  2  0
 30 32  1  0
 32 31  2  0
 31 27  1  0
 21 22  2  0
 22 23  1  0
 23 24  2  0
 24 25  1  0
 25 26  2  0
 26 21  1  0
M  END

$$$$
