No_4248-gen_results/8p0m/2024-11-26-14-13-15/
     RDKit          3D

 15 17  0  0  0  0  0  0  0  0999 V2000
  -28.0162   -0.8135   28.8779 C   0  0  0  0  0  0  0  0  0  0  0  0
  -27.0636   -0.1190   28.6079 C   0  0  0  0  0  0  0  0  0  0  0  0
  -26.9716    0.7139   27.5060 C   0  0  0  0  0  0  0  0  0  0  0  0
  -25.8205    1.4909   27.1160 C   0  0  0  0  0  0  0  0  0  0  0  0
  -24.8579    1.3421   27.6008 C   0  0  0  0  0  0  0  0  0  0  0  0
  -24.6224    0.5295   28.8144 C   0  0  0  0  0  0  0  0  0  0  0  0
  -23.3412    0.3976   29.5010 C   0  0  0  0  0  0  0  0  0  0  0  0
  -25.7444   -0.2202   29.2289 C   0  0  0  0  0  0  0  0  0  0  0  0
  -22.1653    0.5045   28.7887 C   0  0  0  0  0  0  0  0  0  0  0  0
  -27.9906   -1.2970   30.3511 C   0  0  0  0  0  0  0  0  0  0  0  0
  -26.8091   -1.5910   30.9449 N   0  0  0  0  0  0  0  0  0  0  0  0
  -25.6894   -0.8486   30.5155 C   0  0  0  0  0  0  0  0  0  0  0  0
  -22.0808    1.4069   27.7279 C   0  0  0  0  0  0  0  0  0  0  0  0
  -23.4414    1.9151   27.0328 C   0  0  0  0  0  0  0  0  0  0  0  0
  -28.1355    0.7973   26.8110 F   0  0  0  0  0  0  0  0  0  0  0  0
  2  3  1  0
  3  4  1  0
  4  5  1  0
  6  8  1  0
  3 15  1  0
  1  2  2  0
  2  8  1  0
  8 12  2  0
 12 11  1  0
 11 10  2  0
 10  1  1  0
  5  6  2  0
  6  7  1  0
  7  9  2  0
  9 13  1  0
 13 14  2  0
 14  5  1  0
M  END

$$$$
