No_4354-gen_results/8p0m/2024-11-26-14-13-15/
     RDKit          3D

 32 33  0  0  0  0  0  0  0  0999 V2000
  -28.0162   -0.8135   28.8779 C   0  0  0  0  0  0  0  0  0  0  0  0
  -27.0636   -0.1189   28.6079 C   0  0  0  0  0  0  0  0  0  0  0  0
  -26.9716    0.7139   27.5060 C   0  0  0  0  0  0  0  0  0  0  0  0
  -28.1053    0.7744   26.6421 C   0  0  0  0  0  0  0  0  0  0  0  0
  -29.2041    0.1179   27.0477 C   0  0  0  0  0  0  0  0  0  0  0  0
  -29.2127   -0.6088   28.1281 C   0  0  0  0  0  0  0  0  0  0  0  0
  -25.7106    1.4518   27.1380 C   0  0  0  0  0  0  0  0  0  0  0  0
  -25.4040    2.4718   27.7330 N   0  0  0  0  0  0  0  0  0  0  0  0
  -25.6664    3.0341   28.7902 C   0  0  0  0  0  0  0  0  0  0  0  0
  -26.1391    4.1967   28.8687 Cl  0  0  0  0  0  0  0  0  0  0  0  0
  -25.4189    2.2511   29.8064 O   0  0  0  0  0  0  0  0  0  0  0  0
  -30.3959    0.2451   26.1913 C   0  0  0  0  0  0  0  0  0  0  0  0
  -31.4524    0.1223   26.5468 O   0  0  0  0  0  0  0  0  0  0  0  0
  -30.1943    0.4513   24.8882 O   0  0  0  0  0  0  0  0  0  0  0  0
  -25.0311    0.8566   26.2622 F   0  0  0  0  0  0  0  0  0  0  0  0
  -24.7889    3.5611   26.6968 C   0  0  0  0  0  0  0  0  0  0  0  0
  -28.1017   -1.6386   30.1294 C   0  0  0  0  0  0  0  0  0  0  0  0
  -28.0724   -2.7501   30.1065 O   0  0  0  0  0  0  0  0  0  0  0  0
  -28.2576   -0.9923   31.3040 O   0  0  0  0  0  0  0  0  0  0  0  0
  -27.5568   -0.0788   31.6855 C   0  0  0  0  0  0  0  0  0  0  0  0
  -27.5079    0.2160   33.1246 C   0  0  0  0  0  0  0  0  0  0  0  0
  -28.2107    1.2781   33.6106 C   0  0  0  0  0  0  0  0  0  0  0  0
  -28.1605    1.5595   35.0003 C   0  0  0  0  0  0  0  0  0  0  0  0
  -27.4502    0.7420   35.8402 C   0  0  0  0  0  0  0  0  0  0  0  0
  -26.7106   -0.3545   35.3074 C   0  0  0  0  0  0  0  0  0  0  0  0
  -26.7215   -0.5748   33.9395 C   0  0  0  0  0  0  0  0  0  0  0  0
  -28.9691    2.1623   32.7824 C   0  0  0  0  0  0  0  0  0  0  0  0
  -28.5268    3.0987   32.2667 C   0  0  0  0  0  0  0  0  0  0  0  0
  -29.0439    4.1672   31.6952 C   0  0  0  0  0  0  0  0  0  0  0  0
  -28.3717    5.3214   31.2745 C   0  0  0  0  0  0  0  0  0  0  0  0
  -27.0343    5.4702   31.6204 C   0  0  0  0  0  0  0  0  0  0  0  0
  -26.3649    4.4658   32.3423 C   0  0  0  0  0  0  0  0  0  0  0  0
  3  7  1  0
  7  8  1  0
  8  9  1  0
  9 10  1  0
  9 11  2  0
  5 12  1  0
 12 13  2  0
 12 14  1  0
  7 15  1  0
  8 16  1  0
  1 17  1  0
 17 18  2  0
 17 19  1  0
 19 20  1  0
 22 27  1  0
 27 28  2  3
 28 29  1  0
 29 30  2  3
 30 31  1  0
 31 32  2  0
 20 21  1  0
  1  2  2  0
  2  3  1  0
  3  4  2  0
  4  5  1  0
  5  6  2  0
  6  1  1  0
 21 22  2  0
 22 23  1  0
 23 24  2  0
 24 25  1  0
 25 26  2  0
 26 21  1  0
M  END

$$$$
