No_4216-gen_results/8p0m/2024-11-26-14-13-15/
     RDKit          3D

 16 16  0  0  0  0  0  0  0  0999 V2000
  -28.0162   -0.8135   28.8779 C   0  0  0  0  0  0  0  0  0  0  0  0
  -28.4690   -0.7850   29.8287 C   0  0  0  0  0  0  0  0  0  0  0  0
  -28.1816    0.4277   28.1134 C   0  0  0  0  0  0  0  0  0  0  0  0
  -27.4498    0.6435   26.8500 C   0  0  0  0  0  0  0  0  0  0  0  0
  -26.4529    0.9939   26.6681 C   0  0  0  0  0  0  0  0  0  0  0  0
  -25.1812    0.8624   26.8165 C   0  0  0  0  0  0  0  0  0  0  0  0
  -24.2036    1.0464   27.4866 C   0  0  0  0  0  0  0  0  0  0  0  0
  -29.4367    0.0780   30.4436 C   0  0  0  0  0  0  0  0  0  0  0  0
  -23.2068    1.1720   27.8982 C   0  0  0  0  0  0  0  0  0  0  0  0
  -29.6775    1.1885   29.7341 C   0  0  0  0  0  0  0  0  0  0  0  0
  -29.0585    1.3972   28.5508 C   0  0  0  0  0  0  0  0  0  0  0  0
  -22.2021    1.1261   28.2421 C   0  0  0  0  0  0  0  0  0  0  0  0
  -28.3615    0.1662   25.7144 C   0  0  0  0  0  0  0  0  0  0  0  0
  -29.4245    1.1132   25.3809 C   0  0  0  0  0  0  0  0  0  0  0  0
  -26.5190    2.6072   26.3696 C   0  0  0  0  0  0  0  0  0  0  0  0
  -21.1790    1.4650   27.7929 F   0  0  0  0  0  0  0  0  0  0  0  0
  3  4  1  0
  4  5  2  3
  5  6  1  0
  6  7  2  3
  7  9  1  0
  9 12  3  0
  4 13  1  0
 13 14  1  0
  5 15  1  0
 12 16  1  0
  1  2  2  0
  2  8  1  0
  8 10  2  0
 10 11  1  0
 11  3  2  0
  3  1  1  0
M  END

$$$$
