No_4489-gen_results/8p0m/2024-11-26-14-13-15/
     RDKit          3D

 22 23  0  0  0  0  0  0  0  0999 V2000
  -28.0162   -0.8135   28.8779 C   0  0  0  0  0  0  0  0  0  0  0  0
  -27.0636   -0.1189   28.6079 C   0  0  0  0  0  0  0  0  0  0  0  0
  -25.7647   -0.3897   29.0360 C   0  0  0  0  0  0  0  0  0  0  0  0
  -25.5296   -1.5302   29.9014 C   0  0  0  0  0  0  0  0  0  0  0  0
  -26.6888   -2.2893   30.1810 C   0  0  0  0  0  0  0  0  0  0  0  0
  -27.8727   -1.9508   29.7373 C   0  0  0  0  0  0  0  0  0  0  0  0
  -24.5491    0.4100   28.7341 C   0  0  0  0  0  0  0  0  0  0  0  0
  -24.4789    1.1871   27.6843 C   0  0  0  0  0  0  0  0  0  0  0  0
  -23.2716    1.8973   27.3731 C   0  0  0  0  0  0  0  0  0  0  0  0
  -22.1063    1.7032   28.0412 C   0  0  0  0  0  0  0  0  0  0  0  0
  -23.3188    0.1792   29.4669 C   0  0  0  0  0  0  0  0  0  0  0  0
  -22.1165    0.8402   29.1011 C   0  0  0  0  0  0  0  0  0  0  0  0
  -28.9295   -2.7025   30.0654 F   0  0  0  0  0  0  0  0  0  0  0  0
  -23.3232    2.7577   26.3238 F   0  0  0  0  0  0  0  0  0  0  0  0
  -29.2759   -0.5213   28.4921 O   0  0  0  0  0  0  0  0  0  0  0  0
  -29.6933    0.8123   28.5094 C   0  0  0  0  0  0  0  0  0  0  0  0
  -29.7695    1.4174   29.6471 C   0  0  0  0  0  0  0  0  0  0  0  0
  -30.4317    0.9185   30.6941 C   0  0  0  0  0  0  0  0  0  0  0  0
  -30.4795    1.2428   31.6722 C   0  0  0  0  0  0  0  0  0  0  0  0
  -31.1283    0.5806   32.9009 C   0  0  0  0  0  0  0  0  0  0  0  0
  -31.7873   -0.6155   32.5469 C   0  0  0  0  0  0  0  0  0  0  0  0
  -31.7374   -1.0881   31.2893 C   0  0  0  0  0  0  0  0  0  0  0  0
  3  7  1  0
  6 13  1  0
  9 14  1  0
  1 15  1  0
 15 16  1  0
 16 17  1  0
 17 18  2  3
 18 19  1  0
 19 20  2  3
 20 21  1  0
 21 22  2  0
  7  8  2  0
  8  9  1  0
  9 10  2  0
 10 12  1  0
 12 11  2  0
 11  7  1  0
  1  2  2  0
  2  3  1  0
  3  4  2  0
  4  5  1  0
  5  6  2  0
  6  1  1  0
M  END

$$$$
