No_4122-gen_results/8p0m/2024-11-26-14-13-15/
     RDKit          3D

 28 30  0  0  0  0  0  0  0  0999 V2000
  -28.0162   -0.8135   28.8779 C   0  0  0  0  0  0  0  0  0  0  0  0
  -27.0636   -0.1190   28.6079 C   0  0  0  0  0  0  0  0  0  0  0  0
  -26.9716    0.7139   27.5060 C   0  0  0  0  0  0  0  0  0  0  0  0
  -28.1053    0.7744   26.6421 C   0  0  0  0  0  0  0  0  0  0  0  0
  -29.2008    0.1044   27.0527 C   0  0  0  0  0  0  0  0  0  0  0  0
  -29.2096   -0.6029   28.1853 C   0  0  0  0  0  0  0  0  0  0  0  0
  -30.3702    0.2264   26.1604 C   0  0  0  0  0  0  0  0  0  0  0  0
  -30.9870    1.1892   26.1601 O   0  0  0  0  0  0  0  0  0  0  0  0
  -30.8551   -0.9345   25.7613 O   0  0  0  0  0  0  0  0  0  0  0  0
  -25.6964   -0.2125   29.4271 C   0  0  0  0  0  0  0  0  0  0  0  0
  -25.2410    0.9799   30.1119 C   0  0  0  0  0  0  0  0  0  0  0  0
  -23.9054    0.9660   30.4720 C   0  0  0  0  0  0  0  0  0  0  0  0
  -23.0953   -0.1865   30.3671 C   0  0  0  0  0  0  0  0  0  0  0  0
  -23.5788   -1.2745   29.6816 C   0  0  0  0  0  0  0  0  0  0  0  0
  -24.8793   -1.3106   29.1385 C   0  0  0  0  0  0  0  0  0  0  0  0
  -28.0772   -1.6807   30.1362 C   0  0  0  0  0  0  0  0  0  0  0  0
  -28.3677   -1.1777   31.2356 O   0  0  0  0  0  0  0  0  0  0  0  0
  -27.8030   -2.8909   29.9579 O   0  0  0  0  0  0  0  0  0  0  0  0
  -26.2304    2.3312   30.2844 Cl  0  0  0  0  0  0  0  0  0  0  0  0
  -28.0420    1.8362   25.3139 Cl  0  0  0  0  0  0  0  0  0  0  0  0
  -29.1260   -1.7719   32.1718 C   0  0  0  0  0  0  0  0  0  0  0  0
  -29.1976   -1.0820   33.3916 C   0  0  0  0  0  0  0  0  0  0  0  0
  -29.5239   -1.7639   34.4528 C   0  0  0  0  0  0  0  0  0  0  0  0
  -30.0096   -3.0736   34.3462 C   0  0  0  0  0  0  0  0  0  0  0  0
  -29.8405   -3.7699   33.1626 C   0  0  0  0  0  0  0  0  0  0  0  0
  -29.2763   -3.0950   32.0392 C   0  0  0  0  0  0  0  0  0  0  0  0
  -29.1703   -3.7924   30.9947 O   0  0  0  0  0  0  0  0  0  0  0  0
  -29.3079   -4.8832   30.4798 C   0  0  0  0  0  0  0  0  0  0  0  0
  5  7  1  0
  7  8  2  0
  7  9  1  0
  2 10  1  0
  1 16  1  0
 16 17  1  0
 16 18  2  0
 11 19  1  0
  4 20  1  0
 17 21  1  0
 26 27  1  0
 27 28  1  0
  1  2  1  0
  2  3  2  0
  3  4  1  0
  4  5  2  0
  5  6  1  0
  6  1  2  0
 10 11  2  0
 11 12  1  0
 12 13  2  0
 13 14  1  0
 14 15  2  0
 15 10  1  0
 21 22  2  0
 22 23  1  0
 23 24  2  0
 24 25  1  0
 25 26  2  0
 26 21  1  0
M  END

$$$$
