No_433-gen_results/8p0m/2024-11-26-14-13-15/
     RDKit          3D

 26 27  0  0  0  0  0  0  0  0999 V2000
  -28.0162   -0.8135   28.8779 C   0  0  0  0  0  0  0  0  0  0  0  0
  -28.4690   -0.7850   29.8287 C   0  0  0  0  0  0  0  0  0  0  0  0
  -27.0871    0.2903   28.6377 C   0  0  0  0  0  0  0  0  0  0  0  0
  -26.2516    0.4114   27.4223 C   0  0  0  0  0  0  0  0  0  0  0  0
  -28.3141   -0.1267   30.7102 C   0  0  0  0  0  0  0  0  0  0  0  0
  -27.4825    1.0076   30.8097 C   0  0  0  0  0  0  0  0  0  0  0  0
  -26.7770    1.1718   29.6871 C   0  0  0  0  0  0  0  0  0  0  0  0
  -24.9302    0.3522   27.6131 C   0  0  0  0  0  0  0  0  0  0  0  0
  -24.0765    0.4795   26.4644 C   0  0  0  0  0  0  0  0  0  0  0  0
  -24.6819    0.8030   25.2411 C   0  0  0  0  0  0  0  0  0  0  0  0
  -26.6809    0.6288   26.1486 C   0  0  0  0  0  0  0  0  0  0  0  0
  -25.9889    0.7294   25.0835 C   0  0  0  0  0  0  0  0  0  0  0  0
  -28.2177    0.5992   25.9352 C   0  0  0  0  0  0  0  0  0  0  0  0
  -28.7467    0.0755   25.0110 O   0  0  0  0  0  0  0  0  0  0  0  0
  -29.0267    1.1767   26.8956 O   0  0  0  0  0  0  0  0  0  0  0  0
  -30.3433    1.3163   26.6484 C   0  0  0  0  0  0  0  0  0  0  0  0
  -31.1079    1.9172   27.5208 C   0  0  0  0  0  0  0  0  0  0  0  0
  -30.5234    2.7250   28.4744 C   0  0  0  0  0  0  0  0  0  0  0  0
  -30.0585    3.9703   28.1508 C   0  0  0  0  0  0  0  0  0  0  0  0
  -29.0365    4.3755   28.7628 F   0  0  0  0  0  0  0  0  0  0  0  0
  -30.0161    4.3037   26.9026 F   0  0  0  0  0  0  0  0  0  0  0  0
  -31.0678    4.8913   28.6022 F   0  0  0  0  0  0  0  0  0  0  0  0
  -29.4660   -1.9058   30.0046 O   0  0  0  0  0  0  0  0  0  0  0  0
  -30.7994   -1.6963   30.0120 C   0  0  0  0  0  0  0  0  0  0  0  0
  -31.4586   -2.5710   30.8429 C   0  0  0  0  0  0  0  0  0  0  0  0
  -31.0311   -3.5166   31.2872 O   0  0  0  0  0  0  0  0  0  0  0  0
  3  4  1  0
 11 13  1  0
 13 14  2  0
 13 15  1  0
 15 16  1  0
 16 17  1  0
 17 18  1  0
 18 19  1  0
 19 20  1  0
 19 21  1  0
 19 22  1  0
  2 23  1  0
 23 24  1  0
 24 25  1  0
 25 26  2  0
  4  8  2  0
  8  9  1  0
  9 10  2  0
 10 12  1  0
 12 11  2  0
 11  4  1  0
  1  2  2  0
  2  5  1  0
  5  6  2  0
  6  7  1  0
  7  3  2  0
  3  1  1  0
M  END

$$$$
