No_4027-gen_results/8p0m/2024-11-26-14-13-15/
     RDKit          3D

 19 19  0  0  0  0  0  0  0  0999 V2000
  -28.0544   -1.0498   28.7246 N   0  0  0  0  0  0  0  0  0  0  0  0
  -26.9659   -0.4722   28.7709 C   0  0  0  0  0  0  0  0  0  0  0  0
  -26.5486    0.3876   27.8310 C   0  0  0  0  0  0  0  0  0  0  0  0
  -25.2662    1.0684   27.8062 C   0  0  0  0  0  0  0  0  0  0  0  0
  -24.3565    0.7761   28.8458 C   0  0  0  0  0  0  0  0  0  0  0  0
  -24.7750   -0.1742   29.8298 C   0  0  0  0  0  0  0  0  0  0  0  0
  -25.9839   -0.8112   29.8049 C   0  0  0  0  0  0  0  0  0  0  0  0
  -29.0059   -0.6504   29.6882 C   0  0  0  0  0  0  0  0  0  0  0  0
  -30.2559   -1.4458   29.6619 C   0  0  0  0  0  0  0  0  0  0  0  0
  -30.0555   -2.5456   30.1244 N   0  0  0  0  0  0  0  0  0  0  0  0
  -30.9828   -1.4790   28.3530 C   0  0  0  0  0  0  0  0  0  0  0  0
  -23.0586    1.4093   28.8884 C   0  0  0  0  0  0  0  0  0  0  0  0
  -22.3287    1.2817   29.7928 O   0  0  0  0  0  0  0  0  0  0  0  0
  -22.6489    2.0733   27.8135 O   0  0  0  0  0  0  0  0  0  0  0  0
  -30.8618   -0.5416   27.5886 O   0  0  0  0  0  0  0  0  0  0  0  0
  -31.7606   -2.4116   28.0885 O   0  0  0  0  0  0  0  0  0  0  0  0
  -30.9530   -3.4430   30.5165 C   0  0  0  0  0  0  0  0  0  0  0  0
  -30.4234   -4.7574   30.9815 C   0  0  0  0  0  0  0  0  0  0  0  0
  -29.0294   -4.7129   31.0155 C   0  0  0  0  0  0  0  0  0  0  0  0
  1  2  1  0
  1  8  1  0
  8  9  1  0
  9 10  1  0
  9 11  1  0
  5 12  1  0
 12 13  1  0
 12 14  2  0
 11 15  2  0
 11 16  1  0
 10 17  1  0
 17 18  2  3
 18 19  1  0
  2  3  2  0
  3  4  1  0
  4  5  2  0
  5  6  1  0
  6  7  2  0
  7  2  1  0
M  END

$$$$
