No_4615-gen_results/8p0m/2024-11-26-14-13-15/
     RDKit          3D

 29 31  0  0  0  0  0  0  0  0999 V2000
  -28.0162   -0.8135   28.8779 C   0  0  0  0  0  0  0  0  0  0  0  0
  -27.0636   -0.1190   28.6079 C   0  0  0  0  0  0  0  0  0  0  0  0
  -26.8756    1.1325   28.9134 C   0  0  0  0  0  0  0  0  0  0  0  0
  -27.9014    1.8066   29.6436 C   0  0  0  0  0  0  0  0  0  0  0  0
  -29.0458   -0.2316   29.7181 C   0  0  0  0  0  0  0  0  0  0  0  0
  -28.9402    1.0517   30.0597 C   0  0  0  0  0  0  0  0  0  0  0  0
  -25.8177   -1.0075   27.7677 Cl  0  0  0  0  0  0  0  0  0  0  0  0
  -30.0298    1.7133   30.8598 C   0  0  0  0  0  0  0  0  0  0  0  0
  -29.6885    2.4974   31.7045 N   0  0  0  0  0  0  0  0  0  0  0  0
  -31.2173    1.3561   30.6358 O   0  0  0  0  0  0  0  0  0  0  0  0
  -30.6565    3.2138   32.5859 C   0  0  0  0  0  0  0  0  0  0  0  0
  -31.6613    3.1829   32.7594 C   0  0  0  0  0  0  0  0  0  0  0  0
  -32.4932    3.9369   33.6446 C   0  0  0  0  0  0  0  0  0  0  0  0
  -31.8412    4.8818   34.4495 C   0  0  0  0  0  0  0  0  0  0  0  0
  -30.4663    5.0005   34.3022 C   0  0  0  0  0  0  0  0  0  0  0  0
  -29.7591    4.2144   33.4156 C   0  0  0  0  0  0  0  0  0  0  0  0
  -32.5833    5.6986   35.3800 C   0  0  0  0  0  0  0  0  0  0  0  0
  -32.0206    6.3350   36.1829 O   0  0  0  0  0  0  0  0  0  0  0  0
  -33.8373    5.5022   35.3866 O   0  0  0  0  0  0  0  0  0  0  0  0
  -25.6591    1.9458   28.4508 C   0  0  0  0  0  0  0  0  0  0  0  0
  -24.5539    1.9274   29.1011 C   0  0  0  0  0  0  0  0  0  0  0  0
  -23.3052    2.3329   28.4618 C   0  0  0  0  0  0  0  0  0  0  0  0
  -23.3498    2.6507   27.0887 C   0  0  0  0  0  0  0  0  0  0  0  0
  -24.5898    2.6296   26.4436 C   0  0  0  0  0  0  0  0  0  0  0  0
  -25.7471    2.3219   27.0481 C   0  0  0  0  0  0  0  0  0  0  0  0
  -24.3457    1.5786   30.5617 C   0  0  0  0  0  0  0  0  0  0  0  0
  -23.8928    0.4577   30.8381 O   0  0  0  0  0  0  0  0  0  0  0  0
  -24.7273    2.4519   31.4575 O   0  0  0  0  0  0  0  0  0  0  0  0
  -24.4336   -0.3392   31.8127 C   0  0  0  0  0  0  0  0  0  0  0  0
  2  7  1  0
  6  8  1  0
  8  9  1  0
  8 10  2  0
  9 11  1  0
 14 17  1  0
 17 18  2  0
 17 19  1  0
  3 20  1  0
 21 26  1  0
 26 27  1  0
 26 28  2  0
 27 29  1  0
 11 12  2  0
 12 13  1  0
 13 14  2  0
 14 15  1  0
 15 16  2  0
 16 11  1  0
  1  2  2  0
  2  3  1  0
  3  4  2  0
  4  6  1  0
  6  5  2  0
  5  1  1  0
 20 21  2  0
 21 22  1  0
 22 23  2  0
 23 24  1  0
 24 25  2  0
 25 20  1  0
M  END

$$$$
