No_4262-gen_results/8p0m/2024-11-26-14-13-15/
     RDKit          3D

 11 11  0  0  0  0  0  0  0  0999 V2000
  -28.0727   -1.2542   28.5316 F   0  0  0  0  0  0  0  0  0  0  0  0
  -27.3591   -0.3792   28.7224 C   0  0  0  0  0  0  0  0  0  0  0  0
  -26.9761   -0.0935   27.6617 F   0  0  0  0  0  0  0  0  0  0  0  0
  -26.1757   -0.7134   29.6462 C   0  0  0  0  0  0  0  0  0  0  0  0
  -27.9854    0.7096   29.2930 F   0  0  0  0  0  0  0  0  0  0  0  0
  -25.9051    0.0253   30.6180 N   0  0  0  0  0  0  0  0  0  0  0  0
  -24.8918   -0.0194   31.2821 C   0  0  0  0  0  0  0  0  0  0  0  0
  -25.3153   -1.7732   29.3874 C   0  0  0  0  0  0  0  0  0  0  0  0
  -24.1704   -2.0254   30.1543 C   0  0  0  0  0  0  0  0  0  0  0  0
  -23.9401   -1.0868   31.1853 C   0  0  0  0  0  0  0  0  0  0  0  0
  -26.5529   -1.1272   30.5208 Cl  0  0  0  0  0  0  0  0  0  0  0  0
  1  2  1  0
  2  3  1  0
  2  4  1  0
  2  5  1  0
  4  6  1  0
  6  7  2  0
  4  8  1  0
  8  9  1  0
  7 10  1  0
  9 10  2  0
  4 11  1  0
M  END

$$$$
