No_4053-gen_results/8p0m/2024-11-26-14-13-15/
     RDKit          3D

 12 12  0  0  0  0  0  0  0  0999 V2000
  -28.0162   -0.8135   28.8779 C   0  0  0  0  0  0  0  0  0  0  0  0
  -27.0636   -0.1190   28.6079 C   0  0  0  0  0  0  0  0  0  0  0  0
  -26.9716    0.7139   27.5060 C   0  0  0  0  0  0  0  0  0  0  0  0
  -28.1053    0.7744   26.6421 C   0  0  0  0  0  0  0  0  0  0  0  0
  -29.2008    0.1044   27.0527 C   0  0  0  0  0  0  0  0  0  0  0  0
  -29.2096   -0.6029   28.1853 C   0  0  0  0  0  0  0  0  0  0  0  0
  -30.2851    0.2916   26.0027 C   0  0  0  0  0  0  0  0  0  0  0  0
  -30.9770    1.0934   26.0318 O   0  0  0  0  0  0  0  0  0  0  0  0
  -30.6294   -0.9419   25.5036 O   0  0  0  0  0  0  0  0  0  0  0  0
  -25.5267   -0.2210   29.5929 Cl  0  0  0  0  0  0  0  0  0  0  0  0
  -28.0911   -1.8304   30.3386 Cl  0  0  0  0  0  0  0  0  0  0  0  0
  -25.3517    1.3887   27.1825 Cl  0  0  0  0  0  0  0  0  0  0  0  0
  5  7  1  0
  7  8  1  0
  7  9  2  0
  2 10  1  0
  1 11  1  0
  3 12  1  0
  1  2  2  0
  2  3  1  0
  3  4  2  0
  4  5  1  0
  5  6  2  0
  6  1  1  0
M  END

$$$$
