No_453-gen_results/8p0m/2024-11-26-14-13-15/
     RDKit          3D

 12 13  0  0  0  0  0  0  0  0999 V2000
  -28.0162   -0.8135   28.8779 C   0  0  0  0  0  0  0  0  0  0  0  0
  -28.4690   -0.7850   29.8287 C   0  0  0  0  0  0  0  0  0  0  0  0
  -27.0871    0.2903   28.6377 C   0  0  0  0  0  0  0  0  0  0  0  0
  -26.8317    1.2487   29.5869 C   0  0  0  0  0  0  0  0  0  0  0  0
  -28.3914    0.0801   31.0065 C   0  0  0  0  0  0  0  0  0  0  0  0
  -27.4940    1.1521   30.7841 C   0  0  0  0  0  0  0  0  0  0  0  0
  -26.3172    0.3994   27.3653 C   0  0  0  0  0  0  0  0  0  0  0  0
  -26.8815    0.9711   26.3721 C   0  0  0  0  0  0  0  0  0  0  0  0
  -25.0088   -0.0567   27.3826 C   0  0  0  0  0  0  0  0  0  0  0  0
  -26.2590    0.8367   25.0813 C   0  0  0  0  0  0  0  0  0  0  0  0
  -24.2318    0.0673   26.2174 C   0  0  0  0  0  0  0  0  0  0  0  0
  -24.8997    0.5146   25.0354 C   0  0  0  0  0  0  0  0  0  0  0  0
  3  7  1  0
  1  2  2  0
  2  5  1  0
  5  6  2  0
  6  4  1  0
  4  3  2  0
  3  1  1  0
  7  8  2  0
  8 10  1  0
 10 12  2  0
 12 11  1  0
 11  9  2  0
  9  7  1  0
M  END

$$$$
