No_4036-gen_results/8p0m/2024-11-26-14-13-15/
     RDKit          3D

 17 17  0  0  0  0  0  0  0  0999 V2000
  -28.0162   -0.8135   28.8779 C   0  0  0  0  0  0  0  0  0  0  0  0
  -28.4690   -0.7850   29.8287 C   0  0  0  0  0  0  0  0  0  0  0  0
  -28.1960    0.3478   28.0550 C   0  0  0  0  0  0  0  0  0  0  0  0
  -29.0191    1.3501   28.3782 C   0  0  0  0  0  0  0  0  0  0  0  0
  -29.6249    1.2683   29.6012 C   0  0  0  0  0  0  0  0  0  0  0  0
  -30.5243    2.3146   30.0648 C   0  0  0  0  0  0  0  0  0  0  0  0
  -29.3399    0.1476   30.4094 C   0  0  0  0  0  0  0  0  0  0  0  0
  -30.1322    2.9927   31.1194 C   0  0  0  0  0  0  0  0  0  0  0  0
  -28.8620    2.8080   31.7894 C   0  0  0  0  0  0  0  0  0  0  0  0
  -28.5052    3.6475   32.8859 C   0  0  0  0  0  0  0  0  0  0  0  0
  -27.4499    0.3255   26.6738 C   0  0  0  0  0  0  0  0  0  0  0  0
  -26.4432    1.3488   26.4634 C   0  0  0  0  0  0  0  0  0  0  0  0
  -25.3439    1.4243   27.3729 C   0  0  0  0  0  0  0  0  0  0  0  0
  -24.3674    2.4066   27.1398 C   0  0  0  0  0  0  0  0  0  0  0  0
  -23.1965    2.4724   27.9350 C   0  0  0  0  0  0  0  0  0  0  0  0
  -22.8726    1.3095   28.7594 C   0  0  0  0  0  0  0  0  0  0  0  0
  -23.7900    0.2929   28.8438 C   0  0  0  0  0  0  0  0  0  0  0  0
  5  6  1  0
  6  8  2  3
  8  9  1  0
  9 10  2  0
  3 11  1  0
 11 12  1  0
 12 13  2  3
 13 14  1  0
 14 15  2  3
 15 16  1  0
 16 17  2  0
  1  2  2  0
  2  7  1  0
  7  5  2  0
  5  4  1  0
  4  3  2  0
  3  1  1  0
M  END

$$$$
