No_4600-gen_results/8p0m/2024-11-26-14-13-15/
     RDKit          3D

 14 14  0  0  0  0  0  0  0  0999 V2000
  -28.0162   -0.8135   28.8779 C   0  0  0  0  0  0  0  0  0  0  0  0
  -27.0636   -0.1189   28.6079 C   0  0  0  0  0  0  0  0  0  0  0  0
  -26.8756    1.1325   28.9134 C   0  0  0  0  0  0  0  0  0  0  0  0
  -27.9014    1.8066   29.6436 C   0  0  0  0  0  0  0  0  0  0  0  0
  -29.0458   -0.2316   29.7181 C   0  0  0  0  0  0  0  0  0  0  0  0
  -28.9402    1.0517   30.0597 C   0  0  0  0  0  0  0  0  0  0  0  0
  -29.9284   -1.1727   30.1111 O   0  0  0  0  0  0  0  0  0  0  0  0
  -25.6855    1.9507   28.4277 C   0  0  0  0  0  0  0  0  0  0  0  0
  -25.2463    2.9107   28.8726 O   0  0  0  0  0  0  0  0  0  0  0  0
  -25.2850    1.5946   27.1269 O   0  0  0  0  0  0  0  0  0  0  0  0
  -31.1541   -1.1003   29.7535 C   0  0  0  0  0  0  0  0  0  0  0  0
  -31.7477   -2.3288   29.6627 C   0  0  0  0  0  0  0  0  0  0  0  0
  -31.1706   -3.4523   30.2367 C   0  0  0  0  0  0  0  0  0  0  0  0
  -29.8882   -3.2505   30.6896 C   0  0  0  0  0  0  0  0  0  0  0  0
  5  7  1  0
  3  8  1  0
  8  9  2  0
  8 10  1  0
  7 11  1  0
 11 12  2  3
 12 13  1  0
 13 14  2  0
  1  2  2  0
  2  3  1  0
  3  4  2  0
  4  6  1  0
  6  5  2  0
  5  1  1  0
M  END

$$$$
