No_4909-gen_results/8p0m/2024-11-26-14-13-15/
     RDKit          3D

 19 20  0  0  0  0  0  0  0  0999 V2000
  -28.0162   -0.8135   28.8779 C   0  0  0  0  0  0  0  0  0  0  0  0
  -27.0636   -0.1189   28.6079 C   0  0  0  0  0  0  0  0  0  0  0  0
  -27.0010    0.6913   27.4910 C   0  0  0  0  0  0  0  0  0  0  0  0
  -28.1373    0.7363   26.6350 C   0  0  0  0  0  0  0  0  0  0  0  0
  -29.2360    0.0765   27.0690 C   0  0  0  0  0  0  0  0  0  0  0  0
  -29.2177   -0.6429   28.1747 C   0  0  0  0  0  0  0  0  0  0  0  0
  -30.4152    0.1590   26.1820 C   0  0  0  0  0  0  0  0  0  0  0  0
  -31.3727   -0.5052   26.4854 N   0  0  0  0  0  0  0  0  0  0  0  0
  -30.3871    0.8406   25.1078 O   0  0  0  0  0  0  0  0  0  0  0  0
  -32.5900   -0.5930   25.5964 C   0  0  0  0  0  0  0  0  0  0  0  0
  -25.7210   -0.2115   29.4350 C   0  0  0  0  0  0  0  0  0  0  0  0
  -25.3022    0.7897   30.2474 C   0  0  0  0  0  0  0  0  0  0  0  0
  -24.0581    0.7014   30.9268 C   0  0  0  0  0  0  0  0  0  0  0  0
  -23.3501   -0.3108   30.6395 C   0  0  0  0  0  0  0  0  0  0  0  0
  -23.6595   -1.3727   29.7986 C   0  0  0  0  0  0  0  0  0  0  0  0
  -24.9055   -1.3330   29.1148 C   0  0  0  0  0  0  0  0  0  0  0  0
  -28.1087   -1.7949   30.3569 Cl  0  0  0  0  0  0  0  0  0  0  0  0
  -26.0903    1.8366   30.5010 F   0  0  0  0  0  0  0  0  0  0  0  0
  -25.5213    1.5138   26.9689 Cl  0  0  0  0  0  0  0  0  0  0  0  0
  5  7  1  0
  7  8  1  0
  7  9  2  0
  8 10  1  0
  2 11  1  0
  1 17  1  0
 12 18  1  0
  3 19  1  0
 11 12  2  0
 12 13  1  0
 13 14  2  0
 14 15  1  0
 15 16  2  0
 16 11  1  0
  1  2  2  0
  2  3  1  0
  3  4  2  0
  4  5  1  0
  5  6  2  0
  6  1  1  0
M  END

$$$$
