No_4170-gen_results/8p0m/2024-11-26-14-13-15/
     RDKit          3D

 13 14  0  0  0  0  0  0  0  0999 V2000
  -28.0162   -0.8135   28.8779 C   0  0  0  0  0  0  0  0  0  0  0  0
  -27.0636   -0.1189   28.6079 C   0  0  0  0  0  0  0  0  0  0  0  0
  -25.7647   -0.3897   29.0360 C   0  0  0  0  0  0  0  0  0  0  0  0
  -25.4887   -1.1536   29.7171 C   0  0  0  0  0  0  0  0  0  0  0  0
  -27.7606   -1.9034   29.8572 C   0  0  0  0  0  0  0  0  0  0  0  0
  -26.4781   -2.1057   30.2362 C   0  0  0  0  0  0  0  0  0  0  0  0
  -28.5998   -2.7992   30.2783 F   0  0  0  0  0  0  0  0  0  0  0  0
  -24.6538    0.6581   28.5170 C   0  0  0  0  0  0  0  0  0  0  0  0
  -23.3764    0.4640   29.0192 C   0  0  0  0  0  0  0  0  0  0  0  0
  -22.3356    1.2996   28.5532 C   0  0  0  0  0  0  0  0  0  0  0  0
  -22.6008    2.1868   27.4755 C   0  0  0  0  0  0  0  0  0  0  0  0
  -24.7879    1.5305   27.4508 C   0  0  0  0  0  0  0  0  0  0  0  0
  -23.7890    2.2780   26.9594 C   0  0  0  0  0  0  0  0  0  0  0  0
  5  7  1  0
  3  8  1  0
  1  2  2  0
  2  3  1  0
  3  4  2  0
  4  6  1  0
  6  5  2  0
  5  1  1  0
  8  9  2  0
  9 10  1  0
 10 11  2  0
 11 13  1  0
 13 12  2  0
 12  8  1  0
M  END

$$$$
