No_4995-gen_results/8p0m/2024-11-26-14-13-15/
     RDKit          3D

 28 30  0  0  0  0  0  0  0  0999 V2000
  -28.0162   -0.8135   28.8779 C   0  0  0  0  0  0  0  0  0  0  0  0
  -27.0636   -0.1190   28.6079 C   0  0  0  0  0  0  0  0  0  0  0  0
  -25.7923   -0.4302   29.0761 C   0  0  0  0  0  0  0  0  0  0  0  0
  -25.5681   -1.2411   29.7572 C   0  0  0  0  0  0  0  0  0  0  0  0
  -26.6114   -2.1840   30.2439 C   0  0  0  0  0  0  0  0  0  0  0  0
  -27.8191   -1.9189   29.8034 C   0  0  0  0  0  0  0  0  0  0  0  0
  -28.8528   -2.7193   30.2109 O   0  0  0  0  0  0  0  0  0  0  0  0
  -29.1753   -2.8477   31.5232 C   0  0  0  0  0  0  0  0  0  0  0  0
  -29.8097   -4.1122   31.7840 C   0  0  0  0  0  0  0  0  0  0  0  0
  -29.6395   -5.0142   31.1357 O   0  0  0  0  0  0  0  0  0  0  0  0
  -30.5296   -4.2882   32.9292 N   0  0  0  0  0  0  0  0  0  0  0  0
  -31.1781   -5.5235   33.2631 C   0  0  0  0  0  0  0  0  0  0  0  0
  -27.2505    1.0556   27.6367 C   0  0  0  0  0  0  0  0  0  0  0  0
  -26.8218    2.0223   27.4743 C   0  0  0  0  0  0  0  0  0  0  0  0
  -27.0209    3.0156   26.4011 C   0  0  0  0  0  0  0  0  0  0  0  0
  -27.8778    2.6405   25.3729 C   0  0  0  0  0  0  0  0  0  0  0  0
  -28.1863    0.6585   26.4553 C   0  0  0  0  0  0  0  0  0  0  0  0
  -28.3977    1.4591   25.4503 C   0  0  0  0  0  0  0  0  0  0  0  0
  -29.3023    1.0710   24.3391 C   0  0  0  0  0  0  0  0  0  0  0  0
  -30.4083    1.8062   24.1042 C   0  0  0  0  0  0  0  0  0  0  0  0
  -31.5311    1.7252   24.7247 C   0  0  0  0  0  0  0  0  0  0  0  0
  -31.7885    0.8461   25.5450 C   0  0  0  0  0  0  0  0  0  0  0  0
  -32.8364    0.8238   26.4289 C   0  0  0  0  0  0  0  0  0  0  0  0
  -33.8065    1.8402   26.2712 C   0  0  0  0  0  0  0  0  0  0  0  0
  -33.6525    2.8354   25.3676 C   0  0  0  0  0  0  0  0  0  0  0  0
  -32.4821    2.9270   24.6002 C   0  0  0  0  0  0  0  0  0  0  0  0
  -29.1579   -0.2102   23.7421 C   0  0  0  0  0  0  0  0  0  0  0  0
  -30.1206    2.7297   23.1364 O   0  0  0  0  0  0  0  0  0  0  0  0
  6  7  1  0
  7  8  1  0
  8  9  1  0
  9 10  2  0
  9 11  1  0
 11 12  1  0
  2 13  1  0
 18 19  1  0
 19 20  1  0
 20 21  1  0
 19 27  1  0
 20 28  2  0
  1  2  2  0
  2  3  1  0
  3  4  2  0
  4  5  1  0
  5  6  2  0
  6  1  1  0
 13 14  2  0
 14 15  1  0
 15 16  2  0
 16 18  1  0
 18 17  2  0
 17 13  1  0
 21 22  2  0
 22 23  1  0
 23 24  2  0
 24 25  1  0
 25 26  2  0
 26 21  1  0
M  END

$$$$
