No_4826-gen_results/8p0m/2024-11-26-14-13-15/
     RDKit          3D

 17 19  0  0  0  0  0  0  0  0999 V2000
  -28.0162   -0.8135   28.8779 C   0  0  0  0  0  0  0  0  0  0  0  0
  -28.4690   -0.7850   29.8287 C   0  0  0  0  0  0  0  0  0  0  0  0
  -28.1960    0.3478   28.0550 C   0  0  0  0  0  0  0  0  0  0  0  0
  -29.0191    1.3501   28.3782 C   0  0  0  0  0  0  0  0  0  0  0  0
  -29.4107    0.1803   30.3782 C   0  0  0  0  0  0  0  0  0  0  0  0
  -29.6059    1.2495   29.6193 C   0  0  0  0  0  0  0  0  0  0  0  0
  -27.3362    0.3775   26.5214 Cl  0  0  0  0  0  0  0  0  0  0  0  0
  -30.0314   -0.0282   31.7602 C   0  0  0  0  0  0  0  0  0  0  0  0
  -29.8856    0.8011   32.6349 N   0  0  0  0  0  0  0  0  0  0  0  0
  -29.3116    1.9457   32.5224 C   0  0  0  0  0  0  0  0  0  0  0  0
  -28.6450    2.6036   33.0908 C   0  0  0  0  0  0  0  0  0  0  0  0
  -28.2033    2.1994   34.4571 C   0  0  0  0  0  0  0  0  0  0  0  0
  -28.7702    1.0765   34.9047 C   0  0  0  0  0  0  0  0  0  0  0  0
  -29.5390    0.2106   33.9818 C   0  0  0  0  0  0  0  0  0  0  0  0
  -30.9757   -1.0713   31.7592 C   0  0  0  0  0  0  0  0  0  0  0  0
  -30.0137   -1.0202   34.4011 C   0  0  0  0  0  0  0  0  0  0  0  0
  -30.7445   -1.7452   33.1831 C   0  0  0  0  0  0  0  0  0  0  0  0
  3  7  1  0
  5  8  1  0
  8  9  1  0
  9 10  1  0
 11 12  1  0
  9 14  1  0
 13 14  1  0
  8 15  1  0
 14 16  1  0
 15 17  1  0
 17 16  1  0
 10 11  1  0
 12 13  1  0
  1  2  2  0
  2  5  1  0
  5  6  2  0
  6  4  1  0
  4  3  2  0
  3  1  1  0
M  END

$$$$
