No_400-gen_results/8p0m/2024-11-26-14-13-15/
     RDKit          3D

 13 14  0  0  0  0  0  0  0  0999 V2000
  -28.0162   -0.8135   28.8779 C   0  0  0  0  0  0  0  0  0  0  0  0
  -28.4690   -0.7850   29.8287 C   0  0  0  0  0  0  0  0  0  0  0  0
  -27.1356    0.2359   28.5352 C   0  0  0  0  0  0  0  0  0  0  0  0
  -26.8745    1.2825   29.3982 C   0  0  0  0  0  0  0  0  0  0  0  0
  -27.5070    1.2380   30.6295 C   0  0  0  0  0  0  0  0  0  0  0  0
  -28.3269    0.1637   30.9240 C   0  0  0  0  0  0  0  0  0  0  0  0
  -26.4007    0.2985   27.2217 C   0  0  0  0  0  0  0  0  0  0  0  0
  -25.1837    0.2398   27.2131 C   0  0  0  0  0  0  0  0  0  0  0  0
  -24.3205    0.1796   28.3831 C   0  0  0  0  0  0  0  0  0  0  0  0
  -23.0232    0.7441   28.3541 C   0  0  0  0  0  0  0  0  0  0  0  0
  -22.6278    1.5628   27.2614 C   0  0  0  0  0  0  0  0  0  0  0  0
  -23.4807    1.7444   26.1964 C   0  0  0  0  0  0  0  0  0  0  0  0
  -24.6727    1.1818   26.1359 C   0  0  0  0  0  0  0  0  0  0  0  0
  3  7  1  0
  7  8  1  0
  1  2  2  0
  2  6  1  0
  6  5  2  0
  5  4  1  0
  4  3  2  0
  3  1  1  0
  8  9  2  0
  9 10  1  0
 10 11  2  0
 11 12  1  0
 12 13  2  0
 13  8  1  0
M  END

$$$$
