No_4104-gen_results/8p0m/2024-11-26-14-13-15/
     RDKit          3D

 21 23  0  0  0  0  0  0  0  0999 V2000
  -28.0162   -0.8135   28.8779 C   0  0  0  0  0  0  0  0  0  0  0  0
  -27.0636   -0.1189   28.6079 C   0  0  0  0  0  0  0  0  0  0  0  0
  -27.0010    0.6913   27.4910 C   0  0  0  0  0  0  0  0  0  0  0  0
  -28.1420    0.8282   26.7994 C   0  0  0  0  0  0  0  0  0  0  0  0
  -29.2898   -0.4871   28.3661 C   0  0  0  0  0  0  0  0  0  0  0  0
  -28.1796    1.6545   25.6431 C   0  0  0  0  0  0  0  0  0  0  0  0
  -29.2994    0.2379   27.2252 C   0  0  0  0  0  0  0  0  0  0  0  0
  -27.9608   -1.8202   30.3658 Cl  0  0  0  0  0  0  0  0  0  0  0  0
  -27.8579    2.5265   25.1749 C   0  0  0  0  0  0  0  0  0  0  0  0
  -29.0149    0.8389   24.4223 C   0  0  0  0  0  0  0  0  0  0  0  0
  -27.0551    3.4086   26.1403 C   0  0  0  0  0  0  0  0  0  0  0  0
  -27.5182    4.5341   26.9408 C   0  0  0  0  0  0  0  0  0  0  0  0
  -26.7770    5.1412   27.8391 C   0  0  0  0  0  0  0  0  0  0  0  0
  -27.2497    6.0239   28.7929 C   0  0  0  0  0  0  0  0  0  0  0  0
  -26.4597    6.5272   29.8646 C   0  0  0  0  0  0  0  0  0  0  0  0
  -25.1221    6.1362   29.8201 C   0  0  0  0  0  0  0  0  0  0  0  0
  -24.6436    5.3118   28.8433 C   0  0  0  0  0  0  0  0  0  0  0  0
  -25.4424    4.8757   28.0486 C   0  0  0  0  0  0  0  0  0  0  0  0
  -25.5813    3.1118   26.3181 C   0  0  0  0  0  0  0  0  0  0  0  0
  -24.9102    3.8053   27.1375 N   0  0  0  0  0  0  0  0  0  0  0  0
  -24.9517    1.9892   25.3374 Cl  0  0  0  0  0  0  0  0  0  0  0  0
  4  6  1  0
  1  8  1  0
  6  9  2  3
  6 10  1  0
  9 11  1  0
 19 21  1  0
 11 12  2  0
 12 13  1  0
 18 20  1  0
 20 19  2  0
 19 11  1  0
 13 14  2  0
 14 15  1  0
 15 16  2  0
 16 17  1  0
 17 18  2  0
 18 13  1  0
  1  2  2  0
  2  3  1  0
  3  4  2  0
  4  7  1  0
  7  5  2  0
  5  1  1  0
M  END

$$$$
