No_4833-gen_results/8p0m/2024-11-26-14-13-15/
     RDKit          3D

 27 29  0  0  0  0  0  0  0  0999 V2000
  -28.0162   -0.8135   28.8779 C   0  0  0  0  0  0  0  0  0  0  0  0
  -28.4690   -0.7850   29.8287 C   0  0  0  0  0  0  0  0  0  0  0  0
  -26.5455   -0.8762   28.8500 C   0  0  0  0  0  0  0  0  0  0  0  0
  -25.8041   -1.0324   30.0571 C   0  0  0  0  0  0  0  0  0  0  0  0
  -27.9437   -0.9869   31.2075 C   0  0  0  0  0  0  0  0  0  0  0  0
  -26.5825   -1.0386   31.2231 C   0  0  0  0  0  0  0  0  0  0  0  0
  -24.5402   -1.0840   30.0699 F   0  0  0  0  0  0  0  0  0  0  0  0
  -30.0923   -0.7274   29.8886 C   0  0  0  0  0  0  0  0  0  0  0  0
  -30.6771   -0.1372   30.8139 O   0  0  0  0  0  0  0  0  0  0  0  0
  -30.5978   -1.0733   28.8753 O   0  0  0  0  0  0  0  0  0  0  0  0
  -25.7738   -0.8613   27.7440 F   0  0  0  0  0  0  0  0  0  0  0  0
  -31.9681   -0.1556   31.0416 C   0  0  0  0  0  0  0  0  0  0  0  0
  -32.8132    0.7723   30.7659 C   0  0  0  0  0  0  0  0  0  0  0  0
  -34.1320    0.6939   30.8551 C   0  0  0  0  0  0  0  0  0  0  0  0
  -32.4402   -1.3758   31.5863 C   0  0  0  0  0  0  0  0  0  0  0  0
  -33.8291   -1.5320   31.7455 C   0  0  0  0  0  0  0  0  0  0  0  0
  -34.6528   -0.4804   31.4455 C   0  0  0  0  0  0  0  0  0  0  0  0
  -36.1048   -0.6514   31.6627 C   0  0  0  0  0  0  0  0  0  0  0  0
  -36.8065   -1.0989   31.1024 N   0  0  0  0  0  0  0  0  0  0  0  0
  -38.1285   -1.1966   31.3756 C   0  0  0  0  0  0  0  0  0  0  0  0
  -36.4377    0.1285   32.8903 C   0  0  0  0  0  0  0  0  0  0  0  0
  -37.7507    0.1192   33.2683 C   0  0  0  0  0  0  0  0  0  0  0  0
  -38.1833    0.8003   34.4643 C   0  0  0  0  0  0  0  0  0  0  0  0
  -38.5767   -0.5820   32.4550 C   0  0  0  0  0  0  0  0  0  0  0  0
  -39.1584    0.7457   34.8078 F   0  0  0  0  0  0  0  0  0  0  0  0
  -37.7640    2.1566   34.4001 F   0  0  0  0  0  0  0  0  0  0  0  0
  -37.2361    0.3548   35.4676 F   0  0  0  0  0  0  0  0  0  0  0  0
  4  7  1  0
  2  8  1  0
  8  9  1  0
  8 10  2  0
  3 11  1  0
  9 12  1  0
 17 18  1  0
 22 23  1  0
 23 25  1  0
 23 26  1  0
 23 27  1  0
 12 13  2  0
 13 14  1  0
 14 17  2  0
 17 16  1  0
 16 15  2  0
 15 12  1  0
 18 19  2  0
 19 20  1  0
 20 24  2  0
 24 22  1  0
 22 21  2  0
 21 18  1  0
  1  2  2  0
  2  5  1  0
  5  6  2  0
  6  4  1  0
  4  3  2  0
  3  1  1  0
M  END

$$$$
