No_4203-gen_results/8p0m/2024-11-26-14-13-15/
     RDKit          3D

 17 18  0  0  0  0  0  0  0  0999 V2000
  -28.0162   -0.8135   28.8779 C   0  0  0  0  0  0  0  0  0  0  0  0
  -27.0636   -0.1190   28.6079 C   0  0  0  0  0  0  0  0  0  0  0  0
  -26.8756    1.1325   28.9134 C   0  0  0  0  0  0  0  0  0  0  0  0
  -25.6883    1.9515   28.5672 C   0  0  0  0  0  0  0  0  0  0  0  0
  -24.6394    1.2834   27.8753 C   0  0  0  0  0  0  0  0  0  0  0  0
  -24.8068   -0.0513   27.6040 C   0  0  0  0  0  0  0  0  0  0  0  0
  -25.9019   -0.7670   27.9511 C   0  0  0  0  0  0  0  0  0  0  0  0
  -28.0678   -1.4475   30.2707 C   0  0  0  0  0  0  0  0  0  0  0  0
  -29.1713   -2.2907   30.6779 C   0  0  0  0  0  0  0  0  0  0  0  0
  -23.4510    2.0020   27.4793 C   0  0  0  0  0  0  0  0  0  0  0  0
  -23.4290    2.5211   26.4427 F   0  0  0  0  0  0  0  0  0  0  0  0
  -23.0286    2.8884   28.4753 F   0  0  0  0  0  0  0  0  0  0  0  0
  -22.3202    1.1271   27.5193 F   0  0  0  0  0  0  0  0  0  0  0  0
  -30.3530   -1.9339   30.1997 C   0  0  0  0  0  0  0  0  0  0  0  0
  -30.5515   -1.0492   29.7677 C   0  0  0  0  0  0  0  0  0  0  0  0
  -29.4437    0.0368   29.1228 C   0  0  0  0  0  0  0  0  0  0  0  0
  -29.8258    0.6224   27.9253 O   0  0  0  0  0  0  0  0  0  0  0  0
  5 10  1  0
 10 11  1  0
 10 12  1  0
 10 13  1  0
 16 17  1  0
  1  2  1  0
  1  8  2  0
  8  9  1  0
  9 14  2  0
 14 15  1  0
 15 16  2  0
 16  1  1  0
  2  3  2  0
  3  4  1  0
  4  5  2  0
  5  6  1  0
  6  7  2  0
  7  2  1  0
M  END

$$$$
