No_4509-gen_results/8p0m/2024-11-26-14-13-15/
     RDKit          3D

 10 10  0  0  0  0  0  0  0  0999 V2000
  -28.1493   -0.8198   28.9079 Cl  0  0  0  0  0  0  0  0  0  0  0  0
  -28.5324   -0.0471   29.7727 C   0  0  0  0  0  0  0  0  0  0  0  0
  -27.6515    0.7172   30.3086 F   0  0  0  0  0  0  0  0  0  0  0  0
  -29.8669    0.1151   30.2289 C   0  0  0  0  0  0  0  0  0  0  0  0
  -30.1279    1.0890   31.0982 C   0  0  0  0  0  0  0  0  0  0  0  0
  -31.4148    1.2864   31.6613 C   0  0  0  0  0  0  0  0  0  0  0  0
  -31.6393    2.2940   32.6261 C   0  0  0  0  0  0  0  0  0  0  0  0
  -30.5442    3.1270   32.9885 C   0  0  0  0  0  0  0  0  0  0  0  0
  -29.2708    2.9086   32.4363 C   0  0  0  0  0  0  0  0  0  0  0  0
  -29.0279    1.8749   31.5270 C   0  0  0  0  0  0  0  0  0  0  0  0
  1  2  1  0
  2  3  1  0
  2  4  1  0
  4  5  1  0
  5  6  2  0
  6  7  1  0
  7  8  2  0
  8  9  1  0
  9 10  2  0
 10  5  1  0
M  END

$$$$
