No_4904-gen_results/8p0m/2024-11-26-14-13-15/
     RDKit          3D

 15 15  0  0  0  0  0  0  0  0999 V2000
  -28.0162   -0.8135   28.8779 C   0  0  0  0  0  0  0  0  0  0  0  0
  -28.4690   -0.7850   29.8287 C   0  0  0  0  0  0  0  0  0  0  0  0
  -26.5455   -0.8762   28.8500 C   0  0  0  0  0  0  0  0  0  0  0  0
  -25.8041   -1.0324   30.0571 C   0  0  0  0  0  0  0  0  0  0  0  0
  -27.9437   -0.9869   31.2075 C   0  0  0  0  0  0  0  0  0  0  0  0
  -26.5825   -1.0386   31.2231 C   0  0  0  0  0  0  0  0  0  0  0  0
  -30.3060   -0.8044   29.9704 Cl  0  0  0  0  0  0  0  0  0  0  0  0
  -24.1270   -1.1084   30.0593 Cl  0  0  0  0  0  0  0  0  0  0  0  0
  -25.7719   -0.8388   27.7091 O   0  0  0  0  0  0  0  0  0  0  0  0
  -26.2070    0.2185   26.8583 C   0  0  0  0  0  0  0  0  0  0  0  0
  -25.7441    1.4958   26.9738 C   0  0  0  0  0  0  0  0  0  0  0  0
  -26.9670   -0.1283   25.6928 C   0  0  0  0  0  0  0  0  0  0  0  0
  -24.7759    1.8735   28.0458 C   0  0  0  0  0  0  0  0  0  0  0  0
  -24.2741    3.1693   28.1270 C   0  0  0  0  0  0  0  0  0  0  0  0
  -24.6188    4.0501   27.0175 C   0  0  0  0  0  0  0  0  0  0  0  0
  2  7  1  0
  4  8  1  0
  3  9  1  0
  9 10  1  0
 10 11  2  3
 10 12  1  0
 11 13  1  0
 13 14  2  3
 14 15  1  0
  1  2  2  0
  2  5  1  0
  5  6  2  0
  6  4  1  0
  4  3  2  0
  3  1  1  0
M  END

$$$$
