No_4485-gen_results/8p0m/2024-11-26-14-13-15/
     RDKit          3D

 26 27  0  0  0  0  0  0  0  0999 V2000
  -28.0162   -0.8135   28.8779 C   0  0  0  0  0  0  0  0  0  0  0  0
  -28.4690   -0.7850   29.8287 C   0  0  0  0  0  0  0  0  0  0  0  0
  -28.1816    0.4277   28.1134 C   0  0  0  0  0  0  0  0  0  0  0  0
  -27.4498    0.6435   26.8500 C   0  0  0  0  0  0  0  0  0  0  0  0
  -26.1815    0.0357   26.7145 C   0  0  0  0  0  0  0  0  0  0  0  0
  -25.7800   -0.9326   27.6938 C   0  0  0  0  0  0  0  0  0  0  0  0
  -26.5568   -1.2134   28.7413 C   0  0  0  0  0  0  0  0  0  0  0  0
  -29.5813   -0.4021   30.1539 O   0  0  0  0  0  0  0  0  0  0  0  0
  -28.2893   -2.0458   30.6333 O   0  0  0  0  0  0  0  0  0  0  0  0
  -25.3727    0.2696   25.7018 F   0  0  0  0  0  0  0  0  0  0  0  0
  -27.8011    1.6130   25.8311 C   0  0  0  0  0  0  0  0  0  0  0  0
  -28.3406    1.1569   24.6332 C   0  0  0  0  0  0  0  0  0  0  0  0
  -27.7624    2.9654   26.1727 C   0  0  0  0  0  0  0  0  0  0  0  0
  -28.5262    3.5676   27.0677 C   0  0  0  0  0  0  0  0  0  0  0  0
  -29.5486    3.5217   27.3410 C   0  0  0  0  0  0  0  0  0  0  0  0
  -30.2260    4.2583   28.4238 C   0  0  0  0  0  0  0  0  0  0  0  0
  -29.4499    5.0357   29.2313 C   0  0  0  0  0  0  0  0  0  0  0  0
  -28.0936    5.1139   29.0399 C   0  0  0  0  0  0  0  0  0  0  0  0
  -27.5425    4.4324   27.9932 C   0  0  0  0  0  0  0  0  0  0  0  0
  -28.7551   -0.1676   24.5723 C   0  0  0  0  0  0  0  0  0  0  0  0
  -30.1778   -0.3529   24.4714 C   0  0  0  0  0  0  0  0  0  0  0  0
  -30.6450   -1.6712   24.3411 C   0  0  0  0  0  0  0  0  0  0  0  0
  -31.6883   -2.0089   25.0258 F   0  0  0  0  0  0  0  0  0  0  0  0
  -29.6669   -2.5320   24.7063 F   0  0  0  0  0  0  0  0  0  0  0  0
  -30.8639   -1.8088   23.0428 F   0  0  0  0  0  0  0  0  0  0  0  0
  -26.8985    3.6381   25.3838 F   0  0  0  0  0  0  0  0  0  0  0  0
  1  2  1  0
  2  8  1  0
  2  9  2  0
  5 10  1  0
  4 11  1  0
 11 12  1  0
 11 13  1  0
 13 14  1  0
 12 20  1  0
 20 21  2  3
 21 22  1  0
 22 23  1  0
 22 24  1  0
 22 25  1  0
 13 26  1  0
 14 15  2  0
 15 16  1  0
 16 17  2  0
 17 18  1  0
 18 19  2  0
 19 14  1  0
  1  3  2  0
  3  4  1  0
  4  5  2  0
  5  6  1  0
  6  7  2  0
  7  1  1  0
M  END

$$$$
