No_4865-gen_results/8p0m/2024-11-26-14-13-15/
     RDKit          3D

 18 20  0  0  0  0  0  0  0  0999 V2000
  -28.0544   -1.0498   28.7246 N   0  0  0  0  0  0  0  0  0  0  0  0
  -27.7460   -0.0733   29.0098 C   0  0  0  0  0  0  0  0  0  0  0  0
  -27.5562    0.3369   30.3393 C   0  0  0  0  0  0  0  0  0  0  0  0
  -27.0710    1.6709   30.7899 C   0  0  0  0  0  0  0  0  0  0  0  0
  -26.6539    2.5222   29.7363 C   0  0  0  0  0  0  0  0  0  0  0  0
  -26.7304    2.0603   28.4078 C   0  0  0  0  0  0  0  0  0  0  0  0
  -27.1892    0.8153   28.0522 C   0  0  0  0  0  0  0  0  0  0  0  0
  -27.7336   -2.1273   29.6043 C   0  0  0  0  0  0  0  0  0  0  0  0
  -27.8651   -1.9485   31.0182 C   0  0  0  0  0  0  0  0  0  0  0  0
  -28.0715   -0.7492   31.3731 C   0  0  0  0  0  0  0  0  0  0  0  0
  -27.1932    0.5399   26.6147 C   0  0  0  0  0  0  0  0  0  0  0  0
  -28.0708    0.8261   25.7971 C   0  0  0  0  0  0  0  0  0  0  0  0
  -28.0137    0.4006   24.4335 C   0  0  0  0  0  0  0  0  0  0  0  0
  -29.0596    0.6572   23.5376 C   0  0  0  0  0  0  0  0  0  0  0  0
  -30.0646    1.3171   24.1711 C   0  0  0  0  0  0  0  0  0  0  0  0
  -29.3879    1.5174   25.8124 C   0  0  0  0  0  0  0  0  0  0  0  0
  -26.1917   -0.1873   26.3538 F   0  0  0  0  0  0  0  0  0  0  0  0
  -30.0850    2.0579   26.7506 O   0  0  0  0  0  0  0  0  0  0  0  0
  7 11  1  0
 11 12  2  3
 12 13  1  0
 13 14  2  0
 14 15  1  0
 12 16  1  0
 15 16  1  0
 11 17  1  0
 16 18  2  0
  3  4  1  0
  4  5  2  0
  5  6  1  0
  6  7  2  0
  7  2  1  0
  1  2  2  0
  2  3  1  0
  3 10  2  0
 10  9  1  0
  9  8  2  0
  8  1  1  0
M  END

$$$$
