No_4572-gen_results/8p0m/2024-11-26-14-13-15/
     RDKit          3D

 26 28  0  0  0  0  0  0  0  0999 V2000
  -28.0162   -0.8135   28.8779 C   0  0  0  0  0  0  0  0  0  0  0  0
  -27.0636   -0.1190   28.6079 C   0  0  0  0  0  0  0  0  0  0  0  0
  -25.7923   -0.4302   29.0761 C   0  0  0  0  0  0  0  0  0  0  0  0
  -25.5756   -1.5654   29.9363 C   0  0  0  0  0  0  0  0  0  0  0  0
  -26.7354   -2.3004   30.2173 C   0  0  0  0  0  0  0  0  0  0  0  0
  -27.9184   -1.9537   29.7629 C   0  0  0  0  0  0  0  0  0  0  0  0
  -27.1057    1.1023   27.7593 C   0  0  0  0  0  0  0  0  0  0  0  0
  -26.1219    1.4820   27.0232 C   0  0  0  0  0  0  0  0  0  0  0  0
  -24.7142    1.1299   27.4889 C   0  0  0  0  0  0  0  0  0  0  0  0
  -24.5718    0.0966   28.4066 C   0  0  0  0  0  0  0  0  0  0  0  0
  -23.5495    1.7790   26.9027 C   0  0  0  0  0  0  0  0  0  0  0  0
  -23.5037    2.2388   25.6847 N   0  0  0  0  0  0  0  0  0  0  0  0
  -22.4826    1.7511   27.6077 F   0  0  0  0  0  0  0  0  0  0  0  0
  -29.0837   -2.7247   30.2621 C   0  0  0  0  0  0  0  0  0  0  0  0
  -29.0203   -4.0270   30.4890 N   0  0  0  0  0  0  0  0  0  0  0  0
  -30.2548   -2.2495   30.0505 O   0  0  0  0  0  0  0  0  0  0  0  0
  -30.0955   -4.9158   30.7850 C   0  0  0  0  0  0  0  0  0  0  0  0
  -30.8877   -5.2263   29.7447 C   0  0  0  0  0  0  0  0  0  0  0  0
  -31.5622   -6.4148   29.7880 C   0  0  0  0  0  0  0  0  0  0  0  0
  -32.3025   -6.8646   28.6001 C   0  0  0  0  0  0  0  0  0  0  0  0
  -32.2365   -6.0665   27.4123 C   0  0  0  0  0  0  0  0  0  0  0  0
  -31.4701   -4.9012   27.4064 C   0  0  0  0  0  0  0  0  0  0  0  0
  -30.7491   -4.5311   28.5039 C   0  0  0  0  0  0  0  0  0  0  0  0
  -32.9253   -6.5033   26.3903 F   0  0  0  0  0  0  0  0  0  0  0  0
  -27.9395    1.9001   28.1822 F   0  0  0  0  0  0  0  0  0  0  0  0
  -30.1169   -5.3775   31.9622 O   0  0  0  0  0  0  0  0  0  0  0  0
  9 11  1  0
 11 12  1  0
 11 13  1  0
  6 14  1  0
 14 15  1  0
 14 16  2  0
 15 17  1  0
 17 18  1  0
 21 24  1  0
  7 25  1  0
 17 26  2  0
 18 19  2  0
 19 20  1  0
 20 21  2  0
 21 22  1  0
 22 23  2  0
 23 18  1  0
  1  2  2  0
  3  4  2  0
  4  5  1  0
  5  6  2  0
  6  1  1  0
  2  3  1  0
  3 10  1  0
 10  9  2  0
  9  8  1  0
  8  7  2  0
  7  2  1  0
M  END

$$$$
