No_4461-gen_results/8p0m/2024-11-26-14-13-15/
     RDKit          3D

 29 32  0  0  0  0  0  0  0  0999 V2000
  -28.0162   -0.8135   28.8779 C   0  0  0  0  0  0  0  0  0  0  0  0
  -27.0636   -0.1190   28.6079 C   0  0  0  0  0  0  0  0  0  0  0  0
  -25.7647   -0.3897   29.0360 C   0  0  0  0  0  0  0  0  0  0  0  0
  -25.5296   -1.5302   29.9014 C   0  0  0  0  0  0  0  0  0  0  0  0
  -24.3236   -1.9076   30.4324 C   0  0  0  0  0  0  0  0  0  0  0  0
  -27.9274   -1.9227   29.7902 C   0  0  0  0  0  0  0  0  0  0  0  0
  -26.6914   -2.2806   30.2948 C   0  0  0  0  0  0  0  0  0  0  0  0
  -23.2188   -1.1346   30.4668 N   0  0  0  0  0  0  0  0  0  0  0  0
  -23.1482   -0.0632   31.3498 C   0  0  0  0  0  0  0  0  0  0  0  0
  -22.3526   -1.0008   29.3261 C   0  0  0  0  0  0  0  0  0  0  0  0
  -29.0261   -2.6089   30.1965 O   0  0  0  0  0  0  0  0  0  0  0  0
  -28.9354   -3.9391   30.5037 C   0  0  0  0  0  0  0  0  0  0  0  0
  -30.2317   -4.6421   30.2179 C   0  0  0  0  0  0  0  0  0  0  0  0
  -30.9466   -4.2549   29.1756 C   0  0  0  0  0  0  0  0  0  0  0  0
  -32.3544   -4.4535   29.4087 C   0  0  0  0  0  0  0  0  0  0  0  0
  -33.2401   -3.5122   28.9397 C   0  0  0  0  0  0  0  0  0  0  0  0
  -33.5743   -3.0782   27.7709 Br  0  0  0  0  0  0  0  0  0  0  0  0
  -32.4453   -4.8961   30.7275 N   0  0  0  0  0  0  0  0  0  0  0  0
  -31.1368   -4.9552   31.2688 C   0  0  0  0  0  0  0  0  0  0  0  0
  -33.5793   -5.2439   31.4603 C   0  0  0  0  0  0  0  0  0  0  0  0
  -33.4476   -5.4313   32.6173 C   0  0  0  0  0  0  0  0  0  0  0  0
  -33.8383   -5.4475   33.5923 C   0  0  0  0  0  0  0  0  0  0  0  0
  -33.4284   -5.8360   34.9790 C   0  0  0  0  0  0  0  0  0  0  0  0
  -32.1150   -6.2735   35.0285 C   0  0  0  0  0  0  0  0  0  0  0  0
  -31.3638   -6.3304   33.8898 C   0  0  0  0  0  0  0  0  0  0  0  0
  -31.8732   -5.9244   32.6955 C   0  0  0  0  0  0  0  0  0  0  0  0
  -31.7155   -7.4523   32.0430 C   0  0  0  0  0  0  0  0  0  0  0  0
  -31.0970   -4.1636   32.5264 F   0  0  0  0  0  0  0  0  0  0  0  0
  -30.8281   -6.3682   31.2882 C   0  0  0  0  0  0  0  0  0  0  0  0
  4  5  1  0
  5  8  1  0
  8  9  1  0
  8 10  1  0
  6 11  1  0
 11 12  1  0
 12 13  1  0
 13 14  1  0
 14 15  1  0
 15 16  1  0
 16 17  1  0
 15 18  1  0
 13 19  1  0
 18 19  1  0
 18 20  1  0
 26 27  1  0
 19 28  1  0
 19 29  1  0
 27 29  1  0
 20 21  1  0
 21 22  2  0
 22 23  1  0
 23 24  2  0
 24 25  1  0
 25 26  2  0
 26 21  1  0
  1  2  2  0
  2  3  1  0
  3  4  2  0
  4  7  1  0
  7  6  2  0
  6  1  1  0
M  END

$$$$
