No_4827-gen_results/8p0m/2024-11-26-14-13-15/
     RDKit          3D

 28 31  0  0  0  0  0  0  0  0999 V2000
  -28.0162   -0.8135   28.8779 C   0  0  0  0  0  0  0  0  0  0  0  0
  -28.4690   -0.7850   29.8287 C   0  0  0  0  0  0  0  0  0  0  0  0
  -26.5042   -0.7777   28.8766 C   0  0  0  0  0  0  0  0  0  0  0  0
  -25.8103   -0.8531   30.1028 C   0  0  0  0  0  0  0  0  0  0  0  0
  -27.9906   -0.8916   31.2257 C   0  0  0  0  0  0  0  0  0  0  0  0
  -26.6042   -0.8676   31.2652 C   0  0  0  0  0  0  0  0  0  0  0  0
  -29.9808   -0.8491   30.0372 N   0  0  0  0  0  0  0  0  0  0  0  0
  -30.7032   -0.0242   29.3095 C   0  0  0  0  0  0  0  0  0  0  0  0
  -30.3328    0.9349   28.7702 C   0  0  0  0  0  0  0  0  0  0  0  0
  -31.2226    1.7766   27.8574 C   0  0  0  0  0  0  0  0  0  0  0  0
  -32.5162    1.3193   27.7464 C   0  0  0  0  0  0  0  0  0  0  0  0
  -32.0792   -0.4710   29.1143 C   0  0  0  0  0  0  0  0  0  0  0  0
  -32.9216    0.2060   28.3751 C   0  0  0  0  0  0  0  0  0  0  0  0
  -30.5050   -1.9159   30.8687 C   0  0  0  0  0  0  0  0  0  0  0  0
  -30.7998   -1.6259   32.1609 C   0  0  0  0  0  0  0  0  0  0  0  0
  -31.3782   -2.6043   32.9495 C   0  0  0  0  0  0  0  0  0  0  0  0
  -31.6358   -3.8643   32.3687 C   0  0  0  0  0  0  0  0  0  0  0  0
  -31.3685   -4.1111   31.0596 C   0  0  0  0  0  0  0  0  0  0  0  0
  -30.8077   -3.0983   30.2865 C   0  0  0  0  0  0  0  0  0  0  0  0
  -25.7591   -0.7346   27.7718 F   0  0  0  0  0  0  0  0  0  0  0  0
  -31.6729   -5.3973   30.4819 C   0  0  0  0  0  0  0  0  0  0  0  0
  -31.4433   -5.5415   29.1480 C   0  0  0  0  0  0  0  0  0  0  0  0
  -30.8557   -4.5453   28.3906 C   0  0  0  0  0  0  0  0  0  0  0  0
  -30.5679   -3.3051   28.9439 C   0  0  0  0  0  0  0  0  0  0  0  0
  -31.7000   -6.8697   28.4828 C   0  0  0  0  0  0  0  0  0  0  0  0
  -31.4978   -7.0279   27.2069 N   0  0  0  0  0  0  0  0  0  0  0  0
  -31.6081   -8.2438   26.6123 C   0  0  0  0  0  0  0  0  0  0  0  0
  -31.2211   -8.3120   25.2219 C   0  0  0  0  0  0  0  0  0  0  0  0
  2  7  1  0
  7  8  1  0
  7 14  1  0
  3 20  1  0
 22 25  1  0
 25 26  2  3
 26 27  1  0
 27 28  1  0
 14 15  2  0
 15 16  1  0
 16 17  2  0
 17 18  1  0
 19 14  1  0
 18 19  2  0
 19 24  1  0
 24 23  2  0
 23 22  1  0
 22 21  2  0
 21 18  1  0
  1  2  2  0
  2  5  1  0
  5  6  2  0
  6  4  1  0
  4  3  2  0
  3  1  1  0
  8  9  2  0
  9 10  1  0
 10 11  2  0
 11 13  1  0
 13 12  2  0
 12  8  1  0
M  END

$$$$
