No_430-gen_results/8p0m/2024-11-26-14-13-15/
     RDKit          3D

 15 16  0  0  0  0  0  0  0  0999 V2000
  -28.0162   -0.8135   28.8779 C   0  0  0  0  0  0  0  0  0  0  0  0
  -28.4690   -0.7850   29.8287 C   0  0  0  0  0  0  0  0  0  0  0  0
  -26.6082   -0.9454   28.8569 N   0  0  0  0  0  0  0  0  0  0  0  0
  -25.7271   -0.3586   27.9991 C   0  0  0  0  0  0  0  0  0  0  0  0
  -24.9120    0.6180   28.4779 C   0  0  0  0  0  0  0  0  0  0  0  0
  -23.9407    1.2482   27.5283 C   0  0  0  0  0  0  0  0  0  0  0  0
  -22.7612    1.8130   27.9899 C   0  0  0  0  0  0  0  0  0  0  0  0
  -21.9950    0.9423   28.6546 C   0  0  0  0  0  0  0  0  0  0  0  0
  -22.4190   -0.1509   29.1238 C   0  0  0  0  0  0  0  0  0  0  0  0
  -23.8730   -0.3050   29.2473 C   0  0  0  0  0  0  0  0  0  0  0  0
  -29.8398   -0.3803   30.1002 C   0  0  0  0  0  0  0  0  0  0  0  0
  -30.5460    0.0063   28.9566 C   0  0  0  0  0  0  0  0  0  0  0  0
  -29.8874    0.0933   27.7786 C   0  0  0  0  0  0  0  0  0  0  0  0
  -28.5311   -0.0899   27.7665 C   0  0  0  0  0  0  0  0  0  0  0  0
  -25.9867   -2.0677   29.6345 C   0  0  0  0  0  0  0  0  0  0  0  0
  1  3  1  0
  3  4  1  0
  3 15  1  0
  4  5  1  0
  1  2  2  0
  2 11  1  0
 11 12  2  0
 12 13  1  0
 13 14  2  0
 14  1  1  0
  5  6  2  0
  6  7  1  0
  7  8  2  0
  8  9  1  0
  9 10  2  0
 10  5  1  0
M  END

$$$$
