No_4558-gen_results/8p0m/2024-11-26-14-13-15/
     RDKit          3D

 24 28  0  0  0  0  0  0  0  0999 V2000
  -28.0162   -0.8135   28.8779 C   0  0  0  0  0  0  0  0  0  0  0  0
  -28.4690   -0.7850   29.8287 C   0  0  0  0  0  0  0  0  0  0  0  0
  -28.1960    0.3478   28.0550 C   0  0  0  0  0  0  0  0  0  0  0  0
  -29.0191    1.3501   28.3782 C   0  0  0  0  0  0  0  0  0  0  0  0
  -29.4107    0.1803   30.3782 C   0  0  0  0  0  0  0  0  0  0  0  0
  -29.6059    1.2495   29.6193 C   0  0  0  0  0  0  0  0  0  0  0  0
  -27.4597    0.3802   26.7091 C   0  0  0  0  0  0  0  0  0  0  0  0
  -26.0094    0.3317   26.7236 C   0  0  0  0  0  0  0  0  0  0  0  0
  -25.3055    0.0239   27.8527 C   0  0  0  0  0  0  0  0  0  0  0  0
  -23.9153    0.1563   27.8949 C   0  0  0  0  0  0  0  0  0  0  0  0
  -23.1483   -0.2523   29.0524 C   0  0  0  0  0  0  0  0  0  0  0  0
  -23.7810   -0.9943   30.0185 C   0  0  0  0  0  0  0  0  0  0  0  0
  -25.1019   -1.2679   29.9479 C   0  0  0  0  0  0  0  0  0  0  0  0
  -25.8418   -0.8004   28.9158 C   0  0  0  0  0  0  0  0  0  0  0  0
  -27.0504   -1.1434   29.2447 N   0  0  0  0  0  0  0  0  0  0  0  0
  -27.0614   -2.5338   29.7410 C   0  0  0  0  0  0  0  0  0  0  0  0
  -28.5481   -2.0621   30.7194 C   0  0  0  0  0  0  0  0  0  0  0  0
  -29.5242   -3.0823   30.5201 C   0  0  0  0  0  0  0  0  0  0  0  0
  -26.0166   -2.9802   30.6207 C   0  0  0  0  0  0  0  0  0  0  0  0
  -27.5259   -3.4977   28.9569 O   0  0  0  0  0  0  0  0  0  0  0  0
  -25.2694   -2.5080   30.5932 N   0  0  0  0  0  0  0  0  0  0  0  0
  -28.2065   -1.8822   32.1926 C   0  0  0  0  0  0  0  0  0  0  0  0
  -29.1636   -1.6263   31.6315 O   0  0  0  0  0  0  0  0  0  0  0  0
  -30.3243   -2.4508   31.9851 C   0  0  0  0  0  0  0  0  0  0  0  0
  3  7  1  0
  7  8  1  0
  8  9  1  0
  1 15  1  0
 14 15  1  0
 15 16  1  0
  2 17  1  0
 17 18  1  0
 16 19  1  0
 16 20  1  0
 13 21  1  0
 17 22  1  0
 22 23  1  0
 18 24  1  0
 23 24  1  0
 21 19  1  0
  9 10  2  0
 10 11  1  0
 11 12  2  0
 12 13  1  0
 13 14  2  0
 14  9  1  0
  1  2  1  0
  2  5  2  0
  5  6  1  0
  6  4  2  0
  4  3  1  0
  3  1  2  0
M  END

$$$$
