No_472-gen_results/8p0m/2024-11-26-14-13-15/
     RDKit          3D

 13 14  0  0  0  0  0  0  0  0999 V2000
  -28.0162   -0.8135   28.8779 C   0  0  0  0  0  0  0  0  0  0  0  0
  -27.0636   -0.1189   28.6079 C   0  0  0  0  0  0  0  0  0  0  0  0
  -26.9287    1.1713   29.0083 C   0  0  0  0  0  0  0  0  0  0  0  0
  -27.9560    1.7411   29.7840 C   0  0  0  0  0  0  0  0  0  0  0  0
  -29.0569   -0.3271   29.7466 C   0  0  0  0  0  0  0  0  0  0  0  0
  -28.9828    0.9722   30.1516 C   0  0  0  0  0  0  0  0  0  0  0  0
  -25.7249   -0.7275   27.6731 Cl  0  0  0  0  0  0  0  0  0  0  0  0
  -30.0821    1.5088   31.0097 C   0  0  0  0  0  0  0  0  0  0  0  0
  -31.1466    1.5388   30.7542 C   0  0  0  0  0  0  0  0  0  0  0  0
  -32.2148    2.0862   31.5902 C   0  0  0  0  0  0  0  0  0  0  0  0
  -31.8336    2.6607   32.8231 C   0  0  0  0  0  0  0  0  0  0  0  0
  -29.4874    2.0804   32.3011 C   0  0  0  0  0  0  0  0  0  0  0  0
  -30.4408    2.6417   33.1687 C   0  0  0  0  0  0  0  0  0  0  0  0
  2  7  1  0
  6  8  1  0
  1  2  2  0
  2  3  1  0
  3  4  2  0
  4  6  1  0
  6  5  2  0
  5  1  1  0
  8  9  2  0
  9 10  1  0
 10 11  2  0
 11 13  1  0
 13 12  2  0
 12  8  1  0
M  END

$$$$
