No_4124-gen_results/8p0m/2024-11-26-14-13-15/
     RDKit          3D

 25 27  0  0  0  0  0  0  0  0999 V2000
  -28.1493   -0.8198   28.9079 Cl  0  0  0  0  0  0  0  0  0  0  0  0
  -27.8339    0.4961   29.0598 C   0  0  0  0  0  0  0  0  0  0  0  0
  -27.6022    1.0128   30.2974 C   0  0  0  0  0  0  0  0  0  0  0  0
  -27.1699    2.3964   30.5338 C   0  0  0  0  0  0  0  0  0  0  0  0
  -26.9133    3.1827   29.3680 C   0  0  0  0  0  0  0  0  0  0  0  0
  -27.0551    2.6221   28.1384 C   0  0  0  0  0  0  0  0  0  0  0  0
  -27.4622    1.3345   27.9669 C   0  0  0  0  0  0  0  0  0  0  0  0
  -26.4513    4.5680   29.5808 C   0  0  0  0  0  0  0  0  0  0  0  0
  -25.7876    4.8523   30.5980 N   0  0  0  0  0  0  0  0  0  0  0  0
  -25.6236    5.0791   28.3620 C   0  0  0  0  0  0  0  0  0  0  0  0
  -27.7490    5.4528   29.6426 C   0  0  0  0  0  0  0  0  0  0  0  0
  -25.2530    4.0179   31.4891 C   0  0  0  0  0  0  0  0  0  0  0  0
  -24.5054    4.4700   32.6773 C   0  0  0  0  0  0  0  0  0  0  0  0
  -25.3273    5.2904   33.5228 C   0  0  0  0  0  0  0  0  0  0  0  0
  -24.8361    6.5552   33.8580 C   0  0  0  0  0  0  0  0  0  0  0  0
  -25.6479    7.3930   34.6134 C   0  0  0  0  0  0  0  0  0  0  0  0
  -26.6623    7.4587   34.5091 C   0  0  0  0  0  0  0  0  0  0  0  0
  -27.4702    6.2600   34.0879 C   0  0  0  0  0  0  0  0  0  0  0  0
  -26.7195    5.1962   33.5021 C   0  0  0  0  0  0  0  0  0  0  0  0
  -28.3077    5.8341   30.5087 C   0  0  0  0  0  0  0  0  0  0  0  0
  -29.4392    6.7170   30.6347 C   0  0  0  0  0  0  0  0  0  0  0  0
  -29.9461    7.0908   29.4403 C   0  0  0  0  0  0  0  0  0  0  0  0
  -29.3755    6.6776   28.2598 C   0  0  0  0  0  0  0  0  0  0  0  0
  -28.2123    5.8882   28.2675 C   0  0  0  0  0  0  0  0  0  0  0  0
  -25.6957    5.5304   27.3799 O   0  0  0  0  0  0  0  0  0  0  0  0
  1  2  1  0
  5  8  1  0
  8  9  1  0
  8 10  1  0
  8 11  1  0
  9 12  1  0
 12 13  2  3
 13 14  1  0
 10 25  2  0
  2  3  2  0
  3  4  1  0
  4  5  2  0
  5  6  1  0
  6  7  2  0
  7  2  1  0
 14 15  2  0
 15 16  1  0
 16 17  2  0
 17 18  1  0
 18 19  2  0
 19 14  1  0
 11 20  2  0
 20 21  1  0
 21 22  2  0
 22 23  1  0
 23 24  2  0
 24 11  1  0
M  END

$$$$
