No_4307-gen_results/8p0m/2024-11-26-14-13-15/
     RDKit          3D

 15 15  0  0  0  0  0  0  0  0999 V2000
  -28.0162   -0.8135   28.8779 C   0  0  0  0  0  0  0  0  0  0  0  0
  -28.4690   -0.7850   29.8287 C   0  0  0  0  0  0  0  0  0  0  0  0
  -27.0871    0.2903   28.6377 C   0  0  0  0  0  0  0  0  0  0  0  0
  -26.8317    1.2487   29.5869 C   0  0  0  0  0  0  0  0  0  0  0  0
  -29.4442   -1.9481   30.1840 C   0  0  0  0  0  0  0  0  0  0  0  0
  -27.4956    1.1303   30.8222 C   0  0  0  0  0  0  0  0  0  0  0  0
  -28.3376    0.0364   31.0331 C   0  0  0  0  0  0  0  0  0  0  0  0
  -29.1562   -3.1767   30.3191 N   0  0  0  0  0  0  0  0  0  0  0  0
  -30.9085   -1.7234   30.3629 C   0  0  0  0  0  0  0  0  0  0  0  0
  -27.7666   -3.5743   30.3295 C   0  0  0  0  0  0  0  0  0  0  0  0
  -30.0011   -4.2549   30.5291 C   0  0  0  0  0  0  0  0  0  0  0  0
  -31.2883   -0.3690   30.2691 C   0  0  0  0  0  0  0  0  0  0  0  0
  -32.0863    0.1147   29.7360 C   0  0  0  0  0  0  0  0  0  0  0  0
  -32.5354    1.5279   29.7880 C   0  0  0  0  0  0  0  0  0  0  0  0
  -33.5098    2.1054   29.0163 C   0  0  0  0  0  0  0  0  0  0  0  0
  2  5  1  0
  5  8  1  0
  5  9  1  0
  8 10  1  0
  8 11  1  0
  9 12  1  0
 12 13  2  3
 13 14  1  0
 14 15  2  0
  1  2  2  0
  2  7  1  0
  7  6  2  0
  6  4  1  0
  4  3  2  0
  3  1  1  0
M  END

$$$$
