No_4157-gen_results/8p0m/2024-11-26-14-13-15/
     RDKit          3D

 33 36  0  0  0  0  0  0  0  0999 V2000
  -28.0162   -0.8135   28.8779 C   0  0  0  0  0  0  0  0  0  0  0  0
  -27.0636   -0.1190   28.6079 C   0  0  0  0  0  0  0  0  0  0  0  0
  -25.7923   -0.4302   29.0761 C   0  0  0  0  0  0  0  0  0  0  0  0
  -24.5456    0.3494   28.8225 C   0  0  0  0  0  0  0  0  0  0  0  0
  -24.6586    1.4196   27.8878 C   0  0  0  0  0  0  0  0  0  0  0  0
  -25.9471    1.6811   27.3792 C   0  0  0  0  0  0  0  0  0  0  0  0
  -27.0439    0.9739   27.6871 C   0  0  0  0  0  0  0  0  0  0  0  0
  -27.9736   -1.7264   29.9612 N   0  0  0  0  0  0  0  0  0  0  0  0
  -29.1912   -0.5380   28.5093 O   0  0  0  0  0  0  0  0  0  0  0  0
  -29.0743   -2.5471   30.4575 C   0  0  0  0  0  0  0  0  0  0  0  0
  -23.4541    2.1681   27.6135 C   0  0  0  0  0  0  0  0  0  0  0  0
  -22.2607    1.7338   28.0741 N   0  0  0  0  0  0  0  0  0  0  0  0
  -23.5049    3.0571   26.7255 O   0  0  0  0  0  0  0  0  0  0  0  0
  -29.4075   -2.1125   31.7086 C   0  0  0  0  0  0  0  0  0  0  0  0
  -30.1254   -3.1140   32.4464 C   0  0  0  0  0  0  0  0  0  0  0  0
  -30.4604   -4.3491   31.8600 C   0  0  0  0  0  0  0  0  0  0  0  0
  -29.9631   -4.6768   30.6040 C   0  0  0  0  0  0  0  0  0  0  0  0
  -29.1062   -3.8151   30.0250 C   0  0  0  0  0  0  0  0  0  0  0  0
  -22.0160    0.7562   28.9674 C   0  0  0  0  0  0  0  0  0  0  0  0
  -23.2416   -0.0472   29.3644 C   0  0  0  0  0  0  0  0  0  0  0  0
  -23.0804   -1.1625   30.2216 C   0  0  0  0  0  0  0  0  0  0  0  0
  -23.9749   -1.0532   31.1019 F   0  0  0  0  0  0  0  0  0  0  0  0
  -21.9267   -0.9714   30.9024 F   0  0  0  0  0  0  0  0  0  0  0  0
  -23.0189   -2.2599   29.5240 F   0  0  0  0  0  0  0  0  0  0  0  0
  -31.2973   -5.3491   32.6036 C   0  0  0  0  0  0  0  0  0  0  0  0
  -31.8443   -5.1434   33.6634 C   0  0  0  0  0  0  0  0  0  0  0  0
  -32.6762   -6.1431   34.3360 C   0  0  0  0  0  0  0  0  0  0  0  0
  -32.8197   -7.3587   33.6869 C   0  0  0  0  0  0  0  0  0  0  0  0
  -32.1823   -7.6128   32.5042 C   0  0  0  0  0  0  0  0  0  0  0  0
  -31.3909   -6.6689   31.9495 C   0  0  0  0  0  0  0  0  0  0  0  0
  -32.3420   -8.9209   31.8490 C   0  0  0  0  0  0  0  0  0  0  0  0
  -32.1676  -10.0034   32.2343 F   0  0  0  0  0  0  0  0  0  0  0  0
  -32.6311   -8.8225   30.5560 F   0  0  0  0  0  0  0  0  0  0  0  0
  1  2  1  0
  1  8  1  0
  1  9  2  0
  8 10  1  0
  5 11  1  0
 11 12  1  0
 11 13  2  0
 12 19  1  0
  4 20  1  0
 19 20  1  0
 20 21  1  0
 21 22  1  0
 21 23  1  0
 21 24  1  0
 16 25  1  0
 29 31  1  0
 31 32  1  0
 31 33  1  0
  2  3  2  0
  3  4  1  0
  4  5  2  0
  5  6  1  0
  6  7  2  0
  7  2  1  0
 25 26  2  0
 26 27  1  0
 27 28  2  0
 28 29  1  0
 29 30  2  0
 30 25  1  0
 10 14  2  0
 14 15  1  0
 15 16  2  0
 16 17  1  0
 17 18  2  0
 18 10  1  0
M  END

$$$$
