No_4167-gen_results/8p0m/2024-11-26-14-13-15/
     RDKit          3D

 35 37  0  0  0  0  0  0  0  0999 V2000
  -28.0162   -0.8135   28.8779 C   0  0  0  0  0  0  0  0  0  0  0  0
  -27.0636   -0.1190   28.6079 C   0  0  0  0  0  0  0  0  0  0  0  0
  -25.7647   -0.3897   29.0360 C   0  0  0  0  0  0  0  0  0  0  0  0
  -24.5516    0.4058   28.7646 C   0  0  0  0  0  0  0  0  0  0  0  0
  -24.6957    1.4480   27.7988 C   0  0  0  0  0  0  0  0  0  0  0  0
  -25.9755    1.7250   27.3077 C   0  0  0  0  0  0  0  0  0  0  0  0
  -27.0718    1.0134   27.6535 C   0  0  0  0  0  0  0  0  0  0  0  0
  -28.6077   -0.5909   30.1098 N   0  0  0  0  0  0  0  0  0  0  0  0
  -23.4939    2.1689   27.4794 C   0  0  0  0  0  0  0  0  0  0  0  0
  -23.6805    3.2221   26.8735 F   0  0  0  0  0  0  0  0  0  0  0  0
  -22.6892    2.4696   28.5360 F   0  0  0  0  0  0  0  0  0  0  0  0
  -22.6354    1.4275   26.6972 F   0  0  0  0  0  0  0  0  0  0  0  0
  -29.5051   -0.3091   30.5743 C   0  0  0  0  0  0  0  0  0  0  0  0
  -29.7631   -0.4031   31.9371 F   0  0  0  0  0  0  0  0  0  0  0  0
  -30.5640    0.1773   29.9231 N   0  0  0  0  0  0  0  0  0  0  0  0
  -28.3867    1.3673   27.1088 C   0  0  0  0  0  0  0  0  0  0  0  0
  -28.8470    2.3657   27.5523 O   0  0  0  0  0  0  0  0  0  0  0  0
  -29.0147    0.4447   26.3983 O   0  0  0  0  0  0  0  0  0  0  0  0
  -31.8343    0.6182   30.4287 C   0  0  0  0  0  0  0  0  0  0  0  0
  -32.5382    1.1596   29.7964 C   0  0  0  0  0  0  0  0  0  0  0  0
  -32.5642    2.5498   29.7932 C   0  0  0  0  0  0  0  0  0  0  0  0
  -32.1969    3.2209   31.0121 C   0  0  0  0  0  0  0  0  0  0  0  0
  -32.1847    4.6115   31.1626 C   0  0  0  0  0  0  0  0  0  0  0  0
  -31.7153    5.2107   32.3695 C   0  0  0  0  0  0  0  0  0  0  0  0
  -31.2713    4.3061   33.3664 C   0  0  0  0  0  0  0  0  0  0  0  0
  -31.2223    2.9686   33.2240 C   0  0  0  0  0  0  0  0  0  0  0  0
  -31.6073    2.4162   32.0208 C   0  0  0  0  0  0  0  0  0  0  0  0
  -31.6673    1.2588   31.8304 C   0  0  0  0  0  0  0  0  0  0  0  0
  -25.4565   -1.5435   29.9654 C   0  0  0  0  0  0  0  0  0  0  0  0
  -24.4437   -2.3499   29.6799 C   0  0  0  0  0  0  0  0  0  0  0  0
  -23.1701   -1.7773   29.9063 C   0  0  0  0  0  0  0  0  0  0  0  0
  -24.5095   -3.6749   29.2601 C   0  0  0  0  0  0  0  0  0  0  0  0
  -25.6590   -4.2897   29.2624 N   0  0  0  0  0  0  0  0  0  0  0  0
  -26.1544   -5.1214   29.9518 C   0  0  0  0  0  0  0  0  0  0  0  0
  -27.6574   -5.1737   30.1196 C   0  0  0  0  0  0  0  0  0  0  0  0
  1  2  2  3
  2  3  1  0
  3  4  1  0
  4  5  1  0
  5  6  1  0
  2  7  1  0
  6  7  1  0
  1  8  1  0
  5  9  1  0
  9 10  1  0
  9 11  1  0
  9 12  1  0
  8 13  2  3
 13 14  1  0
 13 15  1  0
  7 16  1  0
 16 17  2  0
 16 18  1  0
 15 19  1  0
  3 29  1  0
 29 30  1  0
 30 31  2  0
 30 32  1  0
 32 33  1  0
 33 34  1  0
 34 35  1  0
 22 23  1  0
 23 24  2  0
 24 25  1  0
 25 26  2  0
 26 27  1  0
 19 20  2  0
 20 21  1  0
 21 22  2  0
 22 27  1  0
 27 28  2  0
 28 19  1  0
M  END

$$$$
