No_4708-gen_results/8p0m/2024-11-26-14-13-15/
     RDKit          3D

 23 26  0  0  0  0  0  0  0  0999 V2000
  -28.0162   -0.8135   28.8779 C   0  0  0  0  0  0  0  0  0  0  0  0
  -27.0636   -0.1190   28.6079 C   0  0  0  0  0  0  0  0  0  0  0  0
  -25.7647   -0.3897   29.0360 C   0  0  0  0  0  0  0  0  0  0  0  0
  -25.5296   -1.5302   29.9014 C   0  0  0  0  0  0  0  0  0  0  0  0
  -26.6888   -2.2893   30.1810 C   0  0  0  0  0  0  0  0  0  0  0  0
  -27.8727   -1.9508   29.7373 C   0  0  0  0  0  0  0  0  0  0  0  0
  -24.5491    0.4100   28.7341 C   0  0  0  0  0  0  0  0  0  0  0  0
  -24.4789    1.1871   27.6843 C   0  0  0  0  0  0  0  0  0  0  0  0
  -23.2716    1.8973   27.3731 C   0  0  0  0  0  0  0  0  0  0  0  0
  -22.1063    1.7032   28.0412 C   0  0  0  0  0  0  0  0  0  0  0  0
  -23.3188    0.1792   29.4669 C   0  0  0  0  0  0  0  0  0  0  0  0
  -22.1165    0.8402   29.1011 C   0  0  0  0  0  0  0  0  0  0  0  0
  -29.3392   -2.7654   30.1442 Cl  0  0  0  0  0  0  0  0  0  0  0  0
  -23.3259    2.7699   26.3034 O   0  0  0  0  0  0  0  0  0  0  0  0
  -24.4997    2.6436   25.6204 C   0  0  0  0  0  0  0  0  0  0  0  0
  -25.1545    1.5781   26.4605 C   0  0  0  0  0  0  0  0  0  0  0  0
  -29.2906   -0.5343   28.4687 O   0  0  0  0  0  0  0  0  0  0  0  0
  -30.0870    0.2052   29.2197 C   0  0  0  0  0  0  0  0  0  0  0  0
  -30.5637    1.3149   28.5002 C   0  0  0  0  0  0  0  0  0  0  0  0
  -31.2003    2.2076   29.2489 C   0  0  0  0  0  0  0  0  0  0  0  0
  -31.7063    1.8113   30.4119 C   0  0  0  0  0  0  0  0  0  0  0  0
  -31.2811    0.7098   31.1108 C   0  0  0  0  0  0  0  0  0  0  0  0
  -30.4056   -0.0982   30.4963 C   0  0  0  0  0  0  0  0  0  0  0  0
  3  7  1  0
  6 13  1  0
  9 14  1  0
 14 15  1  0
  8 16  1  0
 15 16  1  0
  1 17  1  0
 17 18  1  0
  7  8  2  0
  8  9  1  0
  9 10  2  0
 10 12  1  0
 12 11  2  0
 11  7  1  0
  1  2  2  0
  2  3  1  0
  3  4  2  0
  4  5  1  0
  5  6  2  0
  6  1  1  0
 18 19  2  0
 19 20  1  0
 20 21  2  0
 21 22  1  0
 22 23  2  0
 23 18  1  0
M  END

$$$$
