No_4862-gen_results/8p0m/2024-11-26-14-13-15/
     RDKit          3D

 19 20  0  0  0  0  0  0  0  0999 V2000
  -28.0162   -0.8135   28.8779 C   0  0  0  0  0  0  0  0  0  0  0  0
  -27.0636   -0.1190   28.6079 C   0  0  0  0  0  0  0  0  0  0  0  0
  -26.9716    0.7139   27.5060 C   0  0  0  0  0  0  0  0  0  0  0  0
  -28.1053    0.7744   26.6421 C   0  0  0  0  0  0  0  0  0  0  0  0
  -29.2041    0.1179   27.0477 C   0  0  0  0  0  0  0  0  0  0  0  0
  -29.2127   -0.6088   28.1281 C   0  0  0  0  0  0  0  0  0  0  0  0
  -25.5373    1.5799   27.0783 Cl  0  0  0  0  0  0  0  0  0  0  0  0
  -30.3039    0.2234   26.1995 N   0  0  0  0  0  0  0  0  0  0  0  0
  -25.6726   -0.1940   29.4192 C   0  0  0  0  0  0  0  0  0  0  0  0
  -24.7778   -1.0388   29.0175 C   0  0  0  0  0  0  0  0  0  0  0  0
  -24.9138   -2.2914   28.8156 C   0  0  0  0  0  0  0  0  0  0  0  0
  -24.1471   -3.1741   29.0153 C   0  0  0  0  0  0  0  0  0  0  0  0
  -22.8134   -2.6795   28.9663 N   0  0  0  0  0  0  0  0  0  0  0  0
  -23.3406   -0.9959   29.3206 C   0  0  0  0  0  0  0  0  0  0  0  0
  -22.4266   -0.0216   29.5460 C   0  0  0  0  0  0  0  0  0  0  0  0
  -30.2420    0.2235   24.8740 C   0  0  0  0  0  0  0  0  0  0  0  0
  -31.6435    0.1993   26.7228 C   0  0  0  0  0  0  0  0  0  0  0  0
  -21.2319   -0.1577   29.1199 O   0  0  0  0  0  0  0  0  0  0  0  0
  -22.7834    1.0235   30.2369 O   0  0  0  0  0  0  0  0  0  0  0  0
  3  7  1  0
  5  8  1  0
  2  9  1  0
  9 10  1  0
 10 11  2  0
 11 12  1  0
 12 13  2  0
 10 14  1  0
 13 14  1  0
 14 15  1  0
  8 16  1  0
  8 17  1  0
 15 18  2  0
 15 19  1  0
  1  2  2  0
  2  3  1  0
  3  4  2  0
  4  5  1  0
  5  6  2  0
  6  1  1  0
M  END

$$$$
