No_4416-gen_results/8p0m/2024-11-26-14-13-15/
     RDKit          3D

 32 35  0  0  0  0  0  0  0  0999 V2000
  -28.0162   -0.8135   28.8779 C   0  0  0  0  0  0  0  0  0  0  0  0
  -28.4690   -0.7850   29.8287 C   0  0  0  0  0  0  0  0  0  0  0  0
  -26.6082   -0.9454   28.8569 N   0  0  0  0  0  0  0  0  0  0  0  0
  -26.1169   -1.1514   30.1215 C   0  0  0  0  0  0  0  0  0  0  0  0
  -28.0962   -1.0255   31.1447 N   0  0  0  0  0  0  0  0  0  0  0  0
  -26.7736   -1.1693   31.2389 C   0  0  0  0  0  0  0  0  0  0  0  0
  -29.9950   -0.6395   29.8051 N   0  0  0  0  0  0  0  0  0  0  0  0
  -30.8248   -1.3044   30.4133 C   0  0  0  0  0  0  0  0  0  0  0  0
  -32.2011   -1.0553   30.1926 C   0  0  0  0  0  0  0  0  0  0  0  0
  -30.5162    0.2479   28.8620 C   0  0  0  0  0  0  0  0  0  0  0  0
  -31.7934    0.4691   28.6216 C   0  0  0  0  0  0  0  0  0  0  0  0
  -32.6853   -0.2452   29.3577 C   0  0  0  0  0  0  0  0  0  0  0  0
  -24.5390   -1.3311   30.1720 C   0  0  0  0  0  0  0  0  0  0  0  0
  -23.7721   -0.2665   29.6804 C   0  0  0  0  0  0  0  0  0  0  0  0
  -22.5007   -0.4241   29.1530 C   0  0  0  0  0  0  0  0  0  0  0  0
  -21.6929    0.6160   28.6911 C   0  0  0  0  0  0  0  0  0  0  0  0
  -22.2869    1.8007   28.2958 C   0  0  0  0  0  0  0  0  0  0  0  0
  -23.6106    2.0190   28.6431 C   0  0  0  0  0  0  0  0  0  0  0  0
  -24.3748    1.0241   29.3587 C   0  0  0  0  0  0  0  0  0  0  0  0
  -34.1407   -0.0688   29.1683 C   0  0  0  0  0  0  0  0  0  0  0  0
  -34.7557    1.2637   28.5149 Cl  0  0  0  0  0  0  0  0  0  0  0  0
  -35.0163   -1.1233   29.5421 C   0  0  0  0  0  0  0  0  0  0  0  0
  -35.7028   -0.9791   30.6538 C   0  0  0  0  0  0  0  0  0  0  0  0
  -36.6390   -2.0504   31.0374 C   0  0  0  0  0  0  0  0  0  0  0  0
  -37.4418   -1.9811   32.2015 C   0  0  0  0  0  0  0  0  0  0  0  0
  -37.3005   -0.7803   32.9805 C   0  0  0  0  0  0  0  0  0  0  0  0
  -36.4409    0.2278   32.6461 C   0  0  0  0  0  0  0  0  0  0  0  0
  -35.6642    0.1398   31.5494 C   0  0  0  0  0  0  0  0  0  0  0  0
  -38.1820   -0.6983   34.1946 C   0  0  0  0  0  0  0  0  0  0  0  0
  -37.6597   -0.3994   35.2116 F   0  0  0  0  0  0  0  0  0  0  0  0
  -39.1700    0.2432   33.8481 F   0  0  0  0  0  0  0  0  0  0  0  0
  -38.8069   -1.9183   34.2927 F   0  0  0  0  0  0  0  0  0  0  0  0
  2  7  1  0
  7  8  1  0
  7 10  1  0
  9 12  1  0
 11 12  1  0
  4 13  1  0
 13 14  1  0
 12 20  1  0
 20 21  1  0
 20 22  1  0
 26 29  1  0
 29 30  1  0
 29 31  1  0
 29 32  1  0
 22 23  1  0
  8  9  1  0
 11 10  1  0
 14 15  2  0
 15 16  1  0
 16 17  2  0
 17 18  1  0
 18 19  2  0
 19 14  1  0
 23 24  2  0
 24 25  1  0
 25 26  2  0
 26 27  1  0
 27 28  2  0
 28 23  1  0
  1  2  2  0
  2  5  1  0
  5  6  2  0
  6  4  1  0
  4  3  2  0
  3  1  1  0
M  END

$$$$
