No_4663-gen_results/8p0m/2024-11-26-14-13-15/
     RDKit          3D

 22 24  0  0  0  0  0  0  0  0999 V2000
  -28.0162   -0.8135   28.8779 C   0  0  0  0  0  0  0  0  0  0  0  0
  -27.0636   -0.1189   28.6079 C   0  0  0  0  0  0  0  0  0  0  0  0
  -26.9849    0.5972   27.5218 N   0  0  0  0  0  0  0  0  0  0  0  0
  -27.9606   -1.5421   30.1660 C   0  0  0  0  0  0  0  0  0  0  0  0
  -26.7814   -1.6198   30.8836 C   0  0  0  0  0  0  0  0  0  0  0  0
  -25.6460   -0.9697   30.4630 C   0  0  0  0  0  0  0  0  0  0  0  0
  -25.7563   -0.1767   29.2863 C   0  0  0  0  0  0  0  0  0  0  0  0
  -25.9019    0.8964   26.8088 C   0  0  0  0  0  0  0  0  0  0  0  0
  -24.6584    0.9713   27.4796 C   0  0  0  0  0  0  0  0  0  0  0  0
  -24.5490    0.3775   28.7086 C   0  0  0  0  0  0  0  0  0  0  0  0
  -28.2415    0.8034   26.7331 C   0  0  0  0  0  0  0  0  0  0  0  0
  -28.3587    0.7250   25.5615 O   0  0  0  0  0  0  0  0  0  0  0  0
  -29.2966    1.1214   27.5183 N   0  0  0  0  0  0  0  0  0  0  0  0
  -29.3512    1.5532   28.7882 C   0  0  0  0  0  0  0  0  0  0  0  0
  -30.6085    0.6539   26.9396 C   0  0  0  0  0  0  0  0  0  0  0  0
  -30.4896    1.6655   29.4651 C   0  0  0  0  0  0  0  0  0  0  0  0
  -31.7335    0.7677   27.7885 C   0  0  0  0  0  0  0  0  0  0  0  0
  -31.7012    1.3201   28.9833 C   0  0  0  0  0  0  0  0  0  0  0  0
  -23.2977    0.3564   29.4709 C   0  0  0  0  0  0  0  0  0  0  0  0
  -23.1078    1.2513   30.2596 F   0  0  0  0  0  0  0  0  0  0  0  0
  -22.1530    0.4742   28.6281 F   0  0  0  0  0  0  0  0  0  0  0  0
  -23.0464   -0.8566   30.0534 F   0  0  0  0  0  0  0  0  0  0  0  0
  2  3  1  0
  3  8  1  0
  7 10  1  0
  9 10  1  0
  3 11  1  0
 11 12  2  0
 11 13  1  0
 13 14  1  0
 13 15  1  0
 16 18  1  0
 17 18  1  0
 10 19  1  0
 19 20  1  0
 19 21  1  0
 19 22  1  0
  9  8  1  0
 14 16  1  0
 17 15  1  0
  1  2  2  0
  2  7  1  0
  7  6  2  0
  6  5  1  0
  5  4  2  0
  4  1  1  0
M  END

$$$$
