No_4654-gen_results/8p0m/2024-11-26-14-13-15/
     RDKit          3D

 16 17  0  0  0  0  0  0  0  0999 V2000
  -28.0162   -0.8135   28.8779 C   0  0  0  0  0  0  0  0  0  0  0  0
  -28.4690   -0.7850   29.8287 C   0  0  0  0  0  0  0  0  0  0  0  0
  -27.1356    0.2359   28.5352 C   0  0  0  0  0  0  0  0  0  0  0  0
  -26.3351    0.2900   27.2835 C   0  0  0  0  0  0  0  0  0  0  0  0
  -29.3807   -1.9134   30.3549 C   0  0  0  0  0  0  0  0  0  0  0  0
  -28.2295    0.3010   30.9036 C   0  0  0  0  0  0  0  0  0  0  0  0
  -25.3800    1.2740   27.0672 C   0  0  0  0  0  0  0  0  0  0  0  0
  -27.4150    1.3108   30.6139 C   0  0  0  0  0  0  0  0  0  0  0  0
  -26.7451    1.3177   29.4039 C   0  0  0  0  0  0  0  0  0  0  0  0
  -25.1639    2.3202   27.9821 C   0  0  0  0  0  0  0  0  0  0  0  0
  -25.8103    2.3449   29.1044 C   0  0  0  0  0  0  0  0  0  0  0  0
  -30.5023   -2.0792   29.9204 N   0  0  0  0  0  0  0  0  0  0  0  0
  -28.9140   -2.8177   31.2407 O   0  0  0  0  0  0  0  0  0  0  0  0
  -31.1885   -1.1126   29.1899 C   0  0  0  0  0  0  0  0  0  0  0  0
  -31.4355   -0.0992   29.3718 C   0  0  0  0  0  0  0  0  0  0  0  0
  -32.1695    0.8655   28.5094 C   0  0  0  0  0  0  0  0  0  0  0  0
  2  5  1  0
  5 12  1  0
  5 13  2  0
 12 14  1  0
 14 15  2  3
 15 16  1  0
  3  4  2  0
  4  7  1  0
  7 10  2  0
 10 11  1  0
 11  9  2  0
  1  2  2  0
  2  6  1  0
  6  8  2  0
  8  9  1  0
  9  3  1  0
  3  1  1  0
M  END

$$$$
