No_4429-gen_results/8p0m/2024-11-26-14-13-15/
     RDKit          3D

 19 20  0  0  0  0  0  0  0  0999 V2000
  -28.0162   -0.8135   28.8779 C   0  0  0  0  0  0  0  0  0  0  0  0
  -27.0636   -0.1189   28.6079 C   0  0  0  0  0  0  0  0  0  0  0  0
  -27.0010    0.6913   27.4910 C   0  0  0  0  0  0  0  0  0  0  0  0
  -25.8548    1.4825   27.0830 C   0  0  0  0  0  0  0  0  0  0  0  0
  -24.9008    1.3894   27.5922 C   0  0  0  0  0  0  0  0  0  0  0  0
  -24.6783    0.5764   28.8299 C   0  0  0  0  0  0  0  0  0  0  0  0
  -25.7704   -0.2051   29.2800 C   0  0  0  0  0  0  0  0  0  0  0  0
  -27.9632   -1.4284   30.2685 C   0  0  0  0  0  0  0  0  0  0  0  0
  -26.7440   -1.7577   30.8419 C   0  0  0  0  0  0  0  0  0  0  0  0
  -25.6336   -0.9974   30.4485 C   0  0  0  0  0  0  0  0  0  0  0  0
  -23.3348    0.5646   29.5044 C   0  0  0  0  0  0  0  0  0  0  0  0
  -22.2346    0.7013   28.7935 N   0  0  0  0  0  0  0  0  0  0  0  0
  -23.3149    0.4060   30.7324 O   0  0  0  0  0  0  0  0  0  0  0  0
  -20.8139    0.4296   29.2531 C   0  0  0  0  0  0  0  0  0  0  0  0
  -28.0945    0.7844   26.4947 C   0  0  0  0  0  0  0  0  0  0  0  0
  -29.1244    0.4993   26.6608 O   0  0  0  0  0  0  0  0  0  0  0  0
  -27.6240    0.9274   25.1575 N   0  0  0  0  0  0  0  0  0  0  0  0
  -28.5757    0.8887   24.0544 C   0  0  0  0  0  0  0  0  0  0  0  0
  -29.5561    0.2579   24.4017 C   0  0  0  0  0  0  0  0  0  0  0  0
  6 11  1  0
 11 12  1  0
 11 13  2  0
 12 14  1  0
  3 15  1  0
 15 16  2  0
 15 17  1  0
 17 18  1  0
 18 19  1  0
  2  3  1  0
  3  4  2  0
  4  5  1  0
  5  6  2  0
  6  7  1  0
  1  2  2  0
  2  7  1  0
  7 10  2  0
 10  9  1  0
  9  8  2  0
  8  1  1  0
M  END

$$$$
