No_4700-gen_results/8p0m/2024-11-26-14-13-15/
     RDKit          3D

 35 39  0  0  0  0  0  0  0  0999 V2000
  -28.0162   -0.8135   28.8779 C   0  0  0  0  0  0  0  0  0  0  0  0
  -28.4690   -0.7850   29.8287 C   0  0  0  0  0  0  0  0  0  0  0  0
  -26.5042   -0.7777   28.8766 C   0  0  0  0  0  0  0  0  0  0  0  0
  -25.6540   -0.6597   27.7191 C   0  0  0  0  0  0  0  0  0  0  0  0
  -27.9180   -0.9374   31.1824 C   0  0  0  0  0  0  0  0  0  0  0  0
  -26.5423   -0.9399   31.2606 C   0  0  0  0  0  0  0  0  0  0  0  0
  -25.7832   -0.8935   30.1201 C   0  0  0  0  0  0  0  0  0  0  0  0
  -25.8989    0.3149   26.7473 C   0  0  0  0  0  0  0  0  0  0  0  0
  -26.7729    0.4751   26.2575 C   0  0  0  0  0  0  0  0  0  0  0  0
  -26.9520    1.5350   25.1864 C   0  0  0  0  0  0  0  0  0  0  0  0
  -25.8813    2.3695   25.0852 C   0  0  0  0  0  0  0  0  0  0  0  0
  -24.7265    1.2485   26.4788 C   0  0  0  0  0  0  0  0  0  0  0  0
  -24.7826    2.2653   25.7067 C   0  0  0  0  0  0  0  0  0  0  0  0
  -23.3229    1.2346   27.2634 C   0  0  0  0  0  0  0  0  0  0  0  0
  -22.3838    1.9361   27.0679 C   0  0  0  0  0  0  0  0  0  0  0  0
  -23.1949    0.1087   28.2801 C   0  0  0  0  0  0  0  0  0  0  0  0
  -24.1696   -0.3355   28.5344 C   0  0  0  0  0  0  0  0  0  0  0  0
  -24.4789   -0.7290   29.8944 C   0  0  0  0  0  0  0  0  0  0  0  0
  -21.1555    1.7353   27.7157 N   0  0  0  0  0  0  0  0  0  0  0  0
  -25.2073   -1.9787   27.0231 C   0  0  0  0  0  0  0  0  0  0  0  0
  -30.0911   -0.8647   29.8645 C   0  0  0  0  0  0  0  0  0  0  0  0
  -30.6968   -1.7701   30.1607 O   0  0  0  0  0  0  0  0  0  0  0  0
  -30.6411    0.2290   29.4149 O   0  0  0  0  0  0  0  0  0  0  0  0
  -28.2112    1.6740   24.4789 C   0  0  0  0  0  0  0  0  0  0  0  0
  -29.0826    2.7341   24.7825 C   0  0  0  0  0  0  0  0  0  0  0  0
  -28.9193    3.6401   25.7665 C   0  0  0  0  0  0  0  0  0  0  0  0
  -29.8044    4.7352   25.9327 C   0  0  0  0  0  0  0  0  0  0  0  0
  -29.6268    5.6926   26.9499 C   0  0  0  0  0  0  0  0  0  0  0  0
  -28.4884    5.6063   27.7485 C   0  0  0  0  0  0  0  0  0  0  0  0
  -27.6021    4.5632   27.6109 C   0  0  0  0  0  0  0  0  0  0  0  0
  -27.7721    3.6321   26.6445 C   0  0  0  0  0  0  0  0  0  0  0  0
  -26.4794    4.4654   28.6113 C   0  0  0  0  0  0  0  0  0  0  0  0
  -25.5715    5.0748   28.5019 O   0  0  0  0  0  0  0  0  0  0  0  0
  -26.4994    3.2374   29.2696 O   0  0  0  0  0  0  0  0  0  0  0  0
  -30.2918    2.7932   23.9251 C   0  0  0  0  0  0  0  0  0  0  0  0
  3  4  1  0
  4  8  1  0
 12 14  1  0
 14 15  1  0
 14 16  1  0
  4 17  1  0
 16 17  1  0
  7 18  1  0
 17 18  1  0
 15 19  2  0
  4 20  1  0
  2 21  1  0
 21 22  2  0
 21 23  1  0
 10 24  1  0
 24 25  1  0
 25 26  1  0
 30 32  1  0
 32 33  2  0
 32 34  1  0
 25 35  1  0
 26 27  2  0
 27 28  1  0
 28 29  2  0
 29 30  1  0
 30 31  2  0
 31 26  1  0
  1  2  2  0
  2  5  1  0
  5  6  2  0
  6  7  1  0
  7  3  2  0
  3  1  1  0
  8  9  2  0
  9 10  1  0
 10 11  2  0
 11 13  1  0
 13 12  2  0
 12  8  1  0
M  END

$$$$
