No_435-gen_results/8p0m/2024-11-26-14-13-15/
     RDKit          3D

 25 27  0  0  0  0  0  0  0  0999 V2000
  -28.0162   -0.8135   28.8779 C   0  0  0  0  0  0  0  0  0  0  0  0
  -28.4690   -0.7850   29.8287 C   0  0  0  0  0  0  0  0  0  0  0  0
  -27.0871    0.2903   28.6377 C   0  0  0  0  0  0  0  0  0  0  0  0
  -26.8317    1.2487   29.5869 C   0  0  0  0  0  0  0  0  0  0  0  0
  -28.3914    0.0801   31.0065 C   0  0  0  0  0  0  0  0  0  0  0  0
  -27.4940    1.1521   30.7841 C   0  0  0  0  0  0  0  0  0  0  0  0
  -26.3172    0.3994   27.3653 C   0  0  0  0  0  0  0  0  0  0  0  0
  -26.8815    0.9711   26.3721 C   0  0  0  0  0  0  0  0  0  0  0  0
  -25.0088   -0.0567   27.3826 C   0  0  0  0  0  0  0  0  0  0  0  0
  -28.1703    1.4323   26.2851 C   0  0  0  0  0  0  0  0  0  0  0  0
  -28.7118    1.8207   25.0621 C   0  0  0  0  0  0  0  0  0  0  0  0
  -29.9921    2.3582   24.9725 C   0  0  0  0  0  0  0  0  0  0  0  0
  -30.6831    2.7187   26.1200 C   0  0  0  0  0  0  0  0  0  0  0  0
  -30.1148    2.4124   27.3582 C   0  0  0  0  0  0  0  0  0  0  0  0
  -28.9133    1.8652   27.4716 C   0  0  0  0  0  0  0  0  0  0  0  0
  -26.0865    1.0020   25.1060 C   0  0  0  0  0  0  0  0  0  0  0  0
  -30.9503    2.7567   28.5743 C   0  0  0  0  0  0  0  0  0  0  0  0
  -31.5152    1.6726   29.2209 C   0  0  0  0  0  0  0  0  0  0  0  0
  -31.8473    1.7824   30.5160 C   0  0  0  0  0  0  0  0  0  0  0  0
  -31.9017    3.0660   31.1296 C   0  0  0  0  0  0  0  0  0  0  0  0
  -30.7745    4.0380   29.1759 C   0  0  0  0  0  0  0  0  0  0  0  0
  -31.2797    4.1756   30.4928 C   0  0  0  0  0  0  0  0  0  0  0  0
  -30.1541    5.1354   28.5610 C   0  0  0  0  0  0  0  0  0  0  0  0
  -30.5347    5.6206   27.6250 O   0  0  0  0  0  0  0  0  0  0  0  0
  -28.9243    5.4936   29.1152 O   0  0  0  0  0  0  0  0  0  0  0  0
  3  7  1  0
  7  8  1  0
  7  9  1  0
  8 10  1  0
  8 16  1  0
 14 17  1  0
 21 23  1  0
 23 24  2  0
 23 25  1  0
 17 18  2  0
 18 19  1  0
 19 20  2  0
 20 22  1  0
 22 21  2  0
 21 17  1  0
  1  2  2  0
  2  5  1  0
  5  6  2  0
  6  4  1  0
  4  3  2  0
  3  1  1  0
 10 11  2  0
 11 12  1  0
 12 13  2  0
 13 14  1  0
 14 15  2  0
 15 10  1  0
M  END

$$$$
