No_4656-gen_results/8p0m/2024-11-26-14-13-15/
     RDKit          3D

 35 37  0  0  0  0  0  0  0  0999 V2000
  -28.0162   -0.8135   28.8779 C   0  0  0  0  0  0  0  0  0  0  0  0
  -27.0636   -0.1190   28.6079 C   0  0  0  0  0  0  0  0  0  0  0  0
  -27.0010    0.6913   27.4910 C   0  0  0  0  0  0  0  0  0  0  0  0
  -28.1373    0.7363   26.6350 C   0  0  0  0  0  0  0  0  0  0  0  0
  -29.2360    0.0765   27.0690 C   0  0  0  0  0  0  0  0  0  0  0  0
  -29.2177   -0.6429   28.1747 C   0  0  0  0  0  0  0  0  0  0  0  0
  -30.3516    0.1564   26.2430 N   0  0  0  0  0  0  0  0  0  0  0  0
  -30.2688    0.1234   24.9366 C   0  0  0  0  0  0  0  0  0  0  0  0
  -31.2887   -0.1530   24.2272 C   0  0  0  0  0  0  0  0  0  0  0  0
  -31.5996    0.0064   26.7764 C   0  0  0  0  0  0  0  0  0  0  0  0
  -32.7380   -0.2195   26.0165 C   0  0  0  0  0  0  0  0  0  0  0  0
  -32.6129   -0.1533   24.7004 C   0  0  0  0  0  0  0  0  0  0  0  0
  -25.7217    1.4039   27.0700 C   0  0  0  0  0  0  0  0  0  0  0  0
  -25.1686    2.2617   28.0701 C   0  0  0  0  0  0  0  0  0  0  0  0
  -23.9580    2.3013   28.4775 C   0  0  0  0  0  0  0  0  0  0  0  0
  -22.9519    1.5779   27.6342 C   0  0  0  0  0  0  0  0  0  0  0  0
  -21.6050    1.5465   28.1739 C   0  0  0  0  0  0  0  0  0  0  0  0
  -24.5915    0.4715   26.7451 C   0  0  0  0  0  0  0  0  0  0  0  0
  -23.3317    1.1128   26.4803 C   0  0  0  0  0  0  0  0  0  0  0  0
  -26.0374    2.2362   25.7890 C   0  0  0  0  0  0  0  0  0  0  0  0
  -28.0577   -1.6250   30.1533 C   0  0  0  0  0  0  0  0  0  0  0  0
  -27.1956   -2.1419   30.4275 O   0  0  0  0  0  0  0  0  0  0  0  0
  -29.1928   -1.7406   30.7543 O   0  0  0  0  0  0  0  0  0  0  0  0
  -20.6895    2.1267   27.5209 O   0  0  0  0  0  0  0  0  0  0  0  0
  -21.3237    0.4008   28.8947 O   0  0  0  0  0  0  0  0  0  0  0  0
  -26.2048    3.0454   28.9502 C   0  0  0  0  0  0  0  0  0  0  0  0
  -27.2441    3.3441   28.7480 O   0  0  0  0  0  0  0  0  0  0  0  0
  -25.5590    3.6436   30.0239 O   0  0  0  0  0  0  0  0  0  0  0  0
  -26.3351    4.4780   30.7622 C   0  0  0  0  0  0  0  0  0  0  0  0
  -26.8143    3.9493   31.8546 C   0  0  0  0  0  0  0  0  0  0  0  0
  -26.3356    2.8559   32.1716 F   0  0  0  0  0  0  0  0  0  0  0  0
  -26.4068    4.7269   32.9709 F   0  0  0  0  0  0  0  0  0  0  0  0
  -28.1841    3.9797   31.9482 F   0  0  0  0  0  0  0  0  0  0  0  0
  -26.3337    5.7865   30.4102 N   0  0  0  0  0  0  0  0  0  0  0  0
  -26.7461    6.7526   31.1813 C   0  0  0  0  0  0  0  0  0  0  0  0
  5  7  1  0
  7  8  1  0
  7 10  1  0
 10 11  1  0
  9 12  1  0
  3 13  1  0
 13 14  1  0
 15 16  1  0
 16 17  1  0
 13 18  1  0
 16 19  1  0
 18 19  1  0
 13 20  1  0
  1 21  1  0
 21 22  2  0
 21 23  1  0
 17 24  2  0
 17 25  1  0
 14 26  1  0
 26 27  2  0
 26 28  1  0
 28 29  1  0
 29 30  1  0
 30 31  1  0
 30 32  1  0
 30 33  1  0
 29 34  2  3
 34 35  1  0
  8  9  1  0
 12 11  1  0
 14 15  1  0
  1  2  2  0
  2  3  1  0
  3  4  2  0
  4  5  1  0
  5  6  2  0
  6  1  1  0
M  END

$$$$
