No_4458-gen_results/8p0m/2024-11-26-14-13-15/
     RDKit          3D

 16 16  0  0  0  0  0  0  0  0999 V2000
  -28.1229   -1.3353   28.4874 O   0  0  0  0  0  0  0  0  0  0  0  0
  -27.0637   -0.8242   28.8687 C   0  0  0  0  0  0  0  0  0  0  0  0
  -27.0246    0.1877   29.7358 C   0  0  0  0  0  0  0  0  0  0  0  0
  -26.0012    0.7006   29.9803 O   0  0  0  0  0  0  0  0  0  0  0  0
  -24.9521    0.2361   29.6109 C   0  0  0  0  0  0  0  0  0  0  0  0
  -23.6978    1.1262   29.7483 C   0  0  0  0  0  0  0  0  0  0  0  0
  -25.7579   -1.0937   28.2743 C   0  0  0  0  0  0  0  0  0  0  0  0
  -24.6450   -0.2245   28.3266 C   0  0  0  0  0  0  0  0  0  0  0  0
  -23.1991    1.6754   28.8469 O   0  0  0  0  0  0  0  0  0  0  0  0
  -28.2707    0.3707   30.5114 C   0  0  0  0  0  0  0  0  0  0  0  0
  -28.3230    1.2248   31.4997 C   0  0  0  0  0  0  0  0  0  0  0  0
  -29.0834    1.6270   32.1490 C   0  0  0  0  0  0  0  0  0  0  0  0
  -29.0369    2.6195   33.2612 C   0  0  0  0  0  0  0  0  0  0  0  0
  -27.7784    3.2018   33.4970 C   0  0  0  0  0  0  0  0  0  0  0  0
  -26.6842    2.7769   32.7021 C   0  0  0  0  0  0  0  0  0  0  0  0
  -26.8998    1.8504   31.7634 C   0  0  0  0  0  0  0  0  0  0  0  0
  1  2  1  0
  2  3  1  0
  3  4  1  0
  4  5  1  0
  5  6  2  0
  2  7  1  0
  5  8  1  0
  7  8  1  0
  6  9  2  0
  3 10  1  0
 10 11  1  0
 11 12  2  3
 12 13  1  0
 13 14  2  3
 14 15  1  0
 15 16  2  0
M  END

$$$$
