No_4209-gen_results/8p0m/2024-11-26-14-13-15/
     RDKit          3D

 21 24  0  0  0  0  0  0  0  0999 V2000
  -28.0162   -0.8135   28.8779 C   0  0  0  0  0  0  0  0  0  0  0  0
  -27.0636   -0.1189   28.6079 C   0  0  0  0  0  0  0  0  0  0  0  0
  -26.9716    0.7139   27.5060 C   0  0  0  0  0  0  0  0  0  0  0  0
  -28.1053    0.7744   26.6421 C   0  0  0  0  0  0  0  0  0  0  0  0
  -29.2041    0.1179   27.0477 C   0  0  0  0  0  0  0  0  0  0  0  0
  -29.2127   -0.6088   28.1281 C   0  0  0  0  0  0  0  0  0  0  0  0
  -25.7106    1.4518   27.1380 C   0  0  0  0  0  0  0  0  0  0  0  0
  -24.6052    0.9253   27.6902 C   0  0  0  0  0  0  0  0  0  0  0  0
  -24.6227    0.0600   28.8225 C   0  0  0  0  0  0  0  0  0  0  0  0
  -25.7269   -0.4734   29.2409 C   0  0  0  0  0  0  0  0  0  0  0  0
  -23.2726    1.6786   27.4284 C   0  0  0  0  0  0  0  0  0  0  0  0
  -23.2122    2.7616   26.7043 N   0  0  0  0  0  0  0  0  0  0  0  0
  -21.9800    1.0680   27.6364 C   0  0  0  0  0  0  0  0  0  0  0  0
  -21.7544    0.0966   28.6196 C   0  0  0  0  0  0  0  0  0  0  0  0
  -23.1013   -0.5396   29.1098 C   0  0  0  0  0  0  0  0  0  0  0  0
  -25.6619   -1.5037   30.0190 O   0  0  0  0  0  0  0  0  0  0  0  0
  -30.4477    0.3005   26.2431 C   0  0  0  0  0  0  0  0  0  0  0  0
  -31.4770    0.2473   26.6516 O   0  0  0  0  0  0  0  0  0  0  0  0
  -30.2382    0.2537   24.8669 O   0  0  0  0  0  0  0  0  0  0  0  0
  -25.8109    2.5223   26.1686 C   0  0  0  0  0  0  0  0  0  0  0  0
  -24.4620    3.1931   26.0252 C   0  0  0  0  0  0  0  0  0  0  0  0
  3  7  1  0
  8  9  1  0
  2 10  1  0
  9 10  1  0
 11 13  1  0
 13 14  1  0
  9 15  1  0
 14 15  1  0
 10 16  2  0
  5 17  1  0
 17 18  2  0
 17 19  1  0
  1  2  2  0
  2  3  1  0
  3  4  2  0
  4  5  1  0
  5  6  2  0
  6  1  1  0
  7 20  2  0
 20 21  1  0
 21 12  2  0
 12 11  1  0
 11  8  2  0
  8  7  1  0
M  END

$$$$
