No_471-gen_results/8p0m/2024-11-26-14-13-15/
     RDKit          3D

 35 36  0  0  0  0  0  0  0  0999 V2000
  -28.0162   -0.8135   28.8779 C   0  0  0  0  0  0  0  0  0  0  0  0
  -27.0636   -0.1189   28.6079 C   0  0  0  0  0  0  0  0  0  0  0  0
  -25.7923   -0.4302   29.0761 C   0  0  0  0  0  0  0  0  0  0  0  0
  -24.5456    0.3494   28.8225 C   0  0  0  0  0  0  0  0  0  0  0  0
  -24.6586    1.4196   27.8878 C   0  0  0  0  0  0  0  0  0  0  0  0
  -25.9471    1.6811   27.3792 C   0  0  0  0  0  0  0  0  0  0  0  0
  -27.0439    0.9739   27.6871 C   0  0  0  0  0  0  0  0  0  0  0  0
  -29.1882   -0.1472   29.0918 N   0  0  0  0  0  0  0  0  0  0  0  0
  -29.6010    0.1626   30.3267 C   0  0  0  0  0  0  0  0  0  0  0  0
  -30.2668   -0.6190   28.1881 C   0  0  0  0  0  0  0  0  0  0  0  0
  -23.4591    2.1629   27.6048 C   0  0  0  0  0  0  0  0  0  0  0  0
  -22.3144    1.9058   28.0794 O   0  0  0  0  0  0  0  0  0  0  0  0
  -23.5910    3.2204   26.8342 O   0  0  0  0  0  0  0  0  0  0  0  0
  -31.5356   -0.7602   28.8445 C   0  0  0  0  0  0  0  0  0  0  0  0
  -32.5975   -0.8853   28.1015 C   0  0  0  0  0  0  0  0  0  0  0  0
  -32.5192   -0.4511   26.7967 C   0  0  0  0  0  0  0  0  0  0  0  0
  -31.2511   -0.2937   26.1294 C   0  0  0  0  0  0  0  0  0  0  0  0
  -30.2223   -0.1179   26.8861 C   0  0  0  0  0  0  0  0  0  0  0  0
  -31.1977   -0.0187   24.6819 C   0  0  0  0  0  0  0  0  0  0  0  0
  -28.4954    0.3232   31.2162 C   0  0  0  0  0  0  0  0  0  0  0  0
  -30.6789    0.5408   30.6284 O   0  0  0  0  0  0  0  0  0  0  0  0
  -28.0788    0.8879   32.0083 C   0  0  0  0  0  0  0  0  0  0  0  0
  -27.2849    1.4924   32.6093 C   0  0  0  0  0  0  0  0  0  0  0  0
  -26.3212    2.3635   32.9130 C   0  0  0  0  0  0  0  0  0  0  0  0
  -25.5081    3.3112   33.4122 C   0  0  0  0  0  0  0  0  0  0  0  0
  -25.7844    4.1598   34.7452 Cl  0  0  0  0  0  0  0  0  0  0  0  0
  -24.4924    3.5771   32.6213 F   0  0  0  0  0  0  0  0  0  0  0  0
  -25.5102   -1.5763   30.0224 C   0  0  0  0  0  0  0  0  0  0  0  0
  -26.0899   -1.7174   30.9516 F   0  0  0  0  0  0  0  0  0  0  0  0
  -25.7714   -2.7098   29.1148 F   0  0  0  0  0  0  0  0  0  0  0  0
  -24.1597   -1.8495   30.2422 F   0  0  0  0  0  0  0  0  0  0  0  0
  -31.3098   -0.9779   23.9473 O   0  0  0  0  0  0  0  0  0  0  0  0
  -31.3654    1.1624   24.1911 O   0  0  0  0  0  0  0  0  0  0  0  0
  -33.9335   -1.1235   28.6514 C   0  0  0  0  0  0  0  0  0  0  0  0
  -34.7804   -1.1698   27.9489 F   0  0  0  0  0  0  0  0  0  0  0  0
  1  2  1  0
  1  8  1  0
  8  9  1  0
  8 10  1  0
  5 11  1  0
 11 12  2  0
 11 13  1  0
 17 19  1  0
  9 20  1  0
  9 21  2  0
 20 22  3  0
 22 23  1  0
 23 24  2  3
 24 25  1  0
 25 26  1  0
 25 27  1  0
  3 28  1  0
 28 29  1  0
 28 30  1  0
 28 31  1  0
 19 32  2  0
 19 33  1  0
 15 34  1  0
 34 35  1  0
  2  3  2  0
  3  4  1  0
  4  5  2  0
  5  6  1  0
  6  7  2  0
  7  2  1  0
 10 14  2  0
 14 15  1  0
 15 16  2  0
 16 17  1  0
 17 18  2  0
 18 10  1  0
M  END

$$$$
