No_4935-gen_results/8p0m/2024-11-26-14-13-15/
     RDKit          3D

 31 33  0  0  0  0  0  0  0  0999 V2000
  -28.0162   -0.8135   28.8779 C   0  0  0  0  0  0  0  0  0  0  0  0
  -27.0636   -0.1189   28.6079 C   0  0  0  0  0  0  0  0  0  0  0  0
  -26.9716    0.7139   27.5060 C   0  0  0  0  0  0  0  0  0  0  0  0
  -28.1053    0.7744   26.6421 C   0  0  0  0  0  0  0  0  0  0  0  0
  -29.2008    0.1044   27.0527 C   0  0  0  0  0  0  0  0  0  0  0  0
  -29.2096   -0.6029   28.1853 C   0  0  0  0  0  0  0  0  0  0  0  0
  -30.3077    0.2215   26.2218 N   0  0  0  0  0  0  0  0  0  0  0  0
  -31.0284    1.0864   26.0542 C   0  0  0  0  0  0  0  0  0  0  0  0
  -31.1129    2.1247   26.9127 C   0  0  0  0  0  0  0  0  0  0  0  0
  -31.9119    1.1072   24.8303 C   0  0  0  0  0  0  0  0  0  0  0  0
  -32.0143    3.2782   26.6847 C   0  0  0  0  0  0  0  0  0  0  0  0
  -30.5822   -1.0850   25.4571 C   0  0  0  0  0  0  0  0  0  0  0  0
  -31.1257   -2.0653   25.8993 O   0  0  0  0  0  0  0  0  0  0  0  0
  -29.9690   -1.2604   24.3845 F   0  0  0  0  0  0  0  0  0  0  0  0
  -32.7325    2.2539   24.5607 C   0  0  0  0  0  0  0  0  0  0  0  0
  -32.7505    3.2959   25.5018 C   0  0  0  0  0  0  0  0  0  0  0  0
  -25.5904   -0.1883   29.2093 C   0  0  0  0  0  0  0  0  0  0  0  0
  -25.3148    0.6172   30.3351 C   0  0  0  0  0  0  0  0  0  0  0  0
  -23.9973    0.5097   30.9196 C   0  0  0  0  0  0  0  0  0  0  0  0
  -23.0664   -0.4003   30.3949 C   0  0  0  0  0  0  0  0  0  0  0  0
  -23.4283   -1.2191   29.3091 C   0  0  0  0  0  0  0  0  0  0  0  0
  -24.6954   -1.1139   28.7088 C   0  0  0  0  0  0  0  0  0  0  0  0
  -28.0243   -1.6393   30.1855 C   0  0  0  0  0  0  0  0  0  0  0  0
  -27.8928   -2.7218   30.2230 O   0  0  0  0  0  0  0  0  0  0  0  0
  -28.3065   -0.8910   31.3041 O   0  0  0  0  0  0  0  0  0  0  0  0
  -28.0053    1.7943   25.2657 Cl  0  0  0  0  0  0  0  0  0  0  0  0
  -26.3924    1.7967   30.9518 Cl  0  0  0  0  0  0  0  0  0  0  0  0
  -26.9225   -3.5435   30.0395 C   0  0  0  0  0  0  0  0  0  0  0  0
  -27.1880   -4.6800   29.1858 C   0  0  0  0  0  0  0  0  0  0  0  0
  -26.0717   -5.4878   29.0723 F   0  0  0  0  0  0  0  0  0  0  0  0
  -28.2216   -5.0561   28.9868 F   0  0  0  0  0  0  0  0  0  0  0  0
  5  7  1  0
  7  8  1  0
  7 12  1  0
 12 13  2  0
 12 14  1  0
  2 17  1  0
  1 23  1  0
 23 24  1  0
 23 25  2  0
  4 26  1  0
 18 27  1  0
 24 28  1  0
 28 29  1  0
 29 30  1  0
 29 31  1  0
 17 18  2  0
 18 19  1  0
 19 20  2  0
 20 21  1  0
 21 22  2  0
 22 17  1  0
  1  2  2  0
  2  3  1  0
  3  4  2  0
  4  5  1  0
  5  6  2  0
  6  1  1  0
  8  9  2  0
  9 11  1  0
 11 16  2  0
 16 15  1  0
 15 10  2  0
 10  8  1  0
M  END

$$$$
