No_4047-gen_results/8p0m/2024-11-26-14-13-15/
     RDKit          3D

 16 17  0  0  0  0  0  0  0  0999 V2000
  -28.0162   -0.8135   28.8779 C   0  0  0  0  0  0  0  0  0  0  0  0
  -28.4690   -0.7850   29.8287 C   0  0  0  0  0  0  0  0  0  0  0  0
  -27.1356    0.2359   28.5352 C   0  0  0  0  0  0  0  0  0  0  0  0
  -26.8745    1.2825   29.3982 C   0  0  0  0  0  0  0  0  0  0  0  0
  -27.5070    1.2380   30.6295 C   0  0  0  0  0  0  0  0  0  0  0  0
  -28.3293    0.1745   30.9350 C   0  0  0  0  0  0  0  0  0  0  0  0
  -26.4409    0.0880   27.2474 C   0  0  0  0  0  0  0  0  0  0  0  0
  -26.9058    0.5318   26.0811 N   0  0  0  0  0  0  0  0  0  0  0  0
  -25.1852   -0.3239   27.2168 O   0  0  0  0  0  0  0  0  0  0  0  0
  -26.2387    0.3444   24.8117 C   0  0  0  0  0  0  0  0  0  0  0  0
  -28.2318    1.0661   25.9594 C   0  0  0  0  0  0  0  0  0  0  0  0
  -29.3170    0.3444   25.8976 C   0  0  0  0  0  0  0  0  0  0  0  0
  -30.5668    0.8873   25.9821 C   0  0  0  0  0  0  0  0  0  0  0  0
  -30.6677    2.2818   25.9014 C   0  0  0  0  0  0  0  0  0  0  0  0
  -28.2459    2.5583   26.0087 C   0  0  0  0  0  0  0  0  0  0  0  0
  -29.5206    3.1598   25.9618 C   0  0  0  0  0  0  0  0  0  0  0  0
  3  7  1  0
  7  8  1  0
  7  9  2  0
  8 10  1  0
  8 11  1  0
  1  2  2  0
  2  6  1  0
  6  5  2  0
  5  4  1  0
  4  3  2  0
  3  1  1  0
 11 12  2  0
 12 13  1  0
 13 14  2  0
 14 16  1  0
 16 15  2  0
 15 11  1  0
M  END

$$$$
