No_4420-gen_results/8p0m/2024-11-26-14-13-15/
     RDKit          3D

 26 29  0  0  0  0  0  0  0  0999 V2000
  -28.0162   -0.8135   28.8779 C   0  0  0  0  0  0  0  0  0  0  0  0
  -28.4690   -0.7850   29.8287 C   0  0  0  0  0  0  0  0  0  0  0  0
  -26.5042   -0.7777   28.8766 C   0  0  0  0  0  0  0  0  0  0  0  0
  -25.9150   -0.6580   29.9230 C   0  0  0  0  0  0  0  0  0  0  0  0
  -27.9691   -0.7243   31.2047 C   0  0  0  0  0  0  0  0  0  0  0  0
  -26.5847   -0.6393   31.2062 C   0  0  0  0  0  0  0  0  0  0  0  0
  -30.0752   -0.8832   29.9049 C   0  0  0  0  0  0  0  0  0  0  0  0
  -30.5929   -0.4839   28.9435 O   0  0  0  0  0  0  0  0  0  0  0  0
  -30.7205   -1.0947   31.0849 N   0  0  0  0  0  0  0  0  0  0  0  0
  -32.1600   -1.1508   31.0786 C   0  0  0  0  0  0  0  0  0  0  0  0
  -32.8971   -0.6842   30.5039 C   0  0  0  0  0  0  0  0  0  0  0  0
  -34.3428   -0.7566   30.6019 C   0  0  0  0  0  0  0  0  0  0  0  0
  -34.7669   -1.5546   31.6968 C   0  0  0  0  0  0  0  0  0  0  0  0
  -33.8465   -2.1798   32.4818 C   0  0  0  0  0  0  0  0  0  0  0  0
  -32.4671   -2.0078   32.3197 C   0  0  0  0  0  0  0  0  0  0  0  0
  -36.4332   -1.7190   31.9382 Cl  0  0  0  0  0  0  0  0  0  0  0  0
  -24.3730   -0.5985   30.0140 C   0  0  0  0  0  0  0  0  0  0  0  0
  -23.6958    0.1509   29.0633 C   0  0  0  0  0  0  0  0  0  0  0  0
  -23.2083    1.0610   29.0567 C   0  0  0  0  0  0  0  0  0  0  0  0
  -22.4697    1.7379   27.9004 C   0  0  0  0  0  0  0  0  0  0  0  0
  -22.8219    2.0123   26.9076 C   0  0  0  0  0  0  0  0  0  0  0  0
  -24.0894    1.1265   26.5846 C   0  0  0  0  0  0  0  0  0  0  0  0
  -24.4236    0.2578   27.5441 C   0  0  0  0  0  0  0  0  0  0  0  0
  -25.7563   -0.3522   27.7812 N   0  0  0  0  0  0  0  0  0  0  0  0
  -24.8919    1.2303   24.9813 Br  0  0  0  0  0  0  0  0  0  0  0  0
  -34.3753   -3.1117   33.8407 Cl  0  0  0  0  0  0  0  0  0  0  0  0
  2  7  1  0
  7  8  2  0
  7  9  1  0
  9 10  1  0
 13 16  1  0
  4 17  1  0
 17 18  1  0
  3 24  1  0
 23 24  1  0
 22 25  1  0
 14 26  1  0
 18 19  2  0
 19 20  1  0
 20 21  2  0
 21 22  1  0
 22 23  2  0
 23 18  1  0
  1  2  2  0
  2  5  1  0
  5  6  2  0
  6  4  1  0
  4  3  2  0
  3  1  1  0
 10 11  2  0
 11 12  1  0
 12 13  2  0
 13 14  1  0
 14 15  2  0
 15 10  1  0
M  END

$$$$
