No_479-gen_results/8p0m/2024-11-26-14-13-15/
     RDKit          3D

 15 15  0  0  0  0  0  0  0  0999 V2000
  -28.0162   -0.8135   28.8779 C   0  0  0  0  0  0  0  0  0  0  0  0
  -28.4690   -0.7850   29.8287 C   0  0  0  0  0  0  0  0  0  0  0  0
  -27.0871    0.2903   28.6377 C   0  0  0  0  0  0  0  0  0  0  0  0
  -26.7676    1.0274   29.4716 C   0  0  0  0  0  0  0  0  0  0  0  0
  -28.2764    0.0268   31.0145 C   0  0  0  0  0  0  0  0  0  0  0  0
  -27.3287    1.0538   30.7535 C   0  0  0  0  0  0  0  0  0  0  0  0
  -26.3859    0.3011   27.2661 C   0  0  0  0  0  0  0  0  0  0  0  0
  -25.3222   -0.3039   27.2856 F   0  0  0  0  0  0  0  0  0  0  0  0
  -27.1898   -0.2398   26.2911 F   0  0  0  0  0  0  0  0  0  0  0  0
  -26.0828    1.5894   26.8448 F   0  0  0  0  0  0  0  0  0  0  0  0
  -29.6633   -2.1114   30.3905 Cl  0  0  0  0  0  0  0  0  0  0  0  0
  -26.9891    2.0787   31.7670 C   0  0  0  0  0  0  0  0  0  0  0  0
  -26.0219    1.9520   32.3352 F   0  0  0  0  0  0  0  0  0  0  0  0
  -27.9948    2.0953   32.6543 F   0  0  0  0  0  0  0  0  0  0  0  0
  -27.0733    3.2926   31.1082 F   0  0  0  0  0  0  0  0  0  0  0  0
  3  7  1  0
  7  8  1  0
  7  9  1  0
  7 10  1  0
  2 11  1  0
  6 12  1  0
 12 13  1  0
 12 14  1  0
 12 15  1  0
  1  2  2  0
  2  5  1  0
  5  6  2  0
  6  4  1  0
  4  3  2  0
  3  1  1  0
M  END

$$$$
