No_4379-gen_results/8p0m/2024-11-26-14-13-15/
     RDKit          3D

 35 38  0  0  0  0  0  0  0  0999 V2000
  -28.1229   -1.3353   28.4874 O   0  0  0  0  0  0  0  0  0  0  0  0
  -27.4806   -0.4044   28.7094 C   0  0  0  0  0  0  0  0  0  0  0  0
  -26.3804   -0.0867   27.9394 C   0  0  0  0  0  0  0  0  0  0  0  0
  -27.6664    0.4468   29.8988 N   0  0  0  0  0  0  0  0  0  0  0  0
  -26.4086    0.8567   26.8802 C   0  0  0  0  0  0  0  0  0  0  0  0
  -25.0824   -0.6970   28.1699 C   0  0  0  0  0  0  0  0  0  0  0  0
  -25.2842    1.0488   26.0470 C   0  0  0  0  0  0  0  0  0  0  0  0
  -24.9046   -1.5806   29.3141 C   0  0  0  0  0  0  0  0  0  0  0  0
  -23.9863    0.7575   26.4120 C   0  0  0  0  0  0  0  0  0  0  0  0
  -23.8882   -0.1885   27.4877 C   0  0  0  0  0  0  0  0  0  0  0  0
  -28.7859    0.1486   30.7809 C   0  0  0  0  0  0  0  0  0  0  0  0
  -26.8377    1.5368   30.2112 C   0  0  0  0  0  0  0  0  0  0  0  0
  -27.4202    2.7255   30.1158 C   0  0  0  0  0  0  0  0  0  0  0  0
  -27.0548    3.6331   30.3244 C   0  0  0  0  0  0  0  0  0  0  0  0
  -27.7139    5.0302   30.1986 C   0  0  0  0  0  0  0  0  0  0  0  0
  -29.0000    4.9801   29.7621 C   0  0  0  0  0  0  0  0  0  0  0  0
  -29.5459    3.7557   29.4420 C   0  0  0  0  0  0  0  0  0  0  0  0
  -28.8029    2.6541   29.5990 C   0  0  0  0  0  0  0  0  0  0  0  0
  -27.7164    1.3882   26.4450 C   0  0  0  0  0  0  0  0  0  0  0  0
  -27.7765    2.4991   25.8315 C   0  0  0  0  0  0  0  0  0  0  0  0
  -29.0256    3.0842   25.4180 C   0  0  0  0  0  0  0  0  0  0  0  0
  -29.9123    2.4615   24.6755 C   0  0  0  0  0  0  0  0  0  0  0  0
  -31.1754    3.0715   24.3081 C   0  0  0  0  0  0  0  0  0  0  0  0
  -31.5035    4.2983   24.8846 C   0  0  0  0  0  0  0  0  0  0  0  0
  -30.6114    4.9646   25.7514 C   0  0  0  0  0  0  0  0  0  0  0  0
  -29.3806    4.4243   26.0588 C   0  0  0  0  0  0  0  0  0  0  0  0
  -29.6195    1.4211   29.5045 C   0  0  0  0  0  0  0  0  0  0  0  0
  -30.9985    1.3731   29.9842 C   0  0  0  0  0  0  0  0  0  0  0  0
  -29.2265    0.3569   29.1849 O   0  0  0  0  0  0  0  0  0  0  0  0
  -31.9045    0.6632   29.4709 C   0  0  0  0  0  0  0  0  0  0  0  0
  -31.7610    0.0956   28.3374 C   0  0  0  0  0  0  0  0  0  0  0  0
  -31.7591    0.7289   27.2266 C   0  0  0  0  0  0  0  0  0  0  0  0
  -31.7130    0.2582   25.8411 C   0  0  0  0  0  0  0  0  0  0  0  0
  -31.5877   -1.0996   25.7639 C   0  0  0  0  0  0  0  0  0  0  0  0
  -31.6578   -1.9064   26.9398 C   0  0  0  0  0  0  0  0  0  0  0  0
  1  2  2  0
  2  3  1  0
  2  4  1  0
  6  8  1  0
  4 11  1  0
  4 12  1  0
 12 13  1  0
  5 19  1  0
 19 20  2  3
 20 21  1  0
 18 27  1  0
 27 28  1  0
 11 29  1  0
 27 29  1  0
 28 30  1  0
 30 31  1  0
 31 32  2  3
 32 33  1  0
 33 34  2  3
 34 35  1  0
 13 14  2  0
 14 15  1  0
 15 16  2  0
 16 17  1  0
 17 18  2  0
 18 13  1  0
  3  5  2  0
  5  7  1  0
  7  9  2  0
  9 10  1  0
 10  6  2  0
  6  3  1  0
 21 22  2  0
 22 23  1  0
 23 24  2  0
 24 25  1  0
 25 26  2  0
 26 21  1  0
M  END

$$$$
