No_4821-gen_results/8p0m/2024-11-26-14-13-15/
     RDKit          3D

 16 17  0  0  0  0  0  0  0  0999 V2000
  -28.0162   -0.8135   28.8779 C   0  0  0  0  0  0  0  0  0  0  0  0
  -28.4690   -0.7850   29.8287 C   0  0  0  0  0  0  0  0  0  0  0  0
  -26.5455   -0.8762   28.8500 C   0  0  0  0  0  0  0  0  0  0  0  0
  -25.8041   -1.0324   30.0571 C   0  0  0  0  0  0  0  0  0  0  0  0
  -27.9437   -0.9869   31.2075 C   0  0  0  0  0  0  0  0  0  0  0  0
  -26.5825   -1.0386   31.2231 C   0  0  0  0  0  0  0  0  0  0  0  0
  -30.0606   -0.7371   29.9024 C   0  0  0  0  0  0  0  0  0  0  0  0
  -30.5524   -0.2769   29.0111 O   0  0  0  0  0  0  0  0  0  0  0  0
  -30.7104   -0.9342   31.1151 N   0  0  0  0  0  0  0  0  0  0  0  0
  -32.1406   -0.8305   31.1405 C   0  0  0  0  0  0  0  0  0  0  0  0
  -24.1336   -1.2283   30.2536 Cl  0  0  0  0  0  0  0  0  0  0  0  0
  -32.8479   -0.2573   30.6485 C   0  0  0  0  0  0  0  0  0  0  0  0
  -33.8219    0.1240   30.5837 C   0  0  0  0  0  0  0  0  0  0  0  0
  -32.5872   -1.7151   32.3118 C   0  0  0  0  0  0  0  0  0  0  0  0
  -34.0166   -1.5253   32.5106 C   0  0  0  0  0  0  0  0  0  0  0  0
  -34.6888   -0.6057   31.6836 C   0  0  0  0  0  0  0  0  0  0  0  0
  2  7  1  0
  7  8  2  0
  7  9  1  0
  9 10  1  0
  4 11  1  0
 10 12  2  0
 12 13  1  0
 13 16  2  0
 16 15  1  0
 15 14  2  0
 14 10  1  0
  1  2  2  0
  2  5  1  0
  5  6  2  0
  6  4  1  0
  4  3  2  0
  3  1  1  0
M  END

$$$$
