No_4544-gen_results/8p0m/2024-11-26-14-13-15/
     RDKit          3D

 19 21  0  0  0  0  0  0  0  0999 V2000
  -28.0162   -0.8135   28.8779 C   0  0  0  0  0  0  0  0  0  0  0  0
  -27.0636   -0.1189   28.6079 C   0  0  0  0  0  0  0  0  0  0  0  0
  -25.7923   -0.4302   29.0761 C   0  0  0  0  0  0  0  0  0  0  0  0
  -25.2700   -0.0487   30.0123 C   0  0  0  0  0  0  0  0  0  0  0  0
  -29.2965   -0.1838   28.9398 C   0  0  0  0  0  0  0  0  0  0  0  0
  -29.5648    0.8003   28.0352 C   0  0  0  0  0  0  0  0  0  0  0  0
  -28.4695    1.4413   27.4238 C   0  0  0  0  0  0  0  0  0  0  0  0
  -27.1368    1.0792   27.7975 C   0  0  0  0  0  0  0  0  0  0  0  0
  -23.8989   -0.3559   30.5250 C   0  0  0  0  0  0  0  0  0  0  0  0
  -23.1075   -1.1949   29.7370 C   0  0  0  0  0  0  0  0  0  0  0  0
  -23.6421   -1.6781   28.5918 C   0  0  0  0  0  0  0  0  0  0  0  0
  -24.9086   -1.3299   28.1894 C   0  0  0  0  0  0  0  0  0  0  0  0
  -30.7986    1.2580   27.8176 O   0  0  0  0  0  0  0  0  0  0  0  0
  -31.4914    0.9104   26.8973 C   0  0  0  0  0  0  0  0  0  0  0  0
  -31.1229    0.9159   25.6603 C   0  0  0  0  0  0  0  0  0  0  0  0
  -32.8181    0.3491   27.1431 C   0  0  0  0  0  0  0  0  0  0  0  0
  -29.8890    1.5294   25.2447 C   0  0  0  0  0  0  0  0  0  0  0  0
  -28.6167    1.9655   26.0171 C   0  0  0  0  0  0  0  0  0  0  0  0
  -33.4476    0.5419   28.1778 O   0  0  0  0  0  0  0  0  0  0  0  0
  2  3  1  0
  6 13  1  0
 13 14  1  0
 14 15  1  0
 14 16  1  0
 15 17  2  0
  7 18  1  0
 17 18  1  0
 16 19  1  0
  1  2  2  0
  2  8  1  0
  8  7  2  0
  7  6  1  0
  6  5  2  0
  5  1  1  0
  3  4  2  0
  4  9  1  0
  9 10  2  0
 10 11  1  0
 11 12  2  0
 12  3  1  0
M  END

$$$$
