No_4953-gen_results/8p0m/2024-11-26-14-13-15/
     RDKit          3D

 14 15  0  0  0  0  0  0  0  0999 V2000
  -28.0162   -0.8135   28.8779 C   0  0  0  0  0  0  0  0  0  0  0  0
  -27.0636   -0.1190   28.6079 C   0  0  0  0  0  0  0  0  0  0  0  0
  -26.9716    0.7139   27.5060 C   0  0  0  0  0  0  0  0  0  0  0  0
  -28.1053    0.7744   26.6421 C   0  0  0  0  0  0  0  0  0  0  0  0
  -28.0677    1.4872   25.5121 C   0  0  0  0  0  0  0  0  0  0  0  0
  -27.9701   -1.5888   30.1391 C   0  0  0  0  0  0  0  0  0  0  0  0
  -29.0579   -2.4478   30.5451 C   0  0  0  0  0  0  0  0  0  0  0  0
  -26.8947    2.1862   25.1295 C   0  0  0  0  0  0  0  0  0  0  0  0
  -25.7754    2.1845   25.9175 C   0  0  0  0  0  0  0  0  0  0  0  0
  -25.7791    1.4305   27.0777 C   0  0  0  0  0  0  0  0  0  0  0  0
  -26.6889   -1.6096   30.8082 C   0  0  0  0  0  0  0  0  0  0  0  0
  -25.5913   -1.0115   30.4217 C   0  0  0  0  0  0  0  0  0  0  0  0
  -25.6956   -0.2182   29.3350 C   0  0  0  0  0  0  0  0  0  0  0  0
  -29.7704   -2.7607   29.8908 O   0  0  0  0  0  0  0  0  0  0  0  0
  2  3  1  0
  7 14  2  0
  7  6  1  0
  1  2  2  0
  2 13  1  0
 13 12  2  0
 12 11  1  0
 11  6  2  0
  6  1  1  0
  3  4  2  0
  4  5  1  0
  5  8  2  0
  8  9  1  0
  9 10  2  0
 10  3  1  0
M  END

$$$$
