No_4111-gen_results/8p0m/2024-11-26-14-13-15/
     RDKit          3D

 13 13  0  0  0  0  0  0  0  0999 V2000
  -28.0162   -0.8135   28.8779 C   0  0  0  0  0  0  0  0  0  0  0  0
  -27.0636   -0.1190   28.6079 C   0  0  0  0  0  0  0  0  0  0  0  0
  -27.0010    0.6913   27.4910 C   0  0  0  0  0  0  0  0  0  0  0  0
  -25.8548    1.4825   27.0830 C   0  0  0  0  0  0  0  0  0  0  0  0
  -24.6901    1.4526   27.8807 C   0  0  0  0  0  0  0  0  0  0  0  0
  -24.7379    0.6010   29.0416 C   0  0  0  0  0  0  0  0  0  0  0  0
  -25.8234   -0.1688   29.3887 C   0  0  0  0  0  0  0  0  0  0  0  0
  -28.7350   -0.4637   30.1419 C   0  0  0  0  0  0  0  0  0  0  0  0
  -28.7831    0.6118   30.5175 C   0  0  0  0  0  0  0  0  0  0  0  0
  -29.0820    1.2849   31.2225 C   0  0  0  0  0  0  0  0  0  0  0  0
  -29.4921    2.7051   30.9457 C   0  0  0  0  0  0  0  0  0  0  0  0
  -29.0138    3.2940   29.8405 C   0  0  0  0  0  0  0  0  0  0  0  0
  -28.4467    2.4852   28.9100 C   0  0  0  0  0  0  0  0  0  0  0  0
  1  2  1  0
  1  8  1  0
  8  9  1  0
  9 10  3  0
 10 11  1  0
 11 12  2  3
 12 13  1  0
  2  3  2  0
  3  4  1  0
  4  5  2  0
  5  6  1  0
  6  7  2  0
  7  2  1  0
M  END

$$$$
