No_4093-gen_results/8p0m/2024-11-26-14-13-15/
     RDKit          3D

 34 39  0  0  0  0  0  0  0  0999 V2000
  -28.0162   -0.8135   28.8779 C   0  0  0  0  0  0  0  0  0  0  0  0
  -27.0636   -0.1190   28.6079 C   0  0  0  0  0  0  0  0  0  0  0  0
  -27.0010    0.6913   27.4910 C   0  0  0  0  0  0  0  0  0  0  0  0
  -25.8548    1.4825   27.0830 C   0  0  0  0  0  0  0  0  0  0  0  0
  -24.9008    1.3894   27.5922 C   0  0  0  0  0  0  0  0  0  0  0  0
  -24.6783    0.5764   28.8299 C   0  0  0  0  0  0  0  0  0  0  0  0
  -25.7704   -0.2051   29.2800 C   0  0  0  0  0  0  0  0  0  0  0  0
  -28.6429   -0.4461   30.2385 C   0  0  0  0  0  0  0  0  0  0  0  0
  -29.4235   -1.3145   30.8227 N   0  0  0  0  0  0  0  0  0  0  0  0
  -23.5739    2.1773   27.3065 C   0  0  0  0  0  0  0  0  0  0  0  0
  -22.5277    2.2192   28.2016 C   0  0  0  0  0  0  0  0  0  0  0  0
  -22.5119    1.1915   29.2034 C   0  0  0  0  0  0  0  0  0  0  0  0
  -23.5336    0.4907   29.6086 C   0  0  0  0  0  0  0  0  0  0  0  0
  -30.5299   -1.2514   30.9784 C   0  0  0  0  0  0  0  0  0  0  0  0
  -31.2352   -0.1515   30.6941 C   0  0  0  0  0  0  0  0  0  0  0  0
  -32.5122    0.0626   30.6438 C   0  0  0  0  0  0  0  0  0  0  0  0
  -33.1443    1.2690   30.2093 C   0  0  0  0  0  0  0  0  0  0  0  0
  -32.2778    2.3173   29.8418 C   0  0  0  0  0  0  0  0  0  0  0  0
  -30.9190    2.1689   29.8305 C   0  0  0  0  0  0  0  0  0  0  0  0
  -30.3889    1.0084   30.2264 C   0  0  0  0  0  0  0  0  0  0  0  0
  -28.8818    0.8197   30.4923 O   0  0  0  0  0  0  0  0  0  0  0  0
  -28.6689   -2.6744   31.1938 C   0  0  0  0  0  0  0  0  0  0  0  0
  -29.4059   -3.7895   31.3811 C   0  0  0  0  0  0  0  0  0  0  0  0
  -29.4691   -4.6481   30.2527 C   0  0  0  0  0  0  0  0  0  0  0  0
  -30.3176   -5.8318   30.2829 C   0  0  0  0  0  0  0  0  0  0  0  0
  -31.1214   -5.9615   31.4438 C   0  0  0  0  0  0  0  0  0  0  0  0
  -31.1147   -5.0989   32.4831 C   0  0  0  0  0  0  0  0  0  0  0  0
  -30.2615   -3.9667   32.4516 C   0  0  0  0  0  0  0  0  0  0  0  0
  -28.2788    0.8505   26.6619 C   0  0  0  0  0  0  0  0  0  0  0  0
  -28.9893    1.8837   26.9274 C   0  0  0  0  0  0  0  0  0  0  0  0
  -30.2387    2.0705   26.2215 C   0  0  0  0  0  0  0  0  0  0  0  0
  -30.7699    1.0379   25.5060 C   0  0  0  0  0  0  0  0  0  0  0  0
  -29.9483   -0.0957   25.2803 C   0  0  0  0  0  0  0  0  0  0  0  0
  -28.7059   -0.1674   25.8603 C   0  0  0  0  0  0  0  0  0  0  0  0
  1  2  1  0
  2  3  2  0
  3  4  1  0
  4  5  2  0
  5  6  1  0
  2  7  1  0
  6  7  1  0
  1  8  1  0
  8  9  1  0
  5 10  1  0
 10 11  2  0
 11 12  1  0
  6 13  1  0
 12 13  2  0
  9 14  1  0
 14 15  2  0
 15 16  1  0
 16 17  2  0
 17 18  1  0
 18 19  2  0
 15 20  1  0
 19 20  1  0
  8 21  1  0
 20 21  1  0
  9 22  1  0
 22 23  2  3
 23 24  1  0
 24 25  2  0
 25 26  1  0
 26 27  2  0
 23 28  1  0
 27 28  1  0
  3 29  1  0
 29 30  2  0
 30 31  1  0
 31 32  2  0
 32 33  1  0
 29 34  1  0
 33 34  1  0
M  END

$$$$
