No_4462-gen_results/8p0m/2024-11-26-14-13-15/
     RDKit          3D

 27 30  0  0  0  0  0  0  0  0999 V2000
  -28.1229   -1.3353   28.4874 O   0  0  0  0  0  0  0  0  0  0  0  0
  -27.0637   -0.8242   28.8687 C   0  0  0  0  0  0  0  0  0  0  0  0
  -25.9464   -1.0396   28.8492 C   0  0  0  0  0  0  0  0  0  0  0  0
  -24.7602   -0.1562   29.1644 C   0  0  0  0  0  0  0  0  0  0  0  0
  -25.0917    1.0791   29.6491 C   0  0  0  0  0  0  0  0  0  0  0  0
  -26.4090    1.4383   29.7067 C   0  0  0  0  0  0  0  0  0  0  0  0
  -27.3694    0.6586   29.4148 C   0  0  0  0  0  0  0  0  0  0  0  0
  -23.3561   -0.5638   29.1206 C   0  0  0  0  0  0  0  0  0  0  0  0
  -22.4322    0.2418   28.4552 C   0  0  0  0  0  0  0  0  0  0  0  0
  -21.0484    0.0853   28.5561 C   0  0  0  0  0  0  0  0  0  0  0  0
  -20.6724   -1.2295   28.9988 C   0  0  0  0  0  0  0  0  0  0  0  0
  -22.9077   -1.7287   29.7088 C   0  0  0  0  0  0  0  0  0  0  0  0
  -21.5142   -1.9686   29.6609 N   0  0  0  0  0  0  0  0  0  0  0  0
  -26.6981    2.8236   30.3289 C   0  0  0  0  0  0  0  0  0  0  0  0
  -27.2851    3.6488   29.6383 C   0  0  0  0  0  0  0  0  0  0  0  0
  -27.4114    4.8477   30.0498 C   0  0  0  0  0  0  0  0  0  0  0  0
  -26.1940    3.0683   31.6347 C   0  0  0  0  0  0  0  0  0  0  0  0
  -26.3527    4.3531   32.2169 C   0  0  0  0  0  0  0  0  0  0  0  0
  -27.0012    5.3241   31.3832 C   0  0  0  0  0  0  0  0  0  0  0  0
  -27.1881    6.6716   31.9076 C   0  0  0  0  0  0  0  0  0  0  0  0
  -27.2812    6.9678   32.9430 N   0  0  0  0  0  0  0  0  0  0  0  0
  -26.8605    7.6267   31.0580 O   0  0  0  0  0  0  0  0  0  0  0  0
  -27.5522    6.0760   34.0759 C   0  0  0  0  0  0  0  0  0  0  0  0
  -27.9401    8.3034   33.2848 C   0  0  0  0  0  0  0  0  0  0  0  0
  -28.3900    8.4450   34.3685 C   0  0  0  0  0  0  0  0  0  0  0  0
  -27.9944    6.5071   35.3585 C   0  0  0  0  0  0  0  0  0  0  0  0
  -28.4471    7.7384   35.4858 C   0  0  0  0  0  0  0  0  0  0  0  0
  1  2  2  0
  2  3  1  0
  3  4  1  0
  4  5  1  0
  5  6  1  0
  2  7  1  0
  6  7  1  0
  4  8  1  0
  6 14  1  0
 19 20  1  0
 20 21  1  0
 20 22  2  0
 21 23  1  0
 21 24  1  0
 25 27  1  0
 26 27  1  0
 23 26  1  0
 25 24  1  0
 14 15  2  0
 15 16  1  0
 16 19  2  0
 19 18  1  0
 18 17  2  0
 17 14  1  0
  8  9  2  0
  9 10  1  0
 10 11  2  0
 11 13  1  0
 13 12  2  0
 12  8  1  0
M  END

$$$$
