No_474-gen_results/8p0m/2024-11-26-14-13-15/
     RDKit          3D

 20 20  0  0  0  0  0  0  0  0999 V2000
  -28.1146   -0.6256   29.0813 Br  0  0  0  0  0  0  0  0  0  0  0  0
  -26.9268    0.4545   28.6846 C   0  0  0  0  0  0  0  0  0  0  0  0
  -26.3163    0.3925   27.4205 C   0  0  0  0  0  0  0  0  0  0  0  0
  -25.1017    0.9859   27.1099 C   0  0  0  0  0  0  0  0  0  0  0  0
  -24.4435    1.7837   28.0864 C   0  0  0  0  0  0  0  0  0  0  0  0
  -24.9888    1.8521   29.3324 C   0  0  0  0  0  0  0  0  0  0  0  0
  -26.0957    1.1814   29.6348 C   0  0  0  0  0  0  0  0  0  0  0  0
  -22.9658    2.6121   27.8091 Cl  0  0  0  0  0  0  0  0  0  0  0  0
  -26.6427    1.2903   31.0698 C   0  0  0  0  0  0  0  0  0  0  0  0
  -26.4800    0.2097   31.8523 C   0  0  0  0  0  0  0  0  0  0  0  0
  -25.6337   -0.5349   31.9338 C   0  0  0  0  0  0  0  0  0  0  0  0
  -24.4181   -0.4288   31.1078 C   0  0  0  0  0  0  0  0  0  0  0  0
  -23.2303    0.0843   31.8055 C   0  0  0  0  0  0  0  0  0  0  0  0
  -23.9668   -1.7331   30.5641 C   0  0  0  0  0  0  0  0  0  0  0  0
  -23.2047   -1.6440   29.3071 C   0  0  0  0  0  0  0  0  0  0  0  0
  -27.1676    2.6162   31.3561 C   0  0  0  0  0  0  0  0  0  0  0  0
  -28.2821    2.7259   31.8947 C   0  0  0  0  0  0  0  0  0  0  0  0
  -28.8447    4.0119   32.2156 C   0  0  0  0  0  0  0  0  0  0  0  0
  -28.1346    5.1662   31.8531 C   0  0  0  0  0  0  0  0  0  0  0  0
  -26.8836    5.0648   31.2259 C   0  0  0  0  0  0  0  0  0  0  0  0
  1  2  1  0
  5  8  1  0
  7  9  1  0
  9 10  1  0
 10 11  2  3
 11 12  1  0
 12 13  1  0
 12 14  1  0
 14 15  1  0
  9 16  1  0
 16 17  2  3
 17 18  1  0
 18 19  2  3
 19 20  1  0
  2  3  2  0
  3  4  1  0
  4  5  2  0
  5  6  1  0
  6  7  2  0
  7  2  1  0
M  END

$$$$
