No_489-gen_results/8p0m/2024-11-26-14-13-15/
     RDKit          3D

 16 17  0  0  0  0  0  0  0  0999 V2000
  -28.1229   -1.3353   28.4874 O   0  0  0  0  0  0  0  0  0  0  0  0
  -27.4806   -0.4044   28.7094 C   0  0  0  0  0  0  0  0  0  0  0  0
  -27.1904    0.2460   29.5268 C   0  0  0  0  0  0  0  0  0  0  0  0
  -26.6021   -0.1576   27.5515 N   0  0  0  0  0  0  0  0  0  0  0  0
  -25.6421    0.9031   27.5822 C   0  0  0  0  0  0  0  0  0  0  0  0
  -24.6412    1.0988   26.6164 C   0  0  0  0  0  0  0  0  0  0  0  0
  -25.4744    1.6186   28.8246 C   0  0  0  0  0  0  0  0  0  0  0  0
  -28.0399   -0.0540   30.8675 C   0  0  0  0  0  0  0  0  0  0  0  0
  -26.2540    1.3337   29.8539 C   0  0  0  0  0  0  0  0  0  0  0  0
  -23.5849    2.0069   26.7886 C   0  0  0  0  0  0  0  0  0  0  0  0
  -23.4680    2.6935   28.0198 C   0  0  0  0  0  0  0  0  0  0  0  0
  -24.3304    2.5058   28.9447 C   0  0  0  0  0  0  0  0  0  0  0  0
  -27.3251   -0.5865   31.7360 F   0  0  0  0  0  0  0  0  0  0  0  0
  -28.5332    1.1035   31.3102 F   0  0  0  0  0  0  0  0  0  0  0  0
  -29.0739   -0.8280   30.4895 F   0  0  0  0  0  0  0  0  0  0  0  0
  -28.0721    0.7231   29.6318 Cl  0  0  0  0  0  0  0  0  0  0  0  0
  1  2  2  0
  2  3  1  0
  2  4  1  0
  4  5  1  0
  3  8  1  0
  3  9  1  0
  7  9  1  0
  8 13  1  0
  8 14  1  0
  8 15  1  0
  3 16  1  0
  5  6  2  0
  6 10  1  0
 10 11  2  0
 11 12  1  0
 12  7  2  0
  7  5  1  0
M  END

$$$$
