No_4457-gen_results/8p0m/2024-11-26-14-13-15/
     RDKit          3D

 15 16  0  0  0  0  0  0  0  0999 V2000
  -28.0162   -0.8135   28.8779 C   0  0  0  0  0  0  0  0  0  0  0  0
  -28.4690   -0.7850   29.8287 C   0  0  0  0  0  0  0  0  0  0  0  0
  -28.1816    0.4277   28.1134 C   0  0  0  0  0  0  0  0  0  0  0  0
  -27.4498    0.6435   26.8500 C   0  0  0  0  0  0  0  0  0  0  0  0
  -27.8596    1.4573   25.9076 C   0  0  0  0  0  0  0  0  0  0  0  0
  -29.4263    0.1097   30.4178 C   0  0  0  0  0  0  0  0  0  0  0  0
  -29.6233    1.2198   29.7351 C   0  0  0  0  0  0  0  0  0  0  0  0
  -28.9609    1.4529   28.5513 C   0  0  0  0  0  0  0  0  0  0  0  0
  -27.1843    1.5820   24.6996 C   0  0  0  0  0  0  0  0  0  0  0  0
  -26.1000    0.7426   24.4149 C   0  0  0  0  0  0  0  0  0  0  0  0
  -25.6591   -0.1235   25.3867 C   0  0  0  0  0  0  0  0  0  0  0  0
  -26.2924   -0.2106   26.5790 C   0  0  0  0  0  0  0  0  0  0  0  0
  -30.6781    2.4680   30.3297 Cl  0  0  0  0  0  0  0  0  0  0  0  0
  -28.0486   -2.3998   30.8819 Br  0  0  0  0  0  0  0  0  0  0  0  0
  -25.6477   -1.0782   27.3290 O   0  0  0  0  0  0  0  0  0  0  0  0
  3  4  1  0
  5  9  1  0
 10 11  1  0
  4 12  1  0
 11 12  1  0
  7 13  1  0
  2 14  1  0
 12 15  2  0
  4  5  1  0
  9 10  1  0
  1  2  2  0
  2  6  1  0
  6  7  2  0
  7  8  1  0
  8  3  2  0
  3  1  1  0
M  END

$$$$
