No_4713-gen_results/8p0m/2024-11-26-14-13-15/
     RDKit          3D

 29 31  0  0  0  0  0  0  0  0999 V2000
  -28.0162   -0.8135   28.8779 C   0  0  0  0  0  0  0  0  0  0  0  0
  -28.4690   -0.7850   29.8287 C   0  0  0  0  0  0  0  0  0  0  0  0
  -26.5042   -0.7777   28.8766 C   0  0  0  0  0  0  0  0  0  0  0  0
  -25.6540   -0.6597   27.7191 C   0  0  0  0  0  0  0  0  0  0  0  0
  -27.9180   -0.9374   31.1824 C   0  0  0  0  0  0  0  0  0  0  0  0
  -26.5423   -0.9399   31.2606 C   0  0  0  0  0  0  0  0  0  0  0  0
  -25.7832   -0.8935   30.1201 C   0  0  0  0  0  0  0  0  0  0  0  0
  -25.2204    0.6866   27.3939 C   0  0  0  0  0  0  0  0  0  0  0  0
  -23.9014    0.8981   27.7598 C   0  0  0  0  0  0  0  0  0  0  0  0
  -23.3037    2.1844   27.3240 C   0  0  0  0  0  0  0  0  0  0  0  0
  -23.9961    3.0461   26.5443 C   0  0  0  0  0  0  0  0  0  0  0  0
  -25.8647    1.5294   26.5210 C   0  0  0  0  0  0  0  0  0  0  0  0
  -25.2723    2.6762   26.0966 C   0  0  0  0  0  0  0  0  0  0  0  0
  -30.0569   -0.7935   29.8592 C   0  0  0  0  0  0  0  0  0  0  0  0
  -30.5085   -0.2162   29.0221 O   0  0  0  0  0  0  0  0  0  0  0  0
  -30.7003   -1.0615   30.9553 O   0  0  0  0  0  0  0  0  0  0  0  0
  -23.1368    0.2028   28.5513 F   0  0  0  0  0  0  0  0  0  0  0  0
  -27.3510    1.1258   25.8497 Cl  0  0  0  0  0  0  0  0  0  0  0  0
  -31.9738   -1.5710   30.8753 C   0  0  0  0  0  0  0  0  0  0  0  0
  -32.9587   -0.9516   30.4217 C   0  0  0  0  0  0  0  0  0  0  0  0
  -33.0752    0.3093   30.7199 C   0  0  0  0  0  0  0  0  0  0  0  0
  -34.2105    1.1592   30.1702 C   0  0  0  0  0  0  0  0  0  0  0  0
  -34.3805    2.4867   30.6245 C   0  0  0  0  0  0  0  0  0  0  0  0
  -33.4217    3.0472   31.4986 C   0  0  0  0  0  0  0  0  0  0  0  0
  -32.3447    2.2936   31.9591 C   0  0  0  0  0  0  0  0  0  0  0  0
  -32.1968    0.9747   31.5750 C   0  0  0  0  0  0  0  0  0  0  0  0
  -31.9967   -2.9334   31.5022 C   0  0  0  0  0  0  0  0  0  0  0  0
  -31.5936   -3.0746   32.8119 C   0  0  0  0  0  0  0  0  0  0  0  0
  -31.4286   -4.3689   33.2887 C   0  0  0  0  0  0  0  0  0  0  0  0
  3  4  1  0
  4  8  1  0
  2 14  1  0
 14 15  2  0
 14 16  1  0
  9 17  1  0
 12 18  1  0
 16 19  1  0
 19 20  1  0
 19 27  1  0
 27 28  1  0
 28 29  2  0
 20 21  1  0
 21 22  2  0
 22 23  1  0
 23 24  2  0
 24 25  1  0
 25 26  2  0
 26 21  1  0
  1  2  2  0
  2  5  1  0
  5  6  2  0
  6  7  1  0
  7  3  2  0
  3  1  1  0
  8  9  2  0
  9 10  1  0
 10 11  2  0
 11 13  1  0
 13 12  2  0
 12  8  1  0
M  END

$$$$
