No_4709-gen_results/8p0m/2024-11-26-14-13-15/
     RDKit          3D

 19 20  0  0  0  0  0  0  0  0999 V2000
  -28.0162   -0.8135   28.8779 C   0  0  0  0  0  0  0  0  0  0  0  0
  -28.4690   -0.7850   29.8287 C   0  0  0  0  0  0  0  0  0  0  0  0
  -26.5455   -0.8762   28.8500 C   0  0  0  0  0  0  0  0  0  0  0  0
  -25.8041   -1.0324   30.0571 C   0  0  0  0  0  0  0  0  0  0  0  0
  -27.9437   -0.9869   31.2075 C   0  0  0  0  0  0  0  0  0  0  0  0
  -26.5825   -1.0386   31.2231 C   0  0  0  0  0  0  0  0  0  0  0  0
  -30.2809   -0.7232   29.8834 Cl  0  0  0  0  0  0  0  0  0  0  0  0
  -24.3837   -1.0013   29.8730 C   0  0  0  0  0  0  0  0  0  0  0  0
  -23.7252   -0.0531   29.1937 C   0  0  0  0  0  0  0  0  0  0  0  0
  -22.3307   -0.0814   29.0703 C   0  0  0  0  0  0  0  0  0  0  0  0
  -21.6669    0.9345   28.3142 C   0  0  0  0  0  0  0  0  0  0  0  0
  -22.3998    1.8720   27.5651 C   0  0  0  0  0  0  0  0  0  0  0  0
  -23.7748    1.9019   27.7238 C   0  0  0  0  0  0  0  0  0  0  0  0
  -24.4529    0.9547   28.4899 C   0  0  0  0  0  0  0  0  0  0  0  0
  -24.4648    2.9656   26.9885 C   0  0  0  0  0  0  0  0  0  0  0  0
  -24.9056    3.7363   27.5502 O   0  0  0  0  0  0  0  0  0  0  0  0
  -24.4174    2.8438   25.6906 O   0  0  0  0  0  0  0  0  0  0  0  0
  -23.9131   -2.4692   29.7062 C   0  0  0  0  0  0  0  0  0  0  0  0
  -23.8481   -0.6453   31.4485 C   0  0  0  0  0  0  0  0  0  0  0  0
  2  7  1  0
  4  8  1  0
  8  9  1  0
 13 15  1  0
 15 16  2  0
 15 17  1  0
  8 18  1  0
  8 19  1  0
  9 10  2  0
 10 11  1  0
 11 12  2  0
 12 13  1  0
 13 14  2  0
 14  9  1  0
  1  2  2  0
  2  5  1  0
  5  6  2  0
  6  4  1  0
  4  3  2  0
  3  1  1  0
M  END

$$$$
