No_4931-gen_results/8p0m/2024-11-26-14-13-15/
     RDKit          3D

 18 19  0  0  0  0  0  0  0  0999 V2000
  -28.0162   -0.8135   28.8779 C   0  0  0  0  0  0  0  0  0  0  0  0
  -27.0636   -0.1189   28.6079 C   0  0  0  0  0  0  0  0  0  0  0  0
  -26.9716    0.7139   27.5060 C   0  0  0  0  0  0  0  0  0  0  0  0
  -28.1053    0.7744   26.6421 C   0  0  0  0  0  0  0  0  0  0  0  0
  -29.2008    0.1044   27.0527 C   0  0  0  0  0  0  0  0  0  0  0  0
  -28.0219   -1.5899   30.0879 C   0  0  0  0  0  0  0  0  0  0  0  0
  -29.1640   -0.6394   28.1484 C   0  0  0  0  0  0  0  0  0  0  0  0
  -27.1526   -2.4621   30.2725 O   0  0  0  0  0  0  0  0  0  0  0  0
  -28.7522   -1.2945   31.1182 O   0  0  0  0  0  0  0  0  0  0  0  0
  -30.3780    0.1969   26.1611 C   0  0  0  0  0  0  0  0  0  0  0  0
  -30.5568    0.4460   24.5793 Cl  0  0  0  0  0  0  0  0  0  0  0  0
  -31.5526   -0.1362   26.7919 O   0  0  0  0  0  0  0  0  0  0  0  0
  -25.6967    1.4294   27.1229 C   0  0  0  0  0  0  0  0  0  0  0  0
  -24.5350    0.8792   27.5051 C   0  0  0  0  0  0  0  0  0  0  0  0
  -23.2851    1.5932   27.3604 C   0  0  0  0  0  0  0  0  0  0  0  0
  -23.3530    2.6133   26.3981 C   0  0  0  0  0  0  0  0  0  0  0  0
  -25.5216    2.5630   26.3499 C   0  0  0  0  0  0  0  0  0  0  0  0
  -24.4469    3.1899   26.0040 C   0  0  0  0  0  0  0  0  0  0  0  0
  1  6  1  0
  6  8  2  0
  6  9  1  0
  5 10  1  0
 10 11  1  0
 10 12  2  0
  3 13  1  0
  1  2  2  0
  2  3  1  0
  3  4  2  0
  4  5  1  0
  5  7  2  0
  7  1  1  0
 13 14  2  0
 14 15  1  0
 15 16  2  0
 16 18  1  0
 18 17  2  0
 17 13  1  0
M  END

$$$$
