No_437-gen_results/8p0m/2024-11-26-14-13-15/
     RDKit          3D

 14 16  0  0  0  0  0  0  0  0999 V2000
  -28.0162   -0.8135   28.8779 C   0  0  0  0  0  0  0  0  0  0  0  0
  -27.0636   -0.1189   28.6079 C   0  0  0  0  0  0  0  0  0  0  0  0
  -26.8756    1.1325   28.9134 C   0  0  0  0  0  0  0  0  0  0  0  0
  -27.9014    1.8066   29.6436 C   0  0  0  0  0  0  0  0  0  0  0  0
  -29.0458   -0.2316   29.7181 C   0  0  0  0  0  0  0  0  0  0  0  0
  -28.9402    1.0517   30.0597 C   0  0  0  0  0  0  0  0  0  0  0  0
  -30.1632   -1.1170   30.1252 C   0  0  0  0  0  0  0  0  0  0  0  0
  -30.6370   -0.9936   31.3591 C   0  0  0  0  0  0  0  0  0  0  0  0
  -30.5023    0.3702   31.9290 C   0  0  0  0  0  0  0  0  0  0  0  0
  -29.5689    1.2764   31.4508 C   0  0  0  0  0  0  0  0  0  0  0  0
  -25.9407   -0.6887   27.6009 C   0  0  0  0  0  0  0  0  0  0  0  0
  -25.0015    0.1985   27.0272 C   0  0  0  0  0  0  0  0  0  0  0  0
  -24.9029    1.5041   27.4146 C   0  0  0  0  0  0  0  0  0  0  0  0
  -25.7853    1.9941   28.2885 C   0  0  0  0  0  0  0  0  0  0  0  0
  3 14  1  0
 14 13  2  0
 13 12  1  0
 12 11  2  0
 11  2  1  0
  1  2  2  0
  2  3  1  0
  3  4  2  0
  4  6  1  0
  5  1  1  0
  5  6  2  0
  6 10  1  0
 10  9  2  0
  9  8  1  0
  8  7  2  0
  7  5  1  0
M  END

$$$$
