No_4228-gen_results/8p0m/2024-11-26-14-13-15/
     RDKit          3D

 24 27  0  0  0  0  0  0  0  0999 V2000
  -28.0162   -0.8135   28.8779 C   0  0  0  0  0  0  0  0  0  0  0  0
  -28.4690   -0.7850   29.8287 C   0  0  0  0  0  0  0  0  0  0  0  0
  -27.1356    0.2359   28.5352 C   0  0  0  0  0  0  0  0  0  0  0  0
  -26.8745    1.2825   29.3982 C   0  0  0  0  0  0  0  0  0  0  0  0
  -28.3613    0.1987   30.9244 C   0  0  0  0  0  0  0  0  0  0  0  0
  -27.5277    1.2234   30.6356 C   0  0  0  0  0  0  0  0  0  0  0  0
  -26.3879    0.2914   27.2334 C   0  0  0  0  0  0  0  0  0  0  0  0
  -26.4937    0.9729   26.2859 C   0  0  0  0  0  0  0  0  0  0  0  0
  -27.4763    2.0646   26.3647 C   0  0  0  0  0  0  0  0  0  0  0  0
  -28.1249    2.4658   25.1478 C   0  0  0  0  0  0  0  0  0  0  0  0
  -29.0611    3.5279   25.1991 C   0  0  0  0  0  0  0  0  0  0  0  0
  -29.3354    4.1583   26.4550 C   0  0  0  0  0  0  0  0  0  0  0  0
  -28.6814    3.7126   27.5661 C   0  0  0  0  0  0  0  0  0  0  0  0
  -27.8119    2.7610   27.5493 C   0  0  0  0  0  0  0  0  0  0  0  0
  -25.9814    2.2682   29.0778 N   0  0  0  0  0  0  0  0  0  0  0  0
  -26.9157    2.8241   28.6864 C   0  0  0  0  0  0  0  0  0  0  0  0
  -27.0849    4.0039   29.5323 N   0  0  0  0  0  0  0  0  0  0  0  0
  -26.0604    4.6717   29.9329 C   0  0  0  0  0  0  0  0  0  0  0  0
  -26.4075    5.9916   30.5716 C   0  0  0  0  0  0  0  0  0  0  0  0
  -26.5811    6.0199   31.8961 C   0  0  0  0  0  0  0  0  0  0  0  0
  -26.9188    7.2511   32.5678 C   0  0  0  0  0  0  0  0  0  0  0  0
  -26.5554    7.1319   29.7804 C   0  0  0  0  0  0  0  0  0  0  0  0
  -26.9181    8.3557   30.4529 C   0  0  0  0  0  0  0  0  0  0  0  0
  -27.0633    8.4017   31.8113 C   0  0  0  0  0  0  0  0  0  0  0  0
  3  7  1  0
  7  8  2  3
  8  9  1  0
  4 15  1  0
 14 16  1  0
 15 16  2  3
 16 17  1  0
 17 18  1  0
 18 19  1  0
  9 10  2  0
 10 11  1  0
 11 12  2  0
 12 13  1  0
 13 14  2  0
 14  9  1  0
 19 20  2  0
 20 21  1  0
 21 24  2  0
 24 23  1  0
 23 22  2  0
 22 19  1  0
  1  2  2  0
  2  5  1  0
  5  6  2  0
  6  4  1  0
  4  3  2  0
  3  1  1  0
M  END

$$$$
