No_4353-gen_results/8p0m/2024-11-26-14-13-15/
     RDKit          3D

 14 14  0  0  0  0  0  0  0  0999 V2000
  -28.0162   -0.8135   28.8779 C   0  0  0  0  0  0  0  0  0  0  0  0
  -27.0636   -0.1190   28.6079 C   0  0  0  0  0  0  0  0  0  0  0  0
  -27.0010    0.6913   27.4910 C   0  0  0  0  0  0  0  0  0  0  0  0
  -25.8548    1.4825   27.0830 C   0  0  0  0  0  0  0  0  0  0  0  0
  -24.6901    1.4526   27.8807 C   0  0  0  0  0  0  0  0  0  0  0  0
  -24.7379    0.6010   29.0416 C   0  0  0  0  0  0  0  0  0  0  0  0
  -25.8234   -0.1688   29.3887 C   0  0  0  0  0  0  0  0  0  0  0  0
  -27.8182   -1.9960   29.2551 F   0  0  0  0  0  0  0  0  0  0  0  0
  -28.8970   -0.9172   27.8323 F   0  0  0  0  0  0  0  0  0  0  0  0
  -28.7359   -0.2103   29.9183 F   0  0  0  0  0  0  0  0  0  0  0  0
  -23.5298    2.2274   27.6082 C   0  0  0  0  0  0  0  0  0  0  0  0
  -23.5286    2.6929   26.6090 F   0  0  0  0  0  0  0  0  0  0  0  0
  -23.2256    3.0439   28.6199 F   0  0  0  0  0  0  0  0  0  0  0  0
  -22.3644    1.3752   27.6298 F   0  0  0  0  0  0  0  0  0  0  0  0
  1  2  1  0
  1  8  1  0
  1  9  1  0
  1 10  1  0
  5 11  1  0
 11 12  1  0
 11 13  1  0
 11 14  1  0
  2  3  2  0
  3  4  1  0
  4  5  2  0
  5  6  1  0
  6  7  2  0
  7  2  1  0
M  END

$$$$
