No_4070-gen_results/8p0m/2024-11-26-14-13-15/
     RDKit          3D

 19 19  0  0  0  0  0  0  0  0999 V2000
  -28.0162   -0.8135   28.8779 C   0  0  0  0  0  0  0  0  0  0  0  0
  -27.0636   -0.1189   28.6079 C   0  0  0  0  0  0  0  0  0  0  0  0
  -25.7647   -0.3897   29.0360 C   0  0  0  0  0  0  0  0  0  0  0  0
  -25.4887   -1.1536   29.7171 C   0  0  0  0  0  0  0  0  0  0  0  0
  -27.7606   -1.9034   29.8572 C   0  0  0  0  0  0  0  0  0  0  0  0
  -26.4781   -2.1057   30.2362 C   0  0  0  0  0  0  0  0  0  0  0  0
  -28.7192   -2.7359   30.2783 O   0  0  0  0  0  0  0  0  0  0  0  0
  -28.4632   -4.0221   30.5755 C   0  0  0  0  0  0  0  0  0  0  0  0
  -29.6336   -4.6869   31.1831 C   0  0  0  0  0  0  0  0  0  0  0  0
  -29.5505   -5.7669   31.4748 O   0  0  0  0  0  0  0  0  0  0  0  0
  -30.7085   -3.9658   31.4670 N   0  0  0  0  0  0  0  0  0  0  0  0
  -31.8800   -4.5814   32.0691 C   0  0  0  0  0  0  0  0  0  0  0  0
  -27.3164    1.0498   27.6197 C   0  0  0  0  0  0  0  0  0  0  0  0
  -26.6155    1.3590   26.7879 O   0  0  0  0  0  0  0  0  0  0  0  0
  -28.2652    1.8681   28.0239 O   0  0  0  0  0  0  0  0  0  0  0  0
  -31.8501   -4.9983   33.1719 C   0  0  0  0  0  0  0  0  0  0  0  0
  -32.9121   -5.7542   33.5604 F   0  0  0  0  0  0  0  0  0  0  0  0
  -31.8053   -3.9671   34.1262 F   0  0  0  0  0  0  0  0  0  0  0  0
  -30.8065   -5.7871   33.4635 F   0  0  0  0  0  0  0  0  0  0  0  0
  5  7  1  0
  7  8  1  0
  8  9  1  0
  9 10  2  0
  9 11  1  0
 11 12  1  0
  2 13  1  0
 13 14  2  0
 13 15  1  0
 12 16  1  0
 16 17  1  0
 16 18  1  0
 16 19  1  0
  1  2  2  0
  2  3  1  0
  3  4  2  0
  4  6  1  0
  6  5  2  0
  5  1  1  0
M  END

$$$$
