No_4087-gen_results/8p0m/2024-11-26-14-13-15/
     RDKit          3D

 35 38  0  0  0  0  0  0  0  0999 V2000
  -28.0162   -0.8135   28.8779 C   0  0  0  0  0  0  0  0  0  0  0  0
  -28.4690   -0.7850   29.8287 C   0  0  0  0  0  0  0  0  0  0  0  0
  -28.1816    0.4277   28.1134 C   0  0  0  0  0  0  0  0  0  0  0  0
  -28.9841    1.4155   28.5154 C   0  0  0  0  0  0  0  0  0  0  0  0
  -29.3802    0.1384   30.4612 C   0  0  0  0  0  0  0  0  0  0  0  0
  -29.5415    1.2736   29.7242 C   0  0  0  0  0  0  0  0  0  0  0  0
  -27.4586    0.4934   26.7701 C   0  0  0  0  0  0  0  0  0  0  0  0
  -26.0264    0.3840   26.7617 C   0  0  0  0  0  0  0  0  0  0  0  0
  -25.2257    1.3507   27.3721 C   0  0  0  0  0  0  0  0  0  0  0  0
  -23.8242    1.1314   27.4773 C   0  0  0  0  0  0  0  0  0  0  0  0
  -23.1494    1.3831   28.5698 C   0  0  0  0  0  0  0  0  0  0  0  0
  -23.7705    2.1284   29.5893 C   0  0  0  0  0  0  0  0  0  0  0  0
  -25.1430    2.3299   29.5959 C   0  0  0  0  0  0  0  0  0  0  0  0
  -25.8340    1.8422   28.5313 C   0  0  0  0  0  0  0  0  0  0  0  0
  -28.2274    0.6611   25.6487 C   0  0  0  0  0  0  0  0  0  0  0  0
  -25.7499    3.0033   30.7803 C   0  0  0  0  0  0  0  0  0  0  0  0
  -25.3757    4.1722   31.0816 N   0  0  0  0  0  0  0  0  0  0  0  0
  -26.8285    2.4900   31.2867 O   0  0  0  0  0  0  0  0  0  0  0  0
  -25.8763    4.9053   32.3029 C   0  0  0  0  0  0  0  0  0  0  0  0
  -28.2053   -0.1347   24.7776 O   0  0  0  0  0  0  0  0  0  0  0  0
  -28.6519    1.9362   25.3292 N   0  0  0  0  0  0  0  0  0  0  0  0
  -29.5757    2.2747   24.5544 C   0  0  0  0  0  0  0  0  0  0  0  0
  -26.3289    4.3205   33.1778 C   0  0  0  0  0  0  0  0  0  0  0  0
  -26.4224    6.1550   31.8408 C   0  0  0  0  0  0  0  0  0  0  0  0
  -30.4599    3.3192   24.9998 C   0  0  0  0  0  0  0  0  0  0  0  0
  -31.8072    3.4406   24.5046 C   0  0  0  0  0  0  0  0  0  0  0  0
  -32.0768    2.7185   23.3235 C   0  0  0  0  0  0  0  0  0  0  0  0
  -31.1627    1.7906   22.7813 C   0  0  0  0  0  0  0  0  0  0  0  0
  -30.0121    1.5798   23.4683 C   0  0  0  0  0  0  0  0  0  0  0  0
  -25.7771    7.0332   31.1793 C   0  0  0  0  0  0  0  0  0  0  0  0
  -26.3354    8.1664   30.5489 C   0  0  0  0  0  0  0  0  0  0  0  0
  -27.6776    8.4029   30.7221 C   0  0  0  0  0  0  0  0  0  0  0  0
  -28.3824    7.5047   31.4963 C   0  0  0  0  0  0  0  0  0  0  0  0
  -27.7995    6.3708   32.0781 C   0  0  0  0  0  0  0  0  0  0  0  0
  -24.3849    5.4409   32.8968 C   0  0  0  0  0  0  0  0  0  0  0  0
  3  7  1  0
  7  8  1  0
  7 15  1  0
 13 16  1  0
 16 17  1  0
 16 18  2  0
 17 19  1  0
 15 20  2  0
 15 21  1  0
 21 22  1  0
 19 23  1  0
 19 24  1  0
 19 35  1  0
  8  9  1  0
  9 10  2  0
 10 11  1  0
 11 12  2  0
 12 13  1  0
 13 14  2  0
 14  9  1  0
 22 25  2  0
 25 26  1  0
 26 27  2  0
 27 28  1  0
 28 29  2  0
 29 22  1  0
 24 30  2  0
 30 31  1  0
 31 32  2  0
 32 33  1  0
 33 34  2  0
 34 24  1  0
  1  2  2  0
  2  5  1  0
  5  6  2  0
  6  4  1  0
  4  3  2  0
  3  1  1  0
M  END

$$$$
