No_4324-gen_results/8p0m/2024-11-26-14-13-15/
     RDKit          3D

 35 38  0  0  0  0  0  0  0  0999 V2000
  -28.0162   -0.8135   28.8779 C   0  0  0  0  0  0  0  0  0  0  0  0
  -27.0636   -0.1189   28.6079 C   0  0  0  0  0  0  0  0  0  0  0  0
  -25.7647   -0.3897   29.0360 C   0  0  0  0  0  0  0  0  0  0  0  0
  -25.5296   -1.5302   29.9014 C   0  0  0  0  0  0  0  0  0  0  0  0
  -26.6888   -2.2893   30.1810 C   0  0  0  0  0  0  0  0  0  0  0  0
  -27.8727   -1.9508   29.7373 C   0  0  0  0  0  0  0  0  0  0  0  0
  -28.9304   -2.7298   30.1154 O   0  0  0  0  0  0  0  0  0  0  0  0
  -24.5394    0.4211   28.7421 C   0  0  0  0  0  0  0  0  0  0  0  0
  -24.5259    1.2743   27.7265 C   0  0  0  0  0  0  0  0  0  0  0  0
  -23.3174    1.9856   27.4033 C   0  0  0  0  0  0  0  0  0  0  0  0
  -22.1311    1.7374   28.0503 C   0  0  0  0  0  0  0  0  0  0  0  0
  -23.3831    0.3148   29.5939 C   0  0  0  0  0  0  0  0  0  0  0  0
  -22.1474    0.9218   29.1533 C   0  0  0  0  0  0  0  0  0  0  0  0
  -28.7820   -3.9943   30.6401 C   0  0  0  0  0  0  0  0  0  0  0  0
  -29.8382   -4.2789   31.6031 C   0  0  0  0  0  0  0  0  0  0  0  0
  -29.7646   -5.4163   32.0994 O   0  0  0  0  0  0  0  0  0  0  0  0
  -30.7137   -3.5090   31.8399 O   0  0  0  0  0  0  0  0  0  0  0  0
  -23.3684    3.0041   25.9893 Cl  0  0  0  0  0  0  0  0  0  0  0  0
  -28.0001   -4.7663   30.1619 O   0  0  0  0  0  0  0  0  0  0  0  0
  -30.9374   -2.5340   31.9156 C   0  0  0  0  0  0  0  0  0  0  0  0
  -31.9048   -1.9385   32.8725 C   0  0  0  0  0  0  0  0  0  0  0  0
  -32.0846   -0.5388   32.9210 C   0  0  0  0  0  0  0  0  0  0  0  0
  -31.3535    0.3108   32.0496 C   0  0  0  0  0  0  0  0  0  0  0  0
  -30.4472   -0.2255   31.1501 C   0  0  0  0  0  0  0  0  0  0  0  0
  -30.2601   -1.4740   31.1645 C   0  0  0  0  0  0  0  0  0  0  0  0
  -30.6897   -1.8536   29.8472 O   0  0  0  0  0  0  0  0  0  0  0  0
  -29.8204    0.7274   30.4490 O   0  0  0  0  0  0  0  0  0  0  0  0
  -29.1347    1.6767   31.1537 C   0  0  0  0  0  0  0  0  0  0  0  0
  -28.2469    1.3789   31.9831 C   0  0  0  0  0  0  0  0  0  0  0  0
  -27.3245    2.3303   32.4901 C   0  0  0  0  0  0  0  0  0  0  0  0
  -27.3319    3.6113   31.9860 C   0  0  0  0  0  0  0  0  0  0  0  0
  -28.2683    3.9608   31.0021 C   0  0  0  0  0  0  0  0  0  0  0  0
  -29.1742    3.0032   30.5146 C   0  0  0  0  0  0  0  0  0  0  0  0
  -30.0921    3.3787   29.5178 C   0  0  0  0  0  0  0  0  0  0  0  0
  -31.2317    3.8748   29.8523 C   0  0  0  0  0  0  0  0  0  0  0  0
  6  7  1  0
  3  8  1  0
  7 14  1  0
 14 15  1  0
 15 16  2  0
 15 17  1  0
 10 18  1  0
 14 19  2  0
 17 20  1  0
 25 26  1  0
 24 27  1  0
 27 28  1  0
 33 34  1  0
 34 35  2  0
 28 29  2  0
 29 30  1  0
 30 31  2  0
 31 32  1  0
 32 33  2  0
 33 28  1  0
  1  2  2  0
  2  3  1  0
  3  4  2  0
  4  5  1  0
  5  6  2  0
  6  1  1  0
 20 21  2  0
 21 22  1  0
 22 23  2  0
 23 24  1  0
 24 25  2  0
 25 20  1  0
  8  9  2  0
  9 10  1  0
 10 11  2  0
 11 13  1  0
 13 12  2  0
 12  8  1  0
M  END

$$$$
