No_466-gen_results/8p0m/2024-11-26-14-13-15/
     RDKit          3D

 19 19  0  0  0  0  0  0  0  0999 V2000
  -28.0162   -0.8135   28.8779 C   0  0  0  0  0  0  0  0  0  0  0  0
  -28.4690   -0.7850   29.8287 C   0  0  0  0  0  0  0  0  0  0  0  0
  -26.5042   -0.7777   28.8766 C   0  0  0  0  0  0  0  0  0  0  0  0
  -25.9150   -0.6580   29.9230 C   0  0  0  0  0  0  0  0  0  0  0  0
  -27.9691   -0.7243   31.2047 C   0  0  0  0  0  0  0  0  0  0  0  0
  -26.5847   -0.6393   31.2062 C   0  0  0  0  0  0  0  0  0  0  0  0
  -29.9234   -0.8692   29.8565 F   0  0  0  0  0  0  0  0  0  0  0  0
  -24.3899   -0.5855   30.0029 C   0  0  0  0  0  0  0  0  0  0  0  0
  -23.8328    0.8142   30.1811 C   0  0  0  0  0  0  0  0  0  0  0  0
  -24.4413    1.8410   30.4578 C   0  0  0  0  0  0  0  0  0  0  0  0
  -25.4625    2.0839   30.5054 N   0  0  0  0  0  0  0  0  0  0  0  0
  -26.0725    3.2256   30.5825 C   0  0  0  0  0  0  0  0  0  0  0  0
  -25.3850    4.1666   30.8464 O   0  0  0  0  0  0  0  0  0  0  0  0
  -27.4333    3.2814   30.6765 N   0  0  0  0  0  0  0  0  0  0  0  0
  -28.1094    4.5897   30.7803 C   0  0  0  0  0  0  0  0  0  0  0  0
  -25.6019   -0.7242   27.2885 P   0  0  0  0  0  0  0  0  0  0  0  0
  -26.2686   -0.0612   26.1934 O   0  0  0  0  0  0  0  0  0  0  0  0
  -24.3552    0.0494   27.6906 O   0  0  0  0  0  0  0  0  0  0  0  0
  -25.2200   -2.1616   27.1170 O   0  0  0  0  0  0  0  0  0  0  0  0
  2  7  1  0
  4  8  1  0
  8  9  1  0
  9 10  1  0
 10 11  1  0
 11 12  1  0
 12 13  2  0
 12 14  1  0
 14 15  1  0
  3 16  1  0
 16 17  2  0
 16 18  1  0
 16 19  2  0
  1  2  2  0
  2  5  1  0
  5  6  2  0
  6  4  1  0
  4  3  2  0
  3  1  1  0
M  END

$$$$
