No_4949-gen_results/8p0m/2024-11-26-14-13-15/
     RDKit          3D

 19 21  0  0  0  0  0  0  0  0999 V2000
  -28.0544   -1.0498   28.7246 N   0  0  0  0  0  0  0  0  0  0  0  0
  -28.6544   -0.5669   29.5076 C   0  0  0  0  0  0  0  0  0  0  0  0
  -26.6945   -1.3221   29.0236 C   0  0  0  0  0  0  0  0  0  0  0  0
  -26.2777   -1.0466   30.3588 C   0  0  0  0  0  0  0  0  0  0  0  0
  -28.4400   -0.2351   30.6472 N   0  0  0  0  0  0  0  0  0  0  0  0
  -27.2193   -0.4170   31.1652 C   0  0  0  0  0  0  0  0  0  0  0  0
  -30.0667   -0.2837   29.1716 N   0  0  0  0  0  0  0  0  0  0  0  0
  -31.0345   -0.7992   29.2347 C   0  0  0  0  0  0  0  0  0  0  0  0
  -31.2164   -1.7694   30.0564 C   0  0  0  0  0  0  0  0  0  0  0  0
  -32.1791   -0.5039   28.3497 C   0  0  0  0  0  0  0  0  0  0  0  0
  -32.4115   -2.6561   30.1083 C   0  0  0  0  0  0  0  0  0  0  0  0
  -33.3157   -1.2630   28.4021 N   0  0  0  0  0  0  0  0  0  0  0  0
  -33.4157   -2.2099   29.2893 C   0  0  0  0  0  0  0  0  0  0  0  0
  -30.1754    1.2168   29.0455 C   0  0  0  0  0  0  0  0  0  0  0  0
  -29.0824    1.9942   28.7791 C   0  0  0  0  0  0  0  0  0  0  0  0
  -29.3266    3.3343   28.4967 C   0  0  0  0  0  0  0  0  0  0  0  0
  -30.5930    3.8509   28.5644 C   0  0  0  0  0  0  0  0  0  0  0  0
  -31.4215    1.8360   29.0787 C   0  0  0  0  0  0  0  0  0  0  0  0
  -31.5752    3.1542   28.9354 C   0  0  0  0  0  0  0  0  0  0  0  0
  2  7  1  0
  7  8  1  0
  7 14  1  0
  8  9  2  0
  9 11  1  0
 11 13  2  0
 13 12  1  0
 12 10  2  0
 10  8  1  0
 14 15  2  0
 15 16  1  0
 16 17  2  0
 17 19  1  0
 19 18  2  0
 18 14  1  0
  1  2  2  0
  2  5  1  0
  5  6  2  0
  6  4  1  0
  4  3  2  0
  3  1  1  0
M  END

$$$$
