No_4043-gen_results/8p0m/2024-11-26-14-13-15/
     RDKit          3D

 29 31  0  0  0  0  0  0  0  0999 V2000
  -28.0162   -0.8135   28.8779 C   0  0  0  0  0  0  0  0  0  0  0  0
  -27.0636   -0.1189   28.6079 C   0  0  0  0  0  0  0  0  0  0  0  0
  -26.9287    1.1713   29.0083 C   0  0  0  0  0  0  0  0  0  0  0  0
  -25.7702    2.0341   28.6884 C   0  0  0  0  0  0  0  0  0  0  0  0
  -24.7141    1.4431   27.9188 C   0  0  0  0  0  0  0  0  0  0  0  0
  -24.8590    0.0783   27.5836 C   0  0  0  0  0  0  0  0  0  0  0  0
  -25.9647   -0.6606   27.9164 C   0  0  0  0  0  0  0  0  0  0  0  0
  -29.2406   -0.2045   29.0738 C   0  0  0  0  0  0  0  0  0  0  0  0
  -29.2782    1.1474   29.4856 C   0  0  0  0  0  0  0  0  0  0  0  0
  -28.1299    1.9048   29.3190 C   0  0  0  0  0  0  0  0  0  0  0  0
  -23.4452    2.0905   27.6766 C   0  0  0  0  0  0  0  0  0  0  0  0
  -22.5104    1.9017   27.3064 O   0  0  0  0  0  0  0  0  0  0  0  0
  -23.6587    3.5141   27.9268 O   0  0  0  0  0  0  0  0  0  0  0  0
  -30.5190    1.7624   30.0040 C   0  0  0  0  0  0  0  0  0  0  0  0
  -31.4657    1.8568   29.4759 O   0  0  0  0  0  0  0  0  0  0  0  0
  -30.2410    2.5677   31.0852 O   0  0  0  0  0  0  0  0  0  0  0  0
  -31.0469    2.8351   31.9645 C   0  0  0  0  0  0  0  0  0  0  0  0
  -30.6599    3.6780   32.7178 C   0  0  0  0  0  0  0  0  0  0  0  0
  -31.4624    1.5385   32.6409 C   0  0  0  0  0  0  0  0  0  0  0  0
  -32.2391    1.8078   34.1289 P   0  0  0  0  0  0  0  0  0  0  0  0
  -33.2660    2.1122   34.1261 O   0  0  0  0  0  0  0  0  0  0  0  0
  -31.5087    2.5648   34.9499 O   0  0  0  0  0  0  0  0  0  0  0  0
  -32.0357    0.2647   34.7494 O   0  0  0  0  0  0  0  0  0  0  0  0
  -30.3138    4.9984   32.0458 C   0  0  0  0  0  0  0  0  0  0  0  0
  -30.8623    5.6383   31.2800 C   0  0  0  0  0  0  0  0  0  0  0  0
  -30.4408    6.8480   30.6419 C   0  0  0  0  0  0  0  0  0  0  0  0
  -29.2313    7.3658   31.0611 C   0  0  0  0  0  0  0  0  0  0  0  0
  -28.4888    6.7255   32.0400 C   0  0  0  0  0  0  0  0  0  0  0  0
  -28.9840    5.5924   32.6143 C   0  0  0  0  0  0  0  0  0  0  0  0
  5 11  1  0
 11 12  2  0
 11 13  1  0
  9 14  1  0
 14 15  2  0
 14 16  1  0
 16 17  1  0
 17 18  2  3
 17 19  1  0
 19 20  1  0
 20 21  2  0
 20 22  1  0
 20 23  1  0
 18 24  1  0
  3  4  1  0
  4  5  2  0
  5  6  1  0
  6  7  2  0
  7  2  1  0
 24 25  2  0
 25 26  1  0
 26 27  2  0
 27 28  1  0
 28 29  2  0
 29 24  1  0
  1  2  2  0
  2  3  1  0
  3 10  2  0
 10  9  1  0
  9  8  2  0
  8  1  1  0
M  END

$$$$
