No_4260-gen_results/8p0m/2024-11-26-14-13-15/
     RDKit          3D

 26 27  0  0  0  0  0  0  0  0999 V2000
  -28.0162   -0.8135   28.8779 C   0  0  0  0  0  0  0  0  0  0  0  0
  -27.0636   -0.1189   28.6079 C   0  0  0  0  0  0  0  0  0  0  0  0
  -25.7647   -0.3897   29.0360 C   0  0  0  0  0  0  0  0  0  0  0  0
  -25.5296   -1.5302   29.9014 C   0  0  0  0  0  0  0  0  0  0  0  0
  -26.6577   -2.2915   30.2035 C   0  0  0  0  0  0  0  0  0  0  0  0
  -27.8548   -1.9555   29.7630 C   0  0  0  0  0  0  0  0  0  0  0  0
  -24.4087    0.8072   28.6592 Br  0  0  0  0  0  0  0  0  0  0  0  0
  -28.9107   -2.7891   30.1095 O   0  0  0  0  0  0  0  0  0  0  0  0
  -28.7387   -4.0255   30.6525 C   0  0  0  0  0  0  0  0  0  0  0  0
  -30.0030   -4.5608   31.2190 C   0  0  0  0  0  0  0  0  0  0  0  0
  -31.2099   -4.3884   30.5506 Cl  0  0  0  0  0  0  0  0  0  0  0  0
  -29.9946   -4.0674   32.5287 F   0  0  0  0  0  0  0  0  0  0  0  0
  -29.6702   -5.9041   31.3006 F   0  0  0  0  0  0  0  0  0  0  0  0
  -24.1299   -1.8049   30.2962 C   0  0  0  0  0  0  0  0  0  0  0  0
  -23.5415   -0.9719   31.3871 C   0  0  0  0  0  0  0  0  0  0  0  0
  -27.2672    1.0539   27.6521 C   0  0  0  0  0  0  0  0  0  0  0  0
  -27.4320    0.8122   26.4387 O   0  0  0  0  0  0  0  0  0  0  0  0
  -27.2988    2.2115   28.0764 O   0  0  0  0  0  0  0  0  0  0  0  0
  -27.6874   -4.0066   31.4759 F   0  0  0  0  0  0  0  0  0  0  0  0
  -28.2953   -4.7532   29.5472 F   0  0  0  0  0  0  0  0  0  0  0  0
  -24.4716   -0.2184   32.0238 C   0  0  0  0  0  0  0  0  0  0  0  0
  -24.9565   -0.6879   33.2729 C   0  0  0  0  0  0  0  0  0  0  0  0
  -25.9472    0.0457   34.0079 C   0  0  0  0  0  0  0  0  0  0  0  0
  -26.4306    1.2378   33.5056 C   0  0  0  0  0  0  0  0  0  0  0  0
  -25.8368    1.7348   32.2922 C   0  0  0  0  0  0  0  0  0  0  0  0
  -24.8924    1.0663   31.6420 C   0  0  0  0  0  0  0  0  0  0  0  0
  3  7  1  0
  6  8  1  0
  8  9  1  0
  9 10  1  0
 10 11  1  0
 10 12  1  0
 10 13  1  0
  4 14  1  0
 14 15  1  0
  2 16  1  0
 16 17  2  0
 16 18  1  0
  9 19  1  0
  9 20  1  0
 15 21  1  0
  1  2  2  0
  2  3  1  0
  3  4  2  0
  4  5  1  0
  5  6  2  0
  6  1  1  0
 21 22  2  0
 22 23  1  0
 23 24  2  0
 24 25  1  0
 25 26  2  0
 26 21  1  0
M  END

$$$$
