No_4407-gen_results/8p0m/2024-11-26-14-13-15/
     RDKit          3D

 17 18  0  0  0  0  0  0  0  0999 V2000
  -28.0162   -0.8135   28.8779 C   0  0  0  0  0  0  0  0  0  0  0  0
  -28.4690   -0.7850   29.8287 C   0  0  0  0  0  0  0  0  0  0  0  0
  -27.1356    0.2359   28.5352 C   0  0  0  0  0  0  0  0  0  0  0  0
  -26.8745    1.2825   29.3982 C   0  0  0  0  0  0  0  0  0  0  0  0
  -28.3613    0.1987   30.9244 C   0  0  0  0  0  0  0  0  0  0  0  0
  -27.5277    1.2234   30.6356 C   0  0  0  0  0  0  0  0  0  0  0  0
  -26.3987    0.2949   27.2279 C   0  0  0  0  0  0  0  0  0  0  0  0
  -25.8882    1.5487   26.8334 C   0  0  0  0  0  0  0  0  0  0  0  0
  -24.9236    1.6099   26.0119 C   0  0  0  0  0  0  0  0  0  0  0  0
  -23.8385    0.8413   26.1742 C   0  0  0  0  0  0  0  0  0  0  0  0
  -23.9786   -0.2407   26.9874 C   0  0  0  0  0  0  0  0  0  0  0  0
  -25.0075   -0.5144   27.7012 C   0  0  0  0  0  0  0  0  0  0  0  0
  -27.0596   -0.2696   26.0780 C   0  0  0  0  0  0  0  0  0  0  0  0
  -26.7269    0.1225   24.8558 C   0  0  0  0  0  0  0  0  0  0  0  0
  -27.8411   -0.0452   23.9054 C   0  0  0  0  0  0  0  0  0  0  0  0
  -29.0850    0.2122   24.5086 C   0  0  0  0  0  0  0  0  0  0  0  0
  -28.2396   -0.7182   26.2645 O   0  0  0  0  0  0  0  0  0  0  0  0
  3  7  1  0
  7  8  1  0
  9 10  1  0
  7 12  1  0
 11 12  1  0
  7 13  1  0
 13 14  1  0
 14 15  1  0
 15 16  1  0
 13 17  2  0
  8  9  1  0
 10 11  1  0
  1  2  2  0
  2  5  1  0
  5  6  2  0
  6  4  1  0
  4  3  2  0
  3  1  1  0
M  END

$$$$
