No_4401-gen_results/8p0m/2024-11-26-14-13-15/
     RDKit          3D

 14 15  0  0  0  0  0  0  0  0999 V2000
  -28.0162   -0.8135   28.8779 C   0  0  0  0  0  0  0  0  0  0  0  0
  -28.4690   -0.7850   29.8287 C   0  0  0  0  0  0  0  0  0  0  0  0
  -26.5455   -0.8762   28.8500 C   0  0  0  0  0  0  0  0  0  0  0  0
  -25.8974   -0.8267   29.8894 C   0  0  0  0  0  0  0  0  0  0  0  0
  -26.4945   -0.7976   31.1740 C   0  0  0  0  0  0  0  0  0  0  0  0
  -27.8589   -0.7585   31.1651 C   0  0  0  0  0  0  0  0  0  0  0  0
  -24.3633   -0.8582   29.9307 C   0  0  0  0  0  0  0  0  0  0  0  0
  -23.7364   -1.5283   30.4583 C   0  0  0  0  0  0  0  0  0  0  0  0
  -23.7323    0.1937   29.0491 C   0  0  0  0  0  0  0  0  0  0  0  0
  -22.3284    0.2399   29.0010 C   0  0  0  0  0  0  0  0  0  0  0  0
  -22.2561   -1.5634   30.5656 C   0  0  0  0  0  0  0  0  0  0  0  0
  -21.6122   -0.6443   29.7215 C   0  0  0  0  0  0  0  0  0  0  0  0
  -21.7022    1.2606   28.1195 C   0  0  0  0  0  0  0  0  0  0  0  0
  -22.5092    2.1197   26.9047 Cl  0  0  0  0  0  0  0  0  0  0  0  0
  4  7  1  0
 10 13  1  0
 13 14  1  0
  1  2  2  0
  2  6  1  0
  6  5  2  0
  5  4  1  0
  4  3  2  0
  3  1  1  0
  7  8  2  0
  8 11  1  0
 11 12  2  0
 12 10  1  0
 10  9  2  0
  9  7  1  0
M  END

$$$$
