No_417-gen_results/8p0m/2024-11-26-14-13-15/
     RDKit          3D

 26 27  0  0  0  0  0  0  0  0999 V2000
  -28.0162   -0.8135   28.8779 C   0  0  0  0  0  0  0  0  0  0  0  0
  -27.0636   -0.1189   28.6079 C   0  0  0  0  0  0  0  0  0  0  0  0
  -27.0010    0.6913   27.4910 C   0  0  0  0  0  0  0  0  0  0  0  0
  -25.8548    1.4825   27.0830 C   0  0  0  0  0  0  0  0  0  0  0  0
  -24.6901    1.4526   27.8807 C   0  0  0  0  0  0  0  0  0  0  0  0
  -24.7379    0.6010   29.0416 C   0  0  0  0  0  0  0  0  0  0  0  0
  -25.8234   -0.1688   29.3887 C   0  0  0  0  0  0  0  0  0  0  0  0
  -28.7350   -0.4637   30.1419 C   0  0  0  0  0  0  0  0  0  0  0  0
  -29.5813   -1.4273   30.4801 F   0  0  0  0  0  0  0  0  0  0  0  0
  -27.8948   -0.3662   31.1872 F   0  0  0  0  0  0  0  0  0  0  0  0
  -29.4066    0.6470   29.9697 F   0  0  0  0  0  0  0  0  0  0  0  0
  -23.5325    2.2436   27.6130 C   0  0  0  0  0  0  0  0  0  0  0  0
  -22.8640    2.6374   28.6406 N   0  0  0  0  0  0  0  0  0  0  0  0
  -23.1389    2.5175   26.4494 O   0  0  0  0  0  0  0  0  0  0  0  0
  -28.1297    0.7663   26.5799 C   0  0  0  0  0  0  0  0  0  0  0  0
  -28.1333    0.5602   25.4326 O   0  0  0  0  0  0  0  0  0  0  0  0
  -29.3581    1.2010   27.1425 N   0  0  0  0  0  0  0  0  0  0  0  0
  -30.5579    1.3071   26.3938 C   0  0  0  0  0  0  0  0  0  0  0  0
  -31.6289    1.3492   27.1441 C   0  0  0  0  0  0  0  0  0  0  0  0
  -31.7420    2.2417   27.9191 C   0  0  0  0  0  0  0  0  0  0  0  0
  -32.8175    2.2856   28.9380 C   0  0  0  0  0  0  0  0  0  0  0  0
  -33.8016    1.3024   28.8155 C   0  0  0  0  0  0  0  0  0  0  0  0
  -33.6920    0.3138   27.8770 C   0  0  0  0  0  0  0  0  0  0  0  0
  -32.5695    0.2946   27.0633 C   0  0  0  0  0  0  0  0  0  0  0  0
  -34.6920   -0.7537   27.8161 C   0  0  0  0  0  0  0  0  0  0  0  0
  -35.5065   -1.0331   28.5245 C   0  0  0  0  0  0  0  0  0  0  0  0
  1  2  1  0
  1  8  1  0
  8  9  1  0
  8 10  1  0
  8 11  1  0
  5 12  1  0
 12 13  1  0
 12 14  2  0
  3 15  1  0
 15 16  2  0
 15 17  1  0
 17 18  1  0
 18 19  1  0
 23 25  1  0
 25 26  2  0
  2  3  2  0
  3  4  1  0
  4  5  2  0
  5  6  1  0
  6  7  2  0
  7  2  1  0
 19 20  2  0
 20 21  1  0
 21 22  2  0
 22 23  1  0
 23 24  2  0
 24 19  1  0
M  END

$$$$
