No_4857-gen_results/8p0m/2024-11-26-14-13-15/
     RDKit          3D

 18 19  0  0  0  0  0  0  0  0999 V2000
  -28.0162   -0.8135   28.8779 C   0  0  0  0  0  0  0  0  0  0  0  0
  -27.0636   -0.1189   28.6079 C   0  0  0  0  0  0  0  0  0  0  0  0
  -26.8756    1.1325   28.9134 C   0  0  0  0  0  0  0  0  0  0  0  0
  -27.9014    1.8066   29.6436 C   0  0  0  0  0  0  0  0  0  0  0  0
  -29.0458   -0.2316   29.7181 C   0  0  0  0  0  0  0  0  0  0  0  0
  -28.9402    1.0517   30.0597 C   0  0  0  0  0  0  0  0  0  0  0  0
  -30.1632   -1.1170   30.1252 C   0  0  0  0  0  0  0  0  0  0  0  0
  -31.2136   -1.0695   29.5726 N   0  0  0  0  0  0  0  0  0  0  0  0
  -31.5027   -0.2503   28.6746 C   0  0  0  0  0  0  0  0  0  0  0  0
  -31.9882   -0.3369   27.5427 C   0  0  0  0  0  0  0  0  0  0  0  0
  -32.1989    0.6216   26.5236 C   0  0  0  0  0  0  0  0  0  0  0  0
  -31.8136    1.9184   26.8642 C   0  0  0  0  0  0  0  0  0  0  0  0
  -31.2848    2.1939   28.0695 C   0  0  0  0  0  0  0  0  0  0  0  0
  -31.0778    1.1844   28.9383 C   0  0  0  0  0  0  0  0  0  0  0  0
  -30.1113    1.6990   29.3824 F   0  0  0  0  0  0  0  0  0  0  0  0
  -31.9842    1.4159   30.3597 C   0  0  0  0  0  0  0  0  0  0  0  0
  -30.1892    1.2844   28.4659 Cl  0  0  0  0  0  0  0  0  0  0  0  0
  -31.5066    3.6080   28.4696 C   0  0  0  0  0  0  0  0  0  0  0  0
  5  7  1  0
  7  8  1  0
  8  9  1  0
  9 10  2  0
 10 11  1  0
 11 12  2  0
 12 13  1  0
  9 14  1  0
 13 14  1  0
  6 15  1  0
 14 16  1  0
 14 17  1  0
 13 18  1  0
  1  2  2  0
  2  3  1  0
  3  4  2  0
  4  6  1  0
  6  5  2  0
  5  1  1  0
M  END

$$$$
