No_4472-gen_results/8p0m/2024-11-26-14-13-15/
     RDKit          3D

 17 17  0  0  0  0  0  0  0  0999 V2000
  -28.0162   -0.8135   28.8779 C   0  0  0  0  0  0  0  0  0  0  0  0
  -28.4690   -0.7850   29.8287 C   0  0  0  0  0  0  0  0  0  0  0  0
  -27.0871    0.2903   28.6377 C   0  0  0  0  0  0  0  0  0  0  0  0
  -26.8317    1.2487   29.5869 C   0  0  0  0  0  0  0  0  0  0  0  0
  -28.3914    0.0801   31.0065 C   0  0  0  0  0  0  0  0  0  0  0  0
  -27.4940    1.1521   30.7841 C   0  0  0  0  0  0  0  0  0  0  0  0
  -26.2087    0.3944   27.1645 Cl  0  0  0  0  0  0  0  0  0  0  0  0
  -29.4742   -1.9977   30.2381 C   0  0  0  0  0  0  0  0  0  0  0  0
  -30.5230   -1.8118   29.9909 N   0  0  0  0  0  0  0  0  0  0  0  0
  -28.9442   -3.0974   30.6713 O   0  0  0  0  0  0  0  0  0  0  0  0
  -31.5758   -2.7093   30.1400 C   0  0  0  0  0  0  0  0  0  0  0  0
  -32.7249   -2.3061   30.2496 C   0  0  0  0  0  0  0  0  0  0  0  0
  -31.4610   -3.8508   29.1336 C   0  0  0  0  0  0  0  0  0  0  0  0
  -30.8629   -4.8507   29.4428 N   0  0  0  0  0  0  0  0  0  0  0  0
  -32.1077   -3.7672   27.8959 C   0  0  0  0  0  0  0  0  0  0  0  0
  -32.0047   -4.8406   27.2557 F   0  0  0  0  0  0  0  0  0  0  0  0
  -33.3290   -3.4229   27.9163 F   0  0  0  0  0  0  0  0  0  0  0  0
  3  7  1  0
  2  8  1  0
  8  9  1  0
  8 10  2  0
  9 11  1  0
 11 12  2  0
 11 13  1  0
 13 14  1  0
 13 15  1  0
 15 16  1  0
 15 17  1  0
  1  2  2  0
  2  5  1  0
  5  6  2  0
  6  4  1  0
  4  3  2  0
  3  1  1  0
M  END

$$$$
