No_4810-gen_results/8p0m/2024-11-26-14-13-15/
     RDKit          3D

 28 29  0  0  0  0  0  0  0  0999 V2000
  -28.0162   -0.8135   28.8779 C   0  0  0  0  0  0  0  0  0  0  0  0
  -27.0636   -0.1189   28.6079 C   0  0  0  0  0  0  0  0  0  0  0  0
  -26.8756    1.1325   28.9134 C   0  0  0  0  0  0  0  0  0  0  0  0
  -25.6883    1.9515   28.5672 C   0  0  0  0  0  0  0  0  0  0  0  0
  -24.6394    1.2834   27.8753 C   0  0  0  0  0  0  0  0  0  0  0  0
  -24.8068   -0.0513   27.6040 C   0  0  0  0  0  0  0  0  0  0  0  0
  -25.9020   -0.7670   27.9511 C   0  0  0  0  0  0  0  0  0  0  0  0
  -27.9893   -1.5850   30.1056 N   0  0  0  0  0  0  0  0  0  0  0  0
  -23.4455    1.9845   27.4704 C   0  0  0  0  0  0  0  0  0  0  0  0
  -22.2764    1.5556   27.5019 N   0  0  0  0  0  0  0  0  0  0  0  0
  -23.6426    3.1587   26.9326 O   0  0  0  0  0  0  0  0  0  0  0  0
  -26.9063   -2.0085   30.5196 C   0  0  0  0  0  0  0  0  0  0  0  0
  -29.1800   -1.9873   30.8044 C   0  0  0  0  0  0  0  0  0  0  0  0
  -30.0942   -2.7241   30.4141 C   0  0  0  0  0  0  0  0  0  0  0  0
  -30.1056   -3.1942   29.4252 O   0  0  0  0  0  0  0  0  0  0  0  0
  -31.1481   -3.0712   31.3211 N   0  0  0  0  0  0  0  0  0  0  0  0
  -28.9495   -1.6281   32.1191 O   0  0  0  0  0  0  0  0  0  0  0  0
  -32.2543   -3.9071   30.9261 C   0  0  0  0  0  0  0  0  0  0  0  0
  -21.8114    0.5344   28.3754 C   0  0  0  0  0  0  0  0  0  0  0  0
  -20.4600    0.1448   28.3001 C   0  0  0  0  0  0  0  0  0  0  0  0
  -22.6184    0.0440   29.4620 C   0  0  0  0  0  0  0  0  0  0  0  0
  -22.1251   -1.0356   30.2450 C   0  0  0  0  0  0  0  0  0  0  0  0
  -23.0094   -1.3959   31.2510 C   0  0  0  0  0  0  0  0  0  0  0  0
  -24.1625   -0.5403   31.6127 C   0  0  0  0  0  0  0  0  0  0  0  0
  -24.4315    0.6285   30.9656 C   0  0  0  0  0  0  0  0  0  0  0  0
  -23.6387    0.9298   29.9265 C   0  0  0  0  0  0  0  0  0  0  0  0
  -22.7169    1.9497   30.9985 C   0  0  0  0  0  0  0  0  0  0  0  0
  -25.5458    1.2449   31.3302 O   0  0  0  0  0  0  0  0  0  0  0  0
  1  2  2  3
  2  3  1  0
  3  4  1  0
  4  5  1  0
  5  6  1  0
  2  7  1  0
  6  7  1  0
  1  8  1  0
  5  9  1  0
  9 10  1  0
  9 11  2  0
  8 12  1  0
  8 13  1  0
 13 14  1  0
 14 15  2  0
 14 16  1  0
 13 17  2  0
 16 18  1  0
 10 19  1  0
 19 20  2  0
 19 21  1  0
 22 23  1  0
 24 25  1  0
 21 26  1  0
 25 26  1  0
 26 27  1  0
 25 28  2  0
 24 23  1  0
 22 21  1  0
M  END

$$$$
