No_4506-gen_results/8p0m/2024-11-26-14-13-15/
     RDKit          3D

 29 31  0  0  0  0  0  0  0  0999 V2000
  -28.0162   -0.8135   28.8779 C   0  0  0  0  0  0  0  0  0  0  0  0
  -27.0636   -0.1189   28.6079 C   0  0  0  0  0  0  0  0  0  0  0  0
  -25.7647   -0.3897   29.0360 C   0  0  0  0  0  0  0  0  0  0  0  0
  -25.5296   -1.5302   29.9014 C   0  0  0  0  0  0  0  0  0  0  0  0
  -26.6577   -2.2915   30.2035 C   0  0  0  0  0  0  0  0  0  0  0  0
  -27.8548   -1.9555   29.7630 C   0  0  0  0  0  0  0  0  0  0  0  0
  -24.6989    0.3589   28.7784 F   0  0  0  0  0  0  0  0  0  0  0  0
  -28.9059   -2.7360   30.0810 F   0  0  0  0  0  0  0  0  0  0  0  0
  -27.2037    1.3199   27.6085 Cl  0  0  0  0  0  0  0  0  0  0  0  0
  -24.2747   -1.8601   30.2438 O   0  0  0  0  0  0  0  0  0  0  0  0
  -23.3197   -2.1463   29.4194 C   0  0  0  0  0  0  0  0  0  0  0  0
  -29.3180   -0.5829   28.5443 O   0  0  0  0  0  0  0  0  0  0  0  0
  -30.2201   -0.0964   29.3639 C   0  0  0  0  0  0  0  0  0  0  0  0
  -31.0088    0.7972   28.7476 C   0  0  0  0  0  0  0  0  0  0  0  0
  -31.8015    1.3120   29.3709 O   0  0  0  0  0  0  0  0  0  0  0  0
  -31.1830    0.7081   27.3608 N   0  0  0  0  0  0  0  0  0  0  0  0
  -30.5513   -0.0599   26.5006 C   0  0  0  0  0  0  0  0  0  0  0  0
  -31.7537    1.8716   26.6566 C   0  0  0  0  0  0  0  0  0  0  0  0
  -31.2019   -0.0769   25.1138 C   0  0  0  0  0  0  0  0  0  0  0  0
  -31.7691    1.1896   25.0659 C   0  0  0  0  0  0  0  0  0  0  0  0
  -30.2596   -0.3670   30.5637 O   0  0  0  0  0  0  0  0  0  0  0  0
  -32.4405    1.8231   24.1259 N   0  0  0  0  0  0  0  0  0  0  0  0
  -32.2600    1.7214   22.9104 C   0  0  0  0  0  0  0  0  0  0  0  0
  -32.9813    2.5716   21.9177 C   0  0  0  0  0  0  0  0  0  0  0  0
  -33.1548    3.0614   24.3336 C   0  0  0  0  0  0  0  0  0  0  0  0
  -33.7787    3.8733   23.4876 C   0  0  0  0  0  0  0  0  0  0  0  0
  -33.5967    3.6588   22.1729 C   0  0  0  0  0  0  0  0  0  0  0  0
  -34.1772    4.4434   21.1037 C   0  0  0  0  0  0  0  0  0  0  0  0
  -33.9509    4.2666   19.8965 N   0  0  0  0  0  0  0  0  0  0  0  0
  3  7  1  0
  6  8  1  0
  2  9  1  0
  4 10  1  0
 10 11  1  0
  1 12  1  0
 12 13  1  0
 13 14  1  0
 14 15  2  0
 14 16  1  0
 16 17  1  0
 16 18  1  0
 17 19  2  0
 18 20  1  0
 19 20  1  0
 13 21  2  0
 20 22  1  0
 22 23  1  0
 22 25  1  0
 24 27  1  0
 26 27  1  0
 27 28  1  0
 28 29  2  0
 23 24  1  0
 26 25  1  0
  1  2  2  0
  2  3  1  0
  3  4  2  0
  4  5  1  0
  5  6  2  0
  6  1  1  0
M  END

$$$$
