No_4589-gen_results/8p0m/2024-11-26-14-13-15/
     RDKit          3D

 31 35  0  0  0  0  0  0  0  0999 V2000
  -28.0162   -0.8135   28.8779 C   0  0  0  0  0  0  0  0  0  0  0  0
  -28.4690   -0.7850   29.8287 C   0  0  0  0  0  0  0  0  0  0  0  0
  -26.5042   -0.7777   28.8766 C   0  0  0  0  0  0  0  0  0  0  0  0
  -25.8103   -0.8531   30.1028 C   0  0  0  0  0  0  0  0  0  0  0  0
  -27.9906   -0.8916   31.2257 C   0  0  0  0  0  0  0  0  0  0  0  0
  -26.6042   -0.8676   31.2652 C   0  0  0  0  0  0  0  0  0  0  0  0
  -30.0417   -0.7687   29.6526 C   0  0  0  0  0  0  0  0  0  0  0  0
  -30.7229    0.3514   30.1471 C   0  0  0  0  0  0  0  0  0  0  0  0
  -32.0933    0.4139   29.9602 C   0  0  0  0  0  0  0  0  0  0  0  0
  -32.7231   -0.6870   29.3274 C   0  0  0  0  0  0  0  0  0  0  0  0
  -32.0351   -1.7654   28.8972 C   0  0  0  0  0  0  0  0  0  0  0  0
  -30.6814   -1.8360   29.1337 C   0  0  0  0  0  0  0  0  0  0  0  0
  -32.6600   -2.9171   28.2490 C   0  0  0  0  0  0  0  0  0  0  0  0
  -33.8552   -3.1473   28.5739 O   0  0  0  0  0  0  0  0  0  0  0  0
  -32.0653   -3.6578   27.4289 O   0  0  0  0  0  0  0  0  0  0  0  0
  -24.3798   -0.8218   30.1311 C   0  0  0  0  0  0  0  0  0  0  0  0
  -23.8222    0.5160   30.0427 C   0  0  0  0  0  0  0  0  0  0  0  0
  -24.1780    1.4999   30.6013 C   0  0  0  0  0  0  0  0  0  0  0  0
  -23.6566    2.8526   30.2525 C   0  0  0  0  0  0  0  0  0  0  0  0
  -22.8458    2.6870   29.2316 N   0  0  0  0  0  0  0  0  0  0  0  0
  -22.8159    0.9623   29.0313 C   0  0  0  0  0  0  0  0  0  0  0  0
  -25.6266   -0.6580   27.4203 Cl  0  0  0  0  0  0  0  0  0  0  0  0
  -22.1773    0.4055   28.1231 N   0  0  0  0  0  0  0  0  0  0  0  0
  -32.8528    1.5869   30.3973 C   0  0  0  0  0  0  0  0  0  0  0  0
  -33.8332    1.9615   30.0281 C   0  0  0  0  0  0  0  0  0  0  0  0
  -34.5446    2.9344   30.2693 C   0  0  0  0  0  0  0  0  0  0  0  0
  -35.8522    3.3257   29.7393 C   0  0  0  0  0  0  0  0  0  0  0  0
  -36.3160    2.4004   28.8013 C   0  0  0  0  0  0  0  0  0  0  0  0
  -35.6754    1.3109   28.4413 C   0  0  0  0  0  0  0  0  0  0  0  0
  -34.5484    1.0666   28.9727 C   0  0  0  0  0  0  0  0  0  0  0  0
  -33.8226   -0.2221   28.6948 C   0  0  0  0  0  0  0  0  0  0  0  0
  2  7  1  0
 11 13  1  0
 13 14  1  0
 13 15  2  0
  4 16  1  0
 16 17  1  0
 17 18  2  0
 18 19  1  0
 19 20  2  0
 17 21  1  0
 20 21  1  0
  3 22  1  0
 21 23  1  0
 25 26  1  0
 26 27  2  0
 27 28  1  0
 28 29  2  0
 29 30  1  0
  1  2  2  0
  2  5  1  0
  5  6  2  0
  6  4  1  0
  4  3  2  0
  3  1  1  0
  7  8  2  0
  8  9  1  0
 10 11  1  0
 11 12  2  0
 12  7  1  0
  9 10  2  0
 10 31  1  0
 31 30  2  0
 30 25  1  0
 25 24  2  0
 24  9  1  0
M  END

$$$$
