No_4119-gen_results/8p0m/2024-11-26-14-13-15/
     RDKit          3D

 18 19  0  0  0  0  0  0  0  0999 V2000
  -28.0162   -0.8135   28.8779 C   0  0  0  0  0  0  0  0  0  0  0  0
  -28.4690   -0.7850   29.8287 C   0  0  0  0  0  0  0  0  0  0  0  0
  -28.1960    0.3478   28.0550 C   0  0  0  0  0  0  0  0  0  0  0  0
  -29.0191    1.3501   28.3782 C   0  0  0  0  0  0  0  0  0  0  0  0
  -28.3170   -1.9812   30.8560 C   0  0  0  0  0  0  0  0  0  0  0  0
  -29.5950    1.2859   29.6049 C   0  0  0  0  0  0  0  0  0  0  0  0
  -29.3465    0.2093   30.3749 C   0  0  0  0  0  0  0  0  0  0  0  0
  -29.2620   -2.7236   31.0107 O   0  0  0  0  0  0  0  0  0  0  0  0
  -27.1323   -2.3224   31.2107 O   0  0  0  0  0  0  0  0  0  0  0  0
  -27.4456    0.3698   26.6911 C   0  0  0  0  0  0  0  0  0  0  0  0
  -26.4461    0.8999   26.5179 C   0  0  0  0  0  0  0  0  0  0  0  0
  -25.3658    1.0934   26.7159 C   0  0  0  0  0  0  0  0  0  0  0  0
  -24.3346    1.8508   26.0216 C   0  0  0  0  0  0  0  0  0  0  0  0
  -23.4328    2.5685   26.2248 C   0  0  0  0  0  0  0  0  0  0  0  0
  -22.6921    2.2318   27.4767 C   0  0  0  0  0  0  0  0  0  0  0  0
  -23.3267    1.2283   28.3341 C   0  0  0  0  0  0  0  0  0  0  0  0
  -24.5404    0.7601   27.9740 C   0  0  0  0  0  0  0  0  0  0  0  0
  -28.2780   -0.1592   25.7601 O   0  0  0  0  0  0  0  0  0  0  0  0
  2  5  1  0
  5  8  1  0
  5  9  2  0
  3 10  1  0
 10 11  1  0
 10 18  2  0
 11 12  1  0
 12 13  2  0
 13 14  1  0
 14 15  2  0
 15 16  1  0
 16 17  2  0
 17 12  1  0
  1  2  2  0
  2  7  1  0
  7  6  2  0
  6  4  1  0
  4  3  2  0
  3  1  1  0
M  END

$$$$
