No_4368-gen_results/8p0m/2024-11-26-14-13-15/
     RDKit          3D

 33 38  0  0  0  0  0  0  0  0999 V2000
  -28.0162   -0.8135   28.8779 C   0  0  0  0  0  0  0  0  0  0  0  0
  -28.4690   -0.7850   29.8287 C   0  0  0  0  0  0  0  0  0  0  0  0
  -27.1356    0.2359   28.5352 C   0  0  0  0  0  0  0  0  0  0  0  0
  -26.8745    1.2825   29.3982 C   0  0  0  0  0  0  0  0  0  0  0  0
  -28.3613    0.1987   30.9244 C   0  0  0  0  0  0  0  0  0  0  0  0
  -27.5277    1.2234   30.6356 C   0  0  0  0  0  0  0  0  0  0  0  0
  -26.3987    0.2949   27.2279 C   0  0  0  0  0  0  0  0  0  0  0  0
  -26.9022    0.7280   26.2134 C   0  0  0  0  0  0  0  0  0  0  0  0
  -26.1747    0.6364   24.9259 C   0  0  0  0  0  0  0  0  0  0  0  0
  -25.0769   -0.2068   27.2393 C   0  0  0  0  0  0  0  0  0  0  0  0
  -24.4662   -0.6746   28.5690 C   0  0  0  0  0  0  0  0  0  0  0  0
  -24.8102    0.2419   24.9847 C   0  0  0  0  0  0  0  0  0  0  0  0
  -24.2910   -0.1013   26.1508 C   0  0  0  0  0  0  0  0  0  0  0  0
  -24.0778   -1.5859   29.1453 C   0  0  0  0  0  0  0  0  0  0  0  0
  -23.4398   -1.6085   30.4007 C   0  0  0  0  0  0  0  0  0  0  0  0
  -23.6699   -0.5468   31.2326 C   0  0  0  0  0  0  0  0  0  0  0  0
  -24.4548    0.5897   29.6144 C   0  0  0  0  0  0  0  0  0  0  0  0
  -23.9156    0.5738   30.7773 C   0  0  0  0  0  0  0  0  0  0  0  0
  -28.5685    1.2128   25.9793 Cl  0  0  0  0  0  0  0  0  0  0  0  0
  -27.3641    2.3776   31.6190 C   0  0  0  0  0  0  0  0  0  0  0  0
  -28.3061    3.3002   31.7500 C   0  0  0  0  0  0  0  0  0  0  0  0
  -29.4393    3.3390   31.0086 C   0  0  0  0  0  0  0  0  0  0  0  0
  -30.4062    4.4075   31.1636 C   0  0  0  0  0  0  0  0  0  0  0  0
  -30.1185    5.3527   32.1028 C   0  0  0  0  0  0  0  0  0  0  0  0
  -29.0105    5.3619   32.8780 C   0  0  0  0  0  0  0  0  0  0  0  0
  -28.0516    4.3646   32.7316 C   0  0  0  0  0  0  0  0  0  0  0  0
  -26.1273    2.3167   32.4336 C   0  0  0  0  0  0  0  0  0  0  0  0
  -26.2385    1.9495   33.8789 C   0  0  0  0  0  0  0  0  0  0  0  0
  -25.4145    3.7576   32.4122 C   0  0  0  0  0  0  0  0  0  0  0  0
  -24.5614    3.9124   31.2790 C   0  0  0  0  0  0  0  0  0  0  0  0
  -26.4001    4.8970   32.5320 C   0  0  0  0  0  0  0  0  0  0  0  0
  -28.1467    3.6421   34.1914 C   0  0  0  0  0  0  0  0  0  0  0  0
  -27.3829    2.8554   34.5654 C   0  0  0  0  0  0  0  0  0  0  0  0
  3  7  1  0
 10 11  1  0
  8 19  1  0
  6 20  1  0
 21 22  1  0
 22 23  1  0
 24 25  1  0
 21 26  1  0
 25 26  1  0
 20 27  1  0
 27 28  1  0
 27 29  1  0
 29 30  1  0
 26 31  1  0
 29 31  1  0
 26 32  1  0
 28 33  2  0
 32 33  2  0
 23 24  1  0
 21 20  1  0
 11 14  2  0
 14 15  1  0
 15 16  2  0
 16 18  1  0
 18 17  2  0
 17 11  1  0
  7  8  2  0
  8  9  1  0
  9 12  2  0
 12 13  1  0
 13 10  2  0
 10  7  1  0
  1  2  2  0
  2  5  1  0
  5  6  2  0
  6  4  1  0
  4  3  2  0
  3  1  1  0
M  END

$$$$
