No_4090-gen_results/8p0m/2024-11-26-14-13-15/
     RDKit          3D

 21 24  0  0  0  0  0  0  0  0999 V2000
  -28.0162   -0.8135   28.8779 C   0  0  0  0  0  0  0  0  0  0  0  0
  -27.0636   -0.1190   28.6079 C   0  0  0  0  0  0  0  0  0  0  0  0
  -26.9716    0.7139   27.5060 C   0  0  0  0  0  0  0  0  0  0  0  0
  -25.8205    1.4909   27.1160 C   0  0  0  0  0  0  0  0  0  0  0  0
  -24.6562    1.4242   27.9180 C   0  0  0  0  0  0  0  0  0  0  0  0
  -24.7114    0.5419   29.0507 C   0  0  0  0  0  0  0  0  0  0  0  0
  -25.8042   -0.2058   29.3881 C   0  0  0  0  0  0  0  0  0  0  0  0
  -28.0673   -1.5382   30.1911 C   0  0  0  0  0  0  0  0  0  0  0  0
  -29.2040   -2.2943   30.5528 C   0  0  0  0  0  0  0  0  0  0  0  0
  -30.3758   -1.7888   30.1553 C   0  0  0  0  0  0  0  0  0  0  0  0
  -31.4830   -2.5372   30.4839 C   0  0  0  0  0  0  0  0  0  0  0  0
  -31.3816   -3.7485   31.1303 C   0  0  0  0  0  0  0  0  0  0  0  0
  -30.1610   -4.2740   31.5737 C   0  0  0  0  0  0  0  0  0  0  0  0
  -29.0170   -3.5029   31.2360 C   0  0  0  0  0  0  0  0  0  0  0  0
  -27.4889   -0.6586   31.2121 C   0  0  0  0  0  0  0  0  0  0  0  0
  -26.0410   -0.2452   30.9058 C   0  0  0  0  0  0  0  0  0  0  0  0
  -27.9519    0.7455   26.6025 O   0  0  0  0  0  0  0  0  0  0  0  0
  -23.4340    0.4192   29.8722 C   0  0  0  0  0  0  0  0  0  0  0  0
  -22.2419    0.8828   29.3864 C   0  0  0  0  0  0  0  0  0  0  0  0
  -22.0862    1.5584   28.2019 C   0  0  0  0  0  0  0  0  0  0  0  0
  -23.3737    1.8728   27.3767 C   0  0  0  0  0  0  0  0  0  0  0  0
  2  3  1  0
  3  4  1  0
  6  7  1  0
  8  9  1  0
  3 17  2  0
  5  4  1  0
  1  2  2  0
  2  7  1  0
  7 16  2  0
 16 15  1  0
 15  8  2  0
  8  1  1  0
  9 10  2  0
 10 11  1  0
 11 12  2  0
 12 13  1  0
 13 14  2  0
 14  9  1  0
  5  6  2  0
  6 18  1  0
 18 19  2  0
 19 20  1  0
 20 21  2  0
 21  5  1  0
M  END

$$$$
