No_4677-gen_results/8p0m/2024-11-26-14-13-15/
     RDKit          3D

 22 23  0  0  0  0  0  0  0  0999 V2000
  -28.0162   -0.8135   28.8779 C   0  0  0  0  0  0  0  0  0  0  0  0
  -27.0636   -0.1190   28.6079 C   0  0  0  0  0  0  0  0  0  0  0  0
  -25.7923   -0.4302   29.0761 C   0  0  0  0  0  0  0  0  0  0  0  0
  -25.5756   -1.5654   29.9363 C   0  0  0  0  0  0  0  0  0  0  0  0
  -26.7354   -2.3004   30.2173 C   0  0  0  0  0  0  0  0  0  0  0  0
  -27.9184   -1.9537   29.7629 C   0  0  0  0  0  0  0  0  0  0  0  0
  -27.1057    1.1023   27.7593 C   0  0  0  0  0  0  0  0  0  0  0  0
  -26.7157    2.2350   27.9945 C   0  0  0  0  0  0  0  0  0  0  0  0
  -27.6806    0.8547   26.4259 C   0  0  0  0  0  0  0  0  0  0  0  0
  -26.0318    2.5935   29.1910 C   0  0  0  0  0  0  0  0  0  0  0  0
  -25.6600    3.4097   29.7908 C   0  0  0  0  0  0  0  0  0  0  0  0
  -26.2417    4.7326   29.5226 C   0  0  0  0  0  0  0  0  0  0  0  0
  -26.9553    4.7006   28.2749 C   0  0  0  0  0  0  0  0  0  0  0  0
  -27.6133    3.4735   27.9905 C   0  0  0  0  0  0  0  0  0  0  0  0
  -28.8689    0.7597   26.1707 N   0  0  0  0  0  0  0  0  0  0  0  0
  -26.9552    1.2943   25.5370 F   0  0  0  0  0  0  0  0  0  0  0  0
  -29.3882    0.3096   24.9964 C   0  0  0  0  0  0  0  0  0  0  0  0
  -30.6761   -0.2822   24.9540 C   0  0  0  0  0  0  0  0  0  0  0  0
  -31.2576   -0.5655   26.0653 C   0  0  0  0  0  0  0  0  0  0  0  0
  -30.7974    0.0214   26.9987 F   0  0  0  0  0  0  0  0  0  0  0  0
  -32.6224   -0.3348   26.0370 F   0  0  0  0  0  0  0  0  0  0  0  0
  -31.2619   -1.9532   26.2693 F   0  0  0  0  0  0  0  0  0  0  0  0
  2  7  1  0
  7  8  1  0
  7  9  1  0
  9 15  1  0
  9 16  1  0
 15 17  1  0
 17 18  1  0
 18 19  1  0
 19 20  1  0
 19 21  1  0
 19 22  1  0
  8 10  2  0
 10 11  1  0
 11 12  2  0
 12 13  1  0
 13 14  2  0
 14  8  1  0
  1  2  2  0
  2  3  1  0
  3  4  2  0
  4  5  1  0
  5  6  2  0
  6  1  1  0
M  END

$$$$
