No_4635-gen_results/8p0m/2024-11-26-14-13-15/
     RDKit          3D

 35 37  0  0  0  0  0  0  0  0999 V2000
  -28.1229   -1.3353   28.4874 O   0  0  0  0  0  0  0  0  0  0  0  0
  -27.4806   -0.4044   28.7094 C   0  0  0  0  0  0  0  0  0  0  0  0
  -26.3804   -0.0867   27.9395 C   0  0  0  0  0  0  0  0  0  0  0  0
  -27.6664    0.4468   29.8988 N   0  0  0  0  0  0  0  0  0  0  0  0
  -25.1773   -0.4388   28.3946 C   0  0  0  0  0  0  0  0  0  0  0  0
  -24.8702   -0.1050   29.8315 C   0  0  0  0  0  0  0  0  0  0  0  0
  -26.1926    0.2176   30.5619 C   0  0  0  0  0  0  0  0  0  0  0  0
  -26.5124    1.2141   27.1793 C   0  0  0  0  0  0  0  0  0  0  0  0
  -26.1616    2.2372   27.1795 Cl  0  0  0  0  0  0  0  0  0  0  0  0
  -27.3517    0.7086   25.8392 C   0  0  0  0  0  0  0  0  0  0  0  0
  -27.9931    1.5030   25.1733 C   0  0  0  0  0  0  0  0  0  0  0  0
  -29.2743    1.7444   25.4436 C   0  0  0  0  0  0  0  0  0  0  0  0
  -30.0324    2.6866   24.6218 C   0  0  0  0  0  0  0  0  0  0  0  0
  -31.3252    3.0723   24.8539 C   0  0  0  0  0  0  0  0  0  0  0  0
  -31.9759    2.4462   25.8926 C   0  0  0  0  0  0  0  0  0  0  0  0
  -31.3727    1.5374   26.6839 C   0  0  0  0  0  0  0  0  0  0  0  0
  -30.0572    1.2263   26.5050 C   0  0  0  0  0  0  0  0  0  0  0  0
  -28.7413    0.1179   30.7476 C   0  0  0  0  0  0  0  0  0  0  0  0
  -32.1510    0.9547   27.8525 C   0  0  0  0  0  0  0  0  0  0  0  0
  -32.1491    1.2856   28.9305 O   0  0  0  0  0  0  0  0  0  0  0  0
  -33.0139    0.0597   27.3894 O   0  0  0  0  0  0  0  0  0  0  0  0
  -23.6738   -0.2343   30.5369 C   0  0  0  0  0  0  0  0  0  0  0  0
  -23.5119   -0.3205   31.6636 C   0  0  0  0  0  0  0  0  0  0  0  0
  -22.5037    0.0157   29.6477 C   0  0  0  0  0  0  0  0  0  0  0  0
  -22.4702    0.5571   28.5326 N   0  0  0  0  0  0  0  0  0  0  0  0
  -21.3194    1.0618   27.9533 C   0  0  0  0  0  0  0  0  0  0  0  0
  -21.5069    1.9444   26.9296 N   0  0  0  0  0  0  0  0  0  0  0  0
  -20.2628    0.6209   28.2696 O   0  0  0  0  0  0  0  0  0  0  0  0
  -28.9293   -0.8545   31.5172 C   0  0  0  0  0  0  0  0  0  0  0  0
  -30.0729   -1.0699   32.3133 C   0  0  0  0  0  0  0  0  0  0  0  0
  -31.1456   -0.1317   32.1271 C   0  0  0  0  0  0  0  0  0  0  0  0
  -30.8906    1.0113   31.3754 C   0  0  0  0  0  0  0  0  0  0  0  0
  -29.7612    1.2059   30.6538 C   0  0  0  0  0  0  0  0  0  0  0  0
  -23.9164   -0.8360   32.7718 N   0  0  0  0  0  0  0  0  0  0  0  0
  -23.5041   -1.5773   33.5919 C   0  0  0  0  0  0  0  0  0  0  0  0
  1  2  2  0
  2  3  1  0
  2  4  1  0
  5  6  1  0
  4  7  1  0
  3  8  1  0
  8  9  1  0
  8 10  1  0
 10 11  1  0
 11 12  1  0
  4 18  1  0
 16 19  1  0
 19 20  2  0
 19 21  1  0
  6 22  1  0
 22 23  2  0
 22 24  1  0
 24 25  1  0
 25 26  1  0
 26 27  1  0
 26 28  2  0
 23 34  2  0
 34 35  1  0
  3  5  1  0
  6  7  1  0
 12 13  2  0
 13 14  1  0
 14 15  2  0
 15 16  1  0
 16 17  2  0
 17 12  1  0
 18 29  2  0
 29 30  1  0
 30 31  2  0
 31 32  1  0
 32 33  2  0
 33 18  1  0
M  END

$$$$
