No_4784-gen_results/8p0m/2024-11-26-14-13-15/
     RDKit          3D

 19 20  0  0  0  0  0  0  0  0999 V2000
  -28.0162   -0.8135   28.8779 C   0  0  0  0  0  0  0  0  0  0  0  0
  -27.0636   -0.1190   28.6079 C   0  0  0  0  0  0  0  0  0  0  0  0
  -26.9716    0.7139   27.5060 C   0  0  0  0  0  0  0  0  0  0  0  0
  -25.8205    1.4909   27.1160 C   0  0  0  0  0  0  0  0  0  0  0  0
  -24.6562    1.4242   27.9180 C   0  0  0  0  0  0  0  0  0  0  0  0
  -24.6847    0.5901   29.0659 C   0  0  0  0  0  0  0  0  0  0  0  0
  -25.8099   -0.1265   29.3338 C   0  0  0  0  0  0  0  0  0  0  0  0
  -27.9680   -1.6901   30.0059 N   0  0  0  0  0  0  0  0  0  0  0  0
  -23.4770    2.1906   27.6036 C   0  0  0  0  0  0  0  0  0  0  0  0
  -23.4101    2.7471   26.3916 N   0  0  0  0  0  0  0  0  0  0  0  0
  -22.2048    1.9405   28.2418 C   0  0  0  0  0  0  0  0  0  0  0  0
  -29.0577   -2.4158   30.3883 C   0  0  0  0  0  0  0  0  0  0  0  0
  -22.1862    1.3528   29.3378 O   0  0  0  0  0  0  0  0  0  0  0  0
  -30.2288   -2.0416   29.9097 C   0  0  0  0  0  0  0  0  0  0  0  0
  -31.3143   -2.8603   30.2460 C   0  0  0  0  0  0  0  0  0  0  0  0
  -32.5726   -2.5792   29.6579 C   0  0  0  0  0  0  0  0  0  0  0  0
  -32.6555   -1.4490   28.8041 C   0  0  0  0  0  0  0  0  0  0  0  0
  -31.5922   -0.6877   28.5166 C   0  0  0  0  0  0  0  0  0  0  0  0
  -30.3364   -1.0126   29.0757 C   0  0  0  0  0  0  0  0  0  0  0  0
  1  8  2  3
  5  9  1  0
  9 10  2  0
  9 11  1  0
  8 12  1  0
 11 13  1  0
 12 14  1  0
  1  2  1  0
  2  3  2  0
  3  4  1  0
  4  5  2  0
  5  6  1  0
  6  7  2  0
  7  2  1  0
 14 15  2  0
 15 16  1  0
 16 17  2  0
 17 18  1  0
 18 19  2  0
 19 14  1  0
M  END

$$$$
