No_4923-gen_results/8p0m/2024-11-26-14-13-15/
     RDKit          3D

 26 29  0  0  0  0  0  0  0  0999 V2000
  -28.0162   -0.8135   28.8779 C   0  0  0  0  0  0  0  0  0  0  0  0
  -27.0636   -0.1190   28.6079 C   0  0  0  0  0  0  0  0  0  0  0  0
  -26.8756    1.1325   28.9134 C   0  0  0  0  0  0  0  0  0  0  0  0
  -27.9014    1.8066   29.6436 C   0  0  0  0  0  0  0  0  0  0  0  0
  -29.0458   -0.2316   29.7181 C   0  0  0  0  0  0  0  0  0  0  0  0
  -28.9402    1.0517   30.0597 C   0  0  0  0  0  0  0  0  0  0  0  0
  -30.0593   -1.0632   30.0946 O   0  0  0  0  0  0  0  0  0  0  0  0
  -25.6684    1.9362   28.4484 C   0  0  0  0  0  0  0  0  0  0  0  0
  -24.9348    1.7160   27.6796 C   0  0  0  0  0  0  0  0  0  0  0  0
  -23.7118    2.4802   27.3226 C   0  0  0  0  0  0  0  0  0  0  0  0
  -24.9279    2.7579   29.4830 C   0  0  0  0  0  0  0  0  0  0  0  0
  -23.8386    3.4340   29.2890 N   0  0  0  0  0  0  0  0  0  0  0  0
  -23.1236    3.2196   28.2038 C   0  0  0  0  0  0  0  0  0  0  0  0
  -30.4494   -1.0508   31.3658 C   0  0  0  0  0  0  0  0  0  0  0  0
  -22.9769    2.1674   26.1598 O   0  0  0  0  0  0  0  0  0  0  0  0
  -30.7416   -1.8830   31.9008 C   0  0  0  0  0  0  0  0  0  0  0  0
  -31.1735   -1.9593   33.3783 C   0  0  0  0  0  0  0  0  0  0  0  0
  -31.2150   -0.7532   34.0641 C   0  0  0  0  0  0  0  0  0  0  0  0
  -30.8227    0.3487   33.3566 C   0  0  0  0  0  0  0  0  0  0  0  0
  -30.4111    0.2801   32.0793 C   0  0  0  0  0  0  0  0  0  0  0  0
  -29.7472    1.3501   31.3639 C   0  0  0  0  0  0  0  0  0  0  0  0
  -28.7602    2.2477   32.1178 C   0  0  0  0  0  0  0  0  0  0  0  0
  -30.8876    2.2588   30.7462 C   0  0  0  0  0  0  0  0  0  0  0  0
  -31.6671    2.0864   29.9920 C   0  0  0  0  0  0  0  0  0  0  0  0
  -32.6176    2.9048   29.5806 C   0  0  0  0  0  0  0  0  0  0  0  0
  -33.5635    2.5707   28.5564 C   0  0  0  0  0  0  0  0  0  0  0  0
  5  7  1  0
  3  8  1  0
  7 14  1  0
 10 15  1  0
  6 21  1  0
 20 21  1  0
 21 22  1  0
 21 23  1  0
 23 24  1  0
 24 25  2  3
 25 26  1  0
  8  9  2  0
  9 10  1  0
 10 13  2  0
 13 12  1  0
 12 11  2  0
 11  8  1  0
  1  2  2  0
  2  3  1  0
  3  4  2  0
  4  6  1  0
  6  5  2  0
  5  1  1  0
 14 16  2  0
 16 17  1  0
 17 18  2  0
 18 19  1  0
 19 20  2  0
 20 14  1  0
M  END

$$$$
