No_4661-gen_results/8p0m/2024-11-26-14-13-15/
     RDKit          3D

 13 13  0  0  0  0  0  0  0  0999 V2000
  -28.0162   -0.8135   28.8779 C   0  0  0  0  0  0  0  0  0  0  0  0
  -27.0636   -0.1190   28.6079 C   0  0  0  0  0  0  0  0  0  0  0  0
  -27.0010    0.6913   27.4910 C   0  0  0  0  0  0  0  0  0  0  0  0
  -25.8548    1.4825   27.0830 C   0  0  0  0  0  0  0  0  0  0  0  0
  -24.9008    1.3893   27.5922 C   0  0  0  0  0  0  0  0  0  0  0  0
  -24.6783    0.5764   28.8299 C   0  0  0  0  0  0  0  0  0  0  0  0
  -25.7704   -0.2051   29.2800 C   0  0  0  0  0  0  0  0  0  0  0  0
  -27.6929   -1.9406   29.3476 F   0  0  0  0  0  0  0  0  0  0  0  0
  -28.8567   -1.0140   27.8944 F   0  0  0  0  0  0  0  0  0  0  0  0
  -28.7299   -0.1614   29.9092 F   0  0  0  0  0  0  0  0  0  0  0  0
  -23.6108    2.1928   27.3001 C   0  0  0  0  0  0  0  0  0  0  0  0
  -22.6252    2.2954   28.1362 N   0  0  0  0  0  0  0  0  0  0  0  0
  -23.5194    2.7385   26.1625 F   0  0  0  0  0  0  0  0  0  0  0  0
  1  2  1  0
  1  8  1  0
  1  9  1  0
  1 10  1  0
  5 11  1  0
 11 12  2  0
 11 13  1  0
  2  3  2  0
  3  4  1  0
  4  5  2  0
  5  6  1  0
  6  7  2  0
  7  2  1  0
M  END

$$$$
