No_4207-gen_results/8p0m/2024-11-26-14-13-15/
     RDKit          3D

 23 24  0  0  0  0  0  0  0  0999 V2000
  -28.0162   -0.8135   28.8779 C   0  0  0  0  0  0  0  0  0  0  0  0
  -28.4690   -0.7850   29.8287 C   0  0  0  0  0  0  0  0  0  0  0  0
  -26.5042   -0.7777   28.8766 C   0  0  0  0  0  0  0  0  0  0  0  0
  -25.8103   -0.8531   30.1028 C   0  0  0  0  0  0  0  0  0  0  0  0
  -27.9906   -0.8916   31.2257 C   0  0  0  0  0  0  0  0  0  0  0  0
  -26.6042   -0.8676   31.2652 C   0  0  0  0  0  0  0  0  0  0  0  0
  -30.0739   -0.8360   29.8615 C   0  0  0  0  0  0  0  0  0  0  0  0
  -30.6891   -1.6554   30.2229 O   0  0  0  0  0  0  0  0  0  0  0  0
  -30.6062    0.2403   29.2675 O   0  0  0  0  0  0  0  0  0  0  0  0
  -25.6543   -0.7139   27.6828 C   0  0  0  0  0  0  0  0  0  0  0  0
  -24.6544    0.5618   27.5866 Br  0  0  0  0  0  0  0  0  0  0  0  0
  -31.7823    0.2459   28.6407 C   0  0  0  0  0  0  0  0  0  0  0  0
  -32.0115    1.5090   28.0350 C   0  0  0  0  0  0  0  0  0  0  0  0
  -31.5234    2.5080   28.3692 O   0  0  0  0  0  0  0  0  0  0  0  0
  -32.7845    1.5064   27.0169 F   0  0  0  0  0  0  0  0  0  0  0  0
  -32.4621   -0.7091   28.6443 O   0  0  0  0  0  0  0  0  0  0  0  0
  -30.7241    3.3310   27.6643 C   0  0  0  0  0  0  0  0  0  0  0  0
  -29.4642    3.4235   28.0094 C   0  0  0  0  0  0  0  0  0  0  0  0
  -28.9685    3.7438   29.2232 C   0  0  0  0  0  0  0  0  0  0  0  0
  -27.5764    3.6555   29.6148 C   0  0  0  0  0  0  0  0  0  0  0  0
  -26.6553    3.4421   28.5462 C   0  0  0  0  0  0  0  0  0  0  0  0
  -27.0476    3.2453   27.2849 C   0  0  0  0  0  0  0  0  0  0  0  0
  -28.4104    3.1961   27.0153 C   0  0  0  0  0  0  0  0  0  0  0  0
  2  7  1  0
  7  8  2  0
  7  9  1  0
  3 10  1  0
 10 11  1  0
  9 12  1  0
 12 13  1  0
 13 14  1  0
 13 15  1  0
 12 16  2  0
 14 17  1  0
 17 18  1  0
 18 19  2  0
 19 20  1  0
 20 21  2  0
 21 22  1  0
 22 23  2  0
 23 18  1  0
  1  2  2  0
  2  5  1  0
  5  6  2  0
  6  4  1  0
  4  3  2  0
  3  1  1  0
M  END

$$$$
