No_4468-gen_results/8p0m/2024-11-26-14-13-15/
     RDKit          3D

 14 14  0  0  0  0  0  0  0  0999 V2000
  -28.0162   -0.8135   28.8779 C   0  0  0  0  0  0  0  0  0  0  0  0
  -28.4690   -0.7850   29.8287 C   0  0  0  0  0  0  0  0  0  0  0  0
  -26.5042   -0.7777   28.8766 C   0  0  0  0  0  0  0  0  0  0  0  0
  -25.8103   -0.8531   30.1028 C   0  0  0  0  0  0  0  0  0  0  0  0
  -27.9906   -0.8916   31.2257 C   0  0  0  0  0  0  0  0  0  0  0  0
  -26.6042   -0.8676   31.2652 C   0  0  0  0  0  0  0  0  0  0  0  0
  -24.1648   -0.7915   30.1717 Cl  0  0  0  0  0  0  0  0  0  0  0  0
  -30.0984   -0.8773   30.0436 C   0  0  0  0  0  0  0  0  0  0  0  0
  -30.6870   -1.8267   30.2270 O   0  0  0  0  0  0  0  0  0  0  0  0
  -30.7157    0.2530   29.7288 O   0  0  0  0  0  0  0  0  0  0  0  0
  -25.8967   -0.6452   27.6433 N   0  0  0  0  0  0  0  0  0  0  0  0
  -24.6683    0.0356   27.6409 C   0  0  0  0  0  0  0  0  0  0  0  0
  -24.0863    0.6463   28.4576 C   0  0  0  0  0  0  0  0  0  0  0  0
  -23.0498    1.7280   27.9821 C   0  0  0  0  0  0  0  0  0  0  0  0
  4  7  1  0
  2  8  1  0
  8  9  2  0
  8 10  1  0
  3 11  1  0
 11 12  1  0
 12 13  1  0
 13 14  1  0
  1  2  2  0
  2  5  1  0
  5  6  2  0
  6  4  1  0
  4  3  2  0
  3  1  1  0
M  END

$$$$
