No_4946-gen_results/8p0m/2024-11-26-14-13-15/
     RDKit          3D

 22 23  0  0  0  0  0  0  0  0999 V2000
  -28.0162   -0.8135   28.8779 C   0  0  0  0  0  0  0  0  0  0  0  0
  -28.4690   -0.7850   29.8287 C   0  0  0  0  0  0  0  0  0  0  0  0
  -26.5042   -0.7777   28.8766 C   0  0  0  0  0  0  0  0  0  0  0  0
  -25.6540   -0.6597   27.7191 C   0  0  0  0  0  0  0  0  0  0  0  0
  -27.9180   -0.9374   31.1824 C   0  0  0  0  0  0  0  0  0  0  0  0
  -26.5423   -0.9399   31.2606 C   0  0  0  0  0  0  0  0  0  0  0  0
  -25.7832   -0.8935   30.1201 C   0  0  0  0  0  0  0  0  0  0  0  0
  -25.2134    0.6923   27.3830 C   0  0  0  0  0  0  0  0  0  0  0  0
  -25.3646    1.1004   26.0936 C   0  0  0  0  0  0  0  0  0  0  0  0
  -24.5956    1.5253   28.2924 C   0  0  0  0  0  0  0  0  0  0  0  0
  -24.1066    2.7629   27.8572 C   0  0  0  0  0  0  0  0  0  0  0  0
  -24.9108    2.3417   25.6397 C   0  0  0  0  0  0  0  0  0  0  0  0
  -24.2373    3.2107   26.5798 C   0  0  0  0  0  0  0  0  0  0  0  0
  -30.0301   -0.8219   30.0086 C   0  0  0  0  0  0  0  0  0  0  0  0
  -30.6716   -1.7281   30.2899 O   0  0  0  0  0  0  0  0  0  0  0  0
  -30.6319    0.2885   29.5835 O   0  0  0  0  0  0  0  0  0  0  0  0
  -25.9803    0.2989   25.0630 C   0  0  0  0  0  0  0  0  0  0  0  0
  -27.4074    0.1287   25.0478 C   0  0  0  0  0  0  0  0  0  0  0  0
  -28.1497    0.9928   25.8794 C   0  0  0  0  0  0  0  0  0  0  0  0
  -29.3299    1.3313   25.5228 C   0  0  0  0  0  0  0  0  0  0  0  0
  -30.0847    0.5911   24.6266 C   0  0  0  0  0  0  0  0  0  0  0  0
  -31.4374    0.8094   24.4260 C   0  0  0  0  0  0  0  0  0  0  0  0
  3  4  1  0
  4  8  1  0
  2 14  1  0
 14 15  2  0
 14 16  1  0
  9 17  1  0
 17 18  1  0
 18 19  2  3
 19 20  1  0
 20 21  2  3
 21 22  1  0
  8  9  2  0
  9 12  1  0
 12 13  2  0
 13 11  1  0
 11 10  2  0
 10  8  1  0
  1  2  2  0
  2  5  1  0
  5  6  2  0
  6  7  1  0
  7  3  2  0
  3  1  1  0
M  END

$$$$
