No_4686-gen_results/8p0m/2024-11-26-14-13-15/
     RDKit          3D

 27 29  0  0  0  0  0  0  0  0999 V2000
  -28.0162   -0.8135   28.8779 C   0  0  0  0  0  0  0  0  0  0  0  0
  -28.4690   -0.7850   29.8287 C   0  0  0  0  0  0  0  0  0  0  0  0
  -27.1356    0.2359   28.5352 C   0  0  0  0  0  0  0  0  0  0  0  0
  -26.8745    1.2825   29.3982 C   0  0  0  0  0  0  0  0  0  0  0  0
  -28.3613    0.1987   30.9244 C   0  0  0  0  0  0  0  0  0  0  0  0
  -27.5277    1.2234   30.6356 C   0  0  0  0  0  0  0  0  0  0  0  0
  -26.3987    0.2949   27.2279 C   0  0  0  0  0  0  0  0  0  0  0  0
  -25.0392    0.2356   27.3538 C   0  0  0  0  0  0  0  0  0  0  0  0
  -27.0287    0.3958   26.0087 C   0  0  0  0  0  0  0  0  0  0  0  0
  -28.3713    0.5360   25.8782 C   0  0  0  0  0  0  0  0  0  0  0  0
  -28.8860    0.5071   24.5687 C   0  0  0  0  0  0  0  0  0  0  0  0
  -30.2841    0.5712   24.3900 C   0  0  0  0  0  0  0  0  0  0  0  0
  -31.1106    0.6022   25.4906 C   0  0  0  0  0  0  0  0  0  0  0  0
  -30.6219    0.5694   26.7682 C   0  0  0  0  0  0  0  0  0  0  0  0
  -29.2916    0.5546   26.9892 C   0  0  0  0  0  0  0  0  0  0  0  0
  -26.3161    0.4756   24.9763 F   0  0  0  0  0  0  0  0  0  0  0  0
  -31.6205    0.6749   27.9012 C   0  0  0  0  0  0  0  0  0  0  0  0
  -32.0352   -0.1795   28.4571 N   0  0  0  0  0  0  0  0  0  0  0  0
  -32.6570   -0.2051   29.6502 C   0  0  0  0  0  0  0  0  0  0  0  0
  -31.5774    1.8645   28.3210 O   0  0  0  0  0  0  0  0  0  0  0  0
  -24.1058    1.0472   28.0440 C   0  0  0  0  0  0  0  0  0  0  0  0
  -22.8185    0.7136   28.2923 C   0  0  0  0  0  0  0  0  0  0  0  0
  -21.8138    1.6352   28.0376 C   0  0  0  0  0  0  0  0  0  0  0  0
  -24.3460    2.4861   28.1047 C   0  0  0  0  0  0  0  0  0  0  0  0
  -25.4989    3.1074   27.8371 C   0  0  0  0  0  0  0  0  0  0  0  0
  -26.0821    3.2874   29.1634 C   0  0  0  0  0  0  0  0  0  0  0  0
  -26.0223    2.3987   29.2628 C   0  0  0  0  0  0  0  0  0  0  0  0
  3  7  1  0
  7  8  1  0
  7  9  1  0
  9 10  1  0
  9 16  1  0
 14 17  1  0
 17 18  1  0
 18 19  2  0
 17 20  2  0
  8 21  1  0
 21 22  2  3
 22 23  1  0
 21 24  1  0
 24 25  1  0
 25 26  2  3
  4 27  1  0
 26 27  1  0
  1  2  2  0
  2  5  1  0
  5  6  2  0
  6  4  1  0
  4  3  2  0
  3  1  1  0
 10 11  2  0
 11 12  1  0
 12 13  2  0
 13 14  1  0
 14 15  2  0
 15 10  1  0
M  END

$$$$
