No_4809-gen_results/8p0m/2024-11-26-14-13-15/
     RDKit          3D

 15 15  0  0  0  0  0  0  0  0999 V2000
  -28.0162   -0.8135   28.8779 C   0  0  0  0  0  0  0  0  0  0  0  0
  -28.4690   -0.7850   29.8287 C   0  0  0  0  0  0  0  0  0  0  0  0
  -26.5455   -0.8762   28.8500 C   0  0  0  0  0  0  0  0  0  0  0  0
  -25.8041   -1.0324   30.0571 C   0  0  0  0  0  0  0  0  0  0  0  0
  -24.3697   -1.0998   30.0718 C   0  0  0  0  0  0  0  0  0  0  0  0
  -27.9902   -1.0051   31.2092 C   0  0  0  0  0  0  0  0  0  0  0  0
  -26.5616   -1.1368   31.2600 C   0  0  0  0  0  0  0  0  0  0  0  0
  -23.9575   -1.9461   30.7459 F   0  0  0  0  0  0  0  0  0  0  0  0
  -23.6785   -0.5997   29.1990 F   0  0  0  0  0  0  0  0  0  0  0  0
  -30.0866   -0.6884   29.9193 C   0  0  0  0  0  0  0  0  0  0  0  0
  -30.5295   -0.1775   29.0333 O   0  0  0  0  0  0  0  0  0  0  0  0
  -30.7642   -1.1541   30.9853 N   0  0  0  0  0  0  0  0  0  0  0  0
  -32.2046   -1.0381   31.0081 C   0  0  0  0  0  0  0  0  0  0  0  0
  -32.8876   -0.3711   30.6062 C   0  0  0  0  0  0  0  0  0  0  0  0
  -34.3407   -0.3280   30.6964 C   0  0  0  0  0  0  0  0  0  0  0  0
  4  5  1  0
  5  8  1  0
  5  9  1  0
  2 10  1  0
 10 11  2  0
 10 12  1  0
 12 13  1  0
 13 14  2  3
 14 15  1  0
  1  2  2  0
  2  6  1  0
  6  7  2  0
  7  4  1  0
  4  3  2  0
  3  1  1  0
M  END

$$$$
