No_4830-gen_results/8p0m/2024-11-26-14-13-15/
     RDKit          3D

 18 19  0  0  0  0  0  0  0  0999 V2000
  -28.0162   -0.8135   28.8779 C   0  0  0  0  0  0  0  0  0  0  0  0
  -28.4690   -0.7850   29.8287 C   0  0  0  0  0  0  0  0  0  0  0  0
  -26.5042   -0.7777   28.8766 C   0  0  0  0  0  0  0  0  0  0  0  0
  -25.8103   -0.8531   30.1028 C   0  0  0  0  0  0  0  0  0  0  0  0
  -27.9906   -0.8916   31.2257 C   0  0  0  0  0  0  0  0  0  0  0  0
  -26.6042   -0.8676   31.2652 C   0  0  0  0  0  0  0  0  0  0  0  0
  -30.0739   -0.8360   29.8615 C   0  0  0  0  0  0  0  0  0  0  0  0
  -30.5916   -1.8281   30.0957 F   0  0  0  0  0  0  0  0  0  0  0  0
  -30.4130   -0.3874   28.6120 F   0  0  0  0  0  0  0  0  0  0  0  0
  -30.5350    0.1554   30.6423 F   0  0  0  0  0  0  0  0  0  0  0  0
  -25.4148   -0.7039   27.3441 Br  0  0  0  0  0  0  0  0  0  0  0  0
  -24.4969   -0.7862   30.2043 O   0  0  0  0  0  0  0  0  0  0  0  0
  -23.7666    0.0301   29.4904 C   0  0  0  0  0  0  0  0  0  0  0  0
  -22.3653   -0.5354   29.3850 C   0  0  0  0  0  0  0  0  0  0  0  0
  -21.4296    0.1385   28.5033 C   0  0  0  0  0  0  0  0  0  0  0  0
  -21.8395    1.3552   27.9985 C   0  0  0  0  0  0  0  0  0  0  0  0
  -23.1058    1.9575   28.1797 C   0  0  0  0  0  0  0  0  0  0  0  0
  -24.0338    1.2416   29.0119 C   0  0  0  0  0  0  0  0  0  0  0  0
  2  7  1  0
  7  8  1  0
  7  9  1  0
  7 10  1  0
  3 11  1  0
  4 12  1  0
 12 13  1  0
 13 14  2  0
 14 15  1  0
 15 16  2  0
 16 17  1  0
 17 18  2  0
 18 13  1  0
  1  2  2  0
  2  5  1  0
  5  6  2  0
  6  4  1  0
  4  3  2  0
  3  1  1  0
M  END

$$$$
