No_4239-gen_results/8p0m/2024-11-26-14-13-15/
     RDKit          3D

 25 26  0  0  0  0  0  0  0  0999 V2000
  -28.0162   -0.8135   28.8779 C   0  0  0  0  0  0  0  0  0  0  0  0
  -28.4690   -0.7850   29.8287 C   0  0  0  0  0  0  0  0  0  0  0  0
  -28.1960    0.3478   28.0550 C   0  0  0  0  0  0  0  0  0  0  0  0
  -29.0191    1.3501   28.3782 C   0  0  0  0  0  0  0  0  0  0  0  0
  -29.4107    0.1803   30.3782 C   0  0  0  0  0  0  0  0  0  0  0  0
  -29.6059    1.2495   29.6193 C   0  0  0  0  0  0  0  0  0  0  0  0
  -27.4478    0.3799   26.7122 C   0  0  0  0  0  0  0  0  0  0  0  0
  -27.8571    0.8148   25.7030 C   0  0  0  0  0  0  0  0  0  0  0  0
  -27.0630    0.7577   24.4548 C   0  0  0  0  0  0  0  0  0  0  0  0
  -25.9840    0.5694   26.7882 C   0  0  0  0  0  0  0  0  0  0  0  0
  -25.0935    0.6154   25.7476 C   0  0  0  0  0  0  0  0  0  0  0  0
  -25.6972    0.7249   24.4995 C   0  0  0  0  0  0  0  0  0  0  0  0
  -30.5586    2.3600   30.0144 C   0  0  0  0  0  0  0  0  0  0  0  0
  -31.1819    2.9766   29.3520 O   0  0  0  0  0  0  0  0  0  0  0  0
  -30.4916    2.5511   31.3773 O   0  0  0  0  0  0  0  0  0  0  0  0
  -29.3509    0.8415   25.3018 C   0  0  0  0  0  0  0  0  0  0  0  0
  -30.1195   -0.0130   24.9509 O   0  0  0  0  0  0  0  0  0  0  0  0
  -29.8725    2.1197   25.3495 O   0  0  0  0  0  0  0  0  0  0  0  0
  -28.3108   -2.0393   30.8424 C   0  0  0  0  0  0  0  0  0  0  0  0
  -28.9420   -2.8354   30.9392 O   0  0  0  0  0  0  0  0  0  0  0  0
  -27.5648   -1.5690   31.9171 O   0  0  0  0  0  0  0  0  0  0  0  0
  -29.7254   -3.3226   31.7021 C   0  0  0  0  0  0  0  0  0  0  0  0
  -29.9861   -4.6330   31.5469 C   0  0  0  0  0  0  0  0  0  0  0  0
  -29.8007   -5.2564   30.2853 C   0  0  0  0  0  0  0  0  0  0  0  0
  -29.3508   -4.4114   29.3250 C   0  0  0  0  0  0  0  0  0  0  0  0
  3  7  1  0
  6 13  1  0
 13 14  2  0
 13 15  1  0
  8 16  1  0
 16 17  2  0
 16 18  1  0
  2 19  1  0
 19 20  1  0
 19 21  2  0
 20 22  1  0
 22 23  2  3
 23 24  1  0
 24 25  2  0
  1  2  2  0
  2  5  1  0
  5  6  2  0
  6  4  1  0
  4  3  2  0
  3  1  1  0
  7  8  2  0
  8  9  1  0
  9 12  2  0
 12 11  1  0
 11 10  2  0
 10  7  1  0
M  END

$$$$
