No_4554-gen_results/8p0m/2024-11-26-14-13-15/
     RDKit          3D

 23 25  0  0  0  0  0  0  0  0999 V2000
  -28.0162   -0.8135   28.8779 C   0  0  0  0  0  0  0  0  0  0  0  0
  -27.0636   -0.1189   28.6079 C   0  0  0  0  0  0  0  0  0  0  0  0
  -27.0010    0.6913   27.4910 C   0  0  0  0  0  0  0  0  0  0  0  0
  -25.8548    1.4825   27.0830 C   0  0  0  0  0  0  0  0  0  0  0  0
  -24.6901    1.4526   27.8807 C   0  0  0  0  0  0  0  0  0  0  0  0
  -24.7379    0.6010   29.0416 C   0  0  0  0  0  0  0  0  0  0  0  0
  -25.8234   -0.1688   29.3887 C   0  0  0  0  0  0  0  0  0  0  0  0
  -29.2455   -0.0678   29.1937 C   0  0  0  0  0  0  0  0  0  0  0  0
  -30.2428   -0.7042   29.8595 C   0  0  0  0  0  0  0  0  0  0  0  0
  -30.0569   -2.0600   30.2573 C   0  0  0  0  0  0  0  0  0  0  0  0
  -28.8600   -2.6861   30.1797 C   0  0  0  0  0  0  0  0  0  0  0  0
  -27.8047   -2.0076   29.6720 C   0  0  0  0  0  0  0  0  0  0  0  0
  -26.6235   -2.5543   29.7267 F   0  0  0  0  0  0  0  0  0  0  0  0
  -23.5024    2.2162   27.5738 C   0  0  0  0  0  0  0  0  0  0  0  0
  -22.3901    1.9778   28.1230 O   0  0  0  0  0  0  0  0  0  0  0  0
  -23.5239    2.9823   26.4940 O   0  0  0  0  0  0  0  0  0  0  0  0
  -28.6330   -3.8875   30.7801 O   0  0  0  0  0  0  0  0  0  0  0  0
  -29.4855   -4.8935   30.3613 C   0  0  0  0  0  0  0  0  0  0  0  0
  -29.9068   -5.6076   31.5798 C   0  0  0  0  0  0  0  0  0  0  0  0
  -30.4265   -6.7648   31.3063 O   0  0  0  0  0  0  0  0  0  0  0  0
  -31.3364   -6.9952   30.5030 C   0  0  0  0  0  0  0  0  0  0  0  0
  -31.1524   -6.2876   29.2581 C   0  0  0  0  0  0  0  0  0  0  0  0
  -30.3451   -5.0196   29.3842 C   0  0  0  0  0  0  0  0  0  0  0  0
  1  2  1  0
 12 13  1  0
  5 14  1  0
 14 15  2  0
 14 16  1  0
 11 17  1  0
 17 18  1  0
 18 19  1  0
 19 20  1  0
 20 21  1  0
 21 22  2  0
 18 23  1  0
 22 23  1  0
  2  3  2  0
  3  4  1  0
  4  5  2  0
  5  6  1  0
  6  7  2  0
  7  2  1  0
  1  8  2  0
  8  9  1  0
  9 10  2  0
 10 11  1  0
 11 12  2  0
 12  1  1  0
M  END

$$$$
