No_4814-gen_results/8p0m/2024-11-26-14-13-15/
     RDKit          3D

 22 24  0  0  0  0  0  0  0  0999 V2000
  -28.0162   -0.8135   28.8779 C   0  0  0  0  0  0  0  0  0  0  0  0
  -28.4690   -0.7850   29.8287 C   0  0  0  0  0  0  0  0  0  0  0  0
  -28.1960    0.3478   28.0550 C   0  0  0  0  0  0  0  0  0  0  0  0
  -27.4421    0.5100   26.7946 C   0  0  0  0  0  0  0  0  0  0  0  0
  -26.1689   -0.0794   26.6787 C   0  0  0  0  0  0  0  0  0  0  0  0
  -25.7312   -0.9607   27.6875 C   0  0  0  0  0  0  0  0  0  0  0  0
  -26.5043   -1.2222   28.7582 C   0  0  0  0  0  0  0  0  0  0  0  0
  -29.6530   -0.2892   30.1660 C   0  0  0  0  0  0  0  0  0  0  0  0
  -30.0958    0.7019   29.2325 C   0  0  0  0  0  0  0  0  0  0  0  0
  -29.3946    1.0067   28.0841 C   0  0  0  0  0  0  0  0  0  0  0  0
  -25.9323   -2.2672   29.7020 C   0  0  0  0  0  0  0  0  0  0  0  0
  -26.8364   -2.8783   30.1975 F   0  0  0  0  0  0  0  0  0  0  0  0
  -25.2596   -1.6206   30.6811 F   0  0  0  0  0  0  0  0  0  0  0  0
  -24.9675   -2.9783   29.1237 F   0  0  0  0  0  0  0  0  0  0  0  0
  -29.8630    1.9352   27.1363 C   0  0  0  0  0  0  0  0  0  0  0  0
  -29.6596    3.1602   27.2863 C   0  0  0  0  0  0  0  0  0  0  0  0
  -30.5002    1.3812   25.9986 C   0  0  0  0  0  0  0  0  0  0  0  0
  -30.9008    0.0883   25.8280 C   0  0  0  0  0  0  0  0  0  0  0  0
  -31.2910   -0.4192   24.6045 C   0  0  0  0  0  0  0  0  0  0  0  0
  -31.3649    0.4141   23.5319 C   0  0  0  0  0  0  0  0  0  0  0  0
  -30.5374    2.1688   24.8064 C   0  0  0  0  0  0  0  0  0  0  0  0
  -30.9854    1.7090   23.5865 C   0  0  0  0  0  0  0  0  0  0  0  0
  7 11  1  0
 11 12  1  0
 11 13  1  0
 11 14  1  0
 10 15  1  0
 15 16  2  0
 15 17  1  0
 17 18  2  0
 18 19  1  0
 19 20  2  0
 20 22  1  0
 22 21  2  0
 21 17  1  0
  1  2  2  0
  2  8  1  0
  8  9  2  0
  9 10  1  0
 10  3  2  0
  1  3  1  0
  3  4  1  0
  4  5  2  0
  5  6  1  0
  6  7  2  0
  7  1  1  0
M  END

$$$$
