No_4004-gen_results/8p0m/2024-11-26-14-13-15/
     RDKit          3D

 35 35  0  0  0  0  0  0  0  0999 V2000
  -28.0162   -0.8135   28.8779 C   0  0  0  0  0  0  0  0  0  0  0  0
  -28.4690   -0.7850   29.8287 C   0  0  0  0  0  0  0  0  0  0  0  0
  -28.1816    0.4277   28.1134 C   0  0  0  0  0  0  0  0  0  0  0  0
  -28.9841    1.4155   28.5154 C   0  0  0  0  0  0  0  0  0  0  0  0
  -29.3802    0.1384   30.4612 C   0  0  0  0  0  0  0  0  0  0  0  0
  -29.5415    1.2736   29.7242 C   0  0  0  0  0  0  0  0  0  0  0  0
  -27.4586    0.4934   26.7701 C   0  0  0  0  0  0  0  0  0  0  0  0
  -26.3677   -0.2536   26.7330 F   0  0  0  0  0  0  0  0  0  0  0  0
  -27.0122    1.7725   26.4880 F   0  0  0  0  0  0  0  0  0  0  0  0
  -28.3935    0.0974   25.8100 F   0  0  0  0  0  0  0  0  0  0  0  0
  -30.4693    2.3145   30.2773 C   0  0  0  0  0  0  0  0  0  0  0  0
  -31.4247    2.4971   29.8083 F   0  0  0  0  0  0  0  0  0  0  0  0
  -30.0370    3.0591   31.1057 F   0  0  0  0  0  0  0  0  0  0  0  0
  -28.2598   -2.1418   30.7554 C   0  0  0  0  0  0  0  0  0  0  0  0
  -28.0427   -2.2592   31.8001 O   0  0  0  0  0  0  0  0  0  0  0  0
  -28.4614   -3.3294   30.0106 O   0  0  0  0  0  0  0  0  0  0  0  0
  -28.0816   -4.4183   30.6519 C   0  0  0  0  0  0  0  0  0  0  0  0
  -29.2875   -5.3607   30.4818 C   0  0  0  0  0  0  0  0  0  0  0  0
  -30.2572   -4.7191   31.0030 O   0  0  0  0  0  0  0  0  0  0  0  0
  -31.5133   -5.1751   30.8174 C   0  0  0  0  0  0  0  0  0  0  0  0
  -32.4898   -5.2275   31.5962 C   0  0  0  0  0  0  0  0  0  0  0  0
  -32.3855   -4.5098   32.7017 C   0  0  0  0  0  0  0  0  0  0  0  0
  -31.3705   -6.1666   29.6418 C   0  0  0  0  0  0  0  0  0  0  0  0
  -33.5225   -4.3214   33.6695 C   0  0  0  0  0  0  0  0  0  0  0  0
  -30.3188   -5.6249   28.8485 C   0  0  0  0  0  0  0  0  0  0  0  0
  -29.1984   -6.5868   31.1078 O   0  0  0  0  0  0  0  0  0  0  0  0
  -30.9105   -4.3977   28.3664 C   0  0  0  0  0  0  0  0  0  0  0  0
  -30.0528   -6.2302   27.6186 O   0  0  0  0  0  0  0  0  0  0  0  0
  -31.0542   -7.4920   30.0036 O   0  0  0  0  0  0  0  0  0  0  0  0
  -32.2184   -4.4680   27.7591 C   0  0  0  0  0  0  0  0  0  0  0  0
  -32.9297   -3.1848   27.8232 C   0  0  0  0  0  0  0  0  0  0  0  0
  -32.3057   -2.0836   28.1139 C   0  0  0  0  0  0  0  0  0  0  0  0
  -32.8717   -0.9266   28.1570 O   0  0  0  0  0  0  0  0  0  0  0  0
  -31.9283   -8.5140   29.5361 C   0  0  0  0  0  0  0  0  0  0  0  0
  -32.9757   -6.4034   31.9079 F   0  0  0  0  0  0  0  0  0  0  0  0
  3  7  1  0
  7  8  1  0
  7  9  1  0
  7 10  1  0
  6 11  1  0
 11 12  1  0
 11 13  1  0
  2 14  1  0
 14 15  2  0
 14 16  1  0
 16 17  1  0
 17 18  1  0
 18 19  1  0
 19 20  1  0
 20 21  1  0
 21 22  2  3
 20 23  1  0
 22 24  1  0
 23 25  1  0
 18 26  1  0
 25 27  1  0
 25 28  1  0
 23 29  1  0
 27 30  1  0
 30 31  1  0
 31 32  1  0
 32 33  2  0
 29 34  1  0
 21 35  1  0
  1  2  2  0
  2  5  1  0
  5  6  2  0
  6  4  1  0
  4  3  2  0
  3  1  1  0
M  END

$$$$
