No_4583-gen_results/8p0m/2024-11-26-14-13-15/
     RDKit          3D

 35 38  0  0  0  0  0  0  0  0999 V2000
  -28.0162   -0.8135   28.8779 C   0  0  0  0  0  0  0  0  0  0  0  0
  -28.4690   -0.7850   29.8287 C   0  0  0  0  0  0  0  0  0  0  0  0
  -26.5455   -0.8762   28.8500 C   0  0  0  0  0  0  0  0  0  0  0  0
  -25.8041   -1.0324   30.0571 C   0  0  0  0  0  0  0  0  0  0  0  0
  -27.9437   -0.9869   31.2075 C   0  0  0  0  0  0  0  0  0  0  0  0
  -26.5825   -1.0386   31.2231 C   0  0  0  0  0  0  0  0  0  0  0  0
  -24.3810   -1.1082   30.0855 C   0  0  0  0  0  0  0  0  0  0  0  0
  -23.6421   -1.1177   29.0487 C   0  0  0  0  0  0  0  0  0  0  0  0
  -22.4003   -0.5056   29.0274 C   0  0  0  0  0  0  0  0  0  0  0  0
  -21.6769   -0.1194   27.8941 C   0  0  0  0  0  0  0  0  0  0  0  0
  -20.4363    0.6920   28.3289 C   0  0  0  0  0  0  0  0  0  0  0  0
  -30.0892   -0.6839   29.8943 C   0  0  0  0  0  0  0  0  0  0  0  0
  -30.6890   -1.6630   30.1657 O   0  0  0  0  0  0  0  0  0  0  0  0
  -30.6139    0.4240   29.5987 O   0  0  0  0  0  0  0  0  0  0  0  0
  -23.6862   -1.1406   31.3923 C   0  0  0  0  0  0  0  0  0  0  0  0
  -22.7734   -0.6706   31.5481 N   0  0  0  0  0  0  0  0  0  0  0  0
  -21.8518   -0.2263   30.4557 C   0  0  0  0  0  0  0  0  0  0  0  0
  -31.8640    0.6014   29.1716 C   0  0  0  0  0  0  0  0  0  0  0  0
  -32.1419    0.4681   27.9025 C   0  0  0  0  0  0  0  0  0  0  0  0
  -33.1247   -0.1206   27.4736 C   0  0  0  0  0  0  0  0  0  0  0  0
  -31.1824    0.9481   26.8912 C   0  0  0  0  0  0  0  0  0  0  0  0
  -31.3473    0.7170   25.5374 C   0  0  0  0  0  0  0  0  0  0  0  0
  -33.4316   -0.3866   26.0427 C   0  0  0  0  0  0  0  0  0  0  0  0
  -32.5250    0.0832   25.1260 C   0  0  0  0  0  0  0  0  0  0  0  0
  -29.7349    1.8166   27.2852 Cl  0  0  0  0  0  0  0  0  0  0  0  0
  -30.3966    1.1865   24.5219 C   0  0  0  0  0  0  0  0  0  0  0  0
  -29.0567    0.9523   24.8441 C   0  0  0  0  0  0  0  0  0  0  0  0
  -28.1005    0.7499   24.6073 C   0  0  0  0  0  0  0  0  0  0  0  0
  -26.6676    0.4372   24.8309 C   0  0  0  0  0  0  0  0  0  0  0  0
  -25.8782    1.3015   25.5071 C   0  0  0  0  0  0  0  0  0  0  0  0
  -24.4162    0.9344   25.6308 C   0  0  0  0  0  0  0  0  0  0  0  0
  -23.5715    1.8112   26.3685 C   0  0  0  0  0  0  0  0  0  0  0  0
  -24.1304    2.9298   27.0543 C   0  0  0  0  0  0  0  0  0  0  0  0
  -25.4786    3.2904   26.8804 C   0  0  0  0  0  0  0  0  0  0  0  0
  -26.3430    2.4272   26.1927 C   0  0  0  0  0  0  0  0  0  0  0  0
  4  7  1  0
 10 11  1  0
  2 12  1  0
 12 13  2  0
 12 14  1  0
 14 18  1  0
 18 19  1  0
 21 25  1  0
 22 26  1  0
 26 27  1  0
 27 28  3  0
 28 29  1  0
 10  9  1  0
 29 30  1  0
 19 20  2  0
 20 23  1  0
 23 24  2  0
 24 22  1  0
 22 21  2  0
 21 19  1  0
  7  8  2  0
  8  9  1  0
  9 17  2  0
 17 16  1  0
 16 15  2  0
 15  7  1  0
  1  2  2  0
  2  5  1  0
  5  6  2  0
  6  4  1  0
  4  3  2  0
  3  1  1  0
 30 31  2  0
 31 32  1  0
 32 33  2  0
 33 34  1  0
 34 35  2  0
 35 30  1  0
M  END

$$$$
