No_4529-gen_results/8p0m/2024-11-26-14-13-15/
     RDKit          3D

 35 38  0  0  0  0  0  0  0  0999 V2000
  -28.0162   -0.8135   28.8779 C   0  0  0  0  0  0  0  0  0  0  0  0
  -27.0636   -0.1190   28.6079 C   0  0  0  0  0  0  0  0  0  0  0  0
  -26.9716    0.7139   27.5060 C   0  0  0  0  0  0  0  0  0  0  0  0
  -28.1053    0.7744   26.6421 C   0  0  0  0  0  0  0  0  0  0  0  0
  -29.2008    0.1044   27.0527 C   0  0  0  0  0  0  0  0  0  0  0  0
  -28.0219   -1.5899   30.0879 C   0  0  0  0  0  0  0  0  0  0  0  0
  -29.1640   -0.6394   28.1484 C   0  0  0  0  0  0  0  0  0  0  0  0
  -27.0665   -2.4543   30.3037 N   0  0  0  0  0  0  0  0  0  0  0  0
  -29.0149   -1.6588   30.8762 O   0  0  0  0  0  0  0  0  0  0  0  0
  -30.3241    0.2004   26.2303 N   0  0  0  0  0  0  0  0  0  0  0  0
  -30.3218    0.1873   24.9078 C   0  0  0  0  0  0  0  0  0  0  0  0
  -31.4935   -0.6442   26.6972 C   0  0  0  0  0  0  0  0  0  0  0  0
  -25.8404   -2.5240   29.5375 C   0  0  0  0  0  0  0  0  0  0  0  0
  -25.4796   -3.7476   28.9448 C   0  0  0  0  0  0  0  0  0  0  0  0
  -24.4011   -4.2788   29.6380 C   0  0  0  0  0  0  0  0  0  0  0  0
  -23.4340   -4.0023   29.0510 N   0  0  0  0  0  0  0  0  0  0  0  0
  -24.6239   -1.9470   30.3249 C   0  0  0  0  0  0  0  0  0  0  0  0
  -23.4191   -2.3711   29.3373 C   0  0  0  0  0  0  0  0  0  0  0  0
  -24.4639   -0.4707   30.4923 C   0  0  0  0  0  0  0  0  0  0  0  0
  -23.4310    0.2341   29.9928 C   0  0  0  0  0  0  0  0  0  0  0  0
  -23.6335    0.9581   28.8563 C   0  0  0  0  0  0  0  0  0  0  0  0
  -22.4472    1.4747   28.1432 C   0  0  0  0  0  0  0  0  0  0  0  0
  -22.6602    2.2786   26.9954 C   0  0  0  0  0  0  0  0  0  0  0  0
  -24.0215    2.4449   26.5116 C   0  0  0  0  0  0  0  0  0  0  0  0
  -24.9899    2.3285   27.2857 C   0  0  0  0  0  0  0  0  0  0  0  0
  -24.8410    1.5370   28.4666 C   0  0  0  0  0  0  0  0  0  0  0  0
  -25.8591    1.5954   27.3518 C   0  0  0  0  0  0  0  0  0  0  0  0
  -25.6626    1.2587   25.9767 F   0  0  0  0  0  0  0  0  0  0  0  0
  -25.5098    1.9441   29.8001 C   0  0  0  0  0  0  0  0  0  0  0  0
  -24.8143   -0.0484   31.9826 C   0  0  0  0  0  0  0  0  0  0  0  0
  -25.3757    3.1091   30.1721 C   0  0  0  0  0  0  0  0  0  0  0  0
  -25.9215    3.6640   31.3838 C   0  0  0  0  0  0  0  0  0  0  0  0
  -27.0918    4.3338   31.4126 C   0  0  0  0  0  0  0  0  0  0  0  0
  -27.7297    4.6151   30.3760 C   0  0  0  0  0  0  0  0  0  0  0  0
  -28.2879    5.4610   29.9849 C   0  0  0  0  0  0  0  0  0  0  0  0
  1  6  1  0
  6  8  1  0
  6  9  2  0
  5 10  1  0
 10 11  1  0
 10 12  1  0
  8 13  1  0
 17 19  1  0
 19 20  1  0
 20 21  1  0
  3 27  1  0
 25 27  1  0
 27 28  1  0
 26 29  1  0
 19 30  1  0
 29 31  2  3
 31 32  1  0
 32 33  1  0
 33 34  2  3
 34 35  1  0
  1  2  2  0
  2  3  1  0
  3  4  2  0
  4  5  1  0
  5  7  2  0
  7  1  1  0
 13 14  2  0
 14 15  1  0
 15 16  2  0
 16 18  1  0
 18 17  2  0
 17 13  1  0
 21 22  1  0
 22 23  2  0
 23 24  1  0
 24 25  2  0
 25 26  1  0
 26 21  2  0
M  END

$$$$
