No_4660-gen_results/8p0m/2024-11-26-14-13-15/
     RDKit          3D

 18 20  0  0  0  0  0  0  0  0999 V2000
  -28.0162   -0.8135   28.8779 C   0  0  0  0  0  0  0  0  0  0  0  0
  -28.4690   -0.7850   29.8287 C   0  0  0  0  0  0  0  0  0  0  0  0
  -26.5455   -0.8762   28.8500 C   0  0  0  0  0  0  0  0  0  0  0  0
  -25.6825   -0.7773   27.6829 C   0  0  0  0  0  0  0  0  0  0  0  0
  -27.9181   -1.0034   31.1877 C   0  0  0  0  0  0  0  0  0  0  0  0
  -26.5308   -1.0794   31.2463 C   0  0  0  0  0  0  0  0  0  0  0  0
  -25.7798   -1.0462   30.0905 C   0  0  0  0  0  0  0  0  0  0  0  0
  -25.9631   -0.0419   26.6947 N   0  0  0  0  0  0  0  0  0  0  0  0
  -26.8451    0.2220   26.2093 C   0  0  0  0  0  0  0  0  0  0  0  0
  -26.9035    1.1143   25.0345 C   0  0  0  0  0  0  0  0  0  0  0  0
  -24.8757    0.8422   26.1543 C   0  0  0  0  0  0  0  0  0  0  0  0
  -23.6402    1.0703   26.6957 C   0  0  0  0  0  0  0  0  0  0  0  0
  -25.5014    1.5650   25.0873 C   0  0  0  0  0  0  0  0  0  0  0  0
  -23.2212    0.6070   27.9438 C   0  0  0  0  0  0  0  0  0  0  0  0
  -22.0097    0.9067   28.5936 C   0  0  0  0  0  0  0  0  0  0  0  0
  -21.1435    1.7790   27.8322 C   0  0  0  0  0  0  0  0  0  0  0  0
  -22.7583    2.0725   26.1061 C   0  0  0  0  0  0  0  0  0  0  0  0
  -21.5443    2.3196   26.6468 C   0  0  0  0  0  0  0  0  0  0  0  0
  3  4  1  0
  4  8  1  0
  8  9  1  0
  9 10  2  0
  8 11  1  0
 11 12  1  0
 10 13  1  0
 11 13  1  0
 12 14  2  0
 14 15  1  0
 15 16  2  0
 16 18  1  0
 18 17  2  0
 17 12  1  0
  1  2  2  0
  2  5  1  0
  5  6  2  0
  6  7  1  0
  7  3  2  0
  3  1  1  0
M  END

$$$$
