No_4565-gen_results/8p0m/2024-11-26-14-13-15/
     RDKit          3D

 28 29  0  0  0  0  0  0  0  0999 V2000
  -28.0162   -0.8135   28.8779 C   0  0  0  0  0  0  0  0  0  0  0  0
  -27.0636   -0.1189   28.6079 C   0  0  0  0  0  0  0  0  0  0  0  0
  -25.7923   -0.4302   29.0761 C   0  0  0  0  0  0  0  0  0  0  0  0
  -25.5756   -1.5654   29.9363 C   0  0  0  0  0  0  0  0  0  0  0  0
  -26.7354   -2.3004   30.2173 C   0  0  0  0  0  0  0  0  0  0  0  0
  -27.9184   -1.9537   29.7629 C   0  0  0  0  0  0  0  0  0  0  0  0
  -29.0001   -2.7012   30.1151 O   0  0  0  0  0  0  0  0  0  0  0  0
  -24.5290    0.3490   28.7998 C   0  0  0  0  0  0  0  0  0  0  0  0
  -23.3442    0.0060   29.1658 C   0  0  0  0  0  0  0  0  0  0  0  0
  -22.1783    0.7811   28.7783 C   0  0  0  0  0  0  0  0  0  0  0  0
  -22.3218    1.7499   27.7727 C   0  0  0  0  0  0  0  0  0  0  0  0
  -24.6102    1.3558   27.7479 C   0  0  0  0  0  0  0  0  0  0  0  0
  -23.5148    2.0341   27.3068 C   0  0  0  0  0  0  0  0  0  0  0  0
  -29.3590   -2.8169   31.4427 C   0  0  0  0  0  0  0  0  0  0  0  0
  -29.7819   -4.1265   31.7466 C   0  0  0  0  0  0  0  0  0  0  0  0
  -29.8400   -5.0556   30.8071 C   0  0  0  0  0  0  0  0  0  0  0  0
  -29.0233   -4.5729   32.9297 N   0  0  0  0  0  0  0  0  0  0  0  0
  -30.4825   -4.8241   29.5754 C   0  0  0  0  0  0  0  0  0  0  0  0
  -30.5388   -5.8459   28.7163 O   0  0  0  0  0  0  0  0  0  0  0  0
  -31.8007   -5.9949   28.0916 C   0  0  0  0  0  0  0  0  0  0  0  0
  -32.8584   -5.6806   28.8092 C   0  0  0  0  0  0  0  0  0  0  0  0
  -33.0772   -6.1816   29.9097 C   0  0  0  0  0  0  0  0  0  0  0  0
  -32.8624   -4.2044   28.8849 O   0  0  0  0  0  0  0  0  0  0  0  0
  -31.7032   -6.7937   27.0175 F   0  0  0  0  0  0  0  0  0  0  0  0
  -33.8697   -5.4947   30.8560 C   0  0  0  0  0  0  0  0  0  0  0  0
  -33.8608   -5.9084   32.2163 C   0  0  0  0  0  0  0  0  0  0  0  0
  -34.2847   -5.0231   33.2141 C   0  0  0  0  0  0  0  0  0  0  0  0
  -34.1287   -5.2698   34.5782 C   0  0  0  0  0  0  0  0  0  0  0  0
  6  7  1  0
  3  8  1  0
  7 14  1  0
 14 15  1  0
 15 16  1  0
 15 17  1  0
 16 18  1  0
 18 19  1  0
 19 20  1  0
 20 21  1  0
 21 22  1  0
 21 23  1  0
 20 24  1  0
 22 25  1  0
 25 26  1  0
 26 27  2  3
 27 28  1  0
  1  2  2  0
  2  3  1  0
  3  4  2  0
  4  5  1  0
  5  6  2  0
  6  1  1  0
  8  9  2  0
  9 10  1  0
 10 11  2  0
 11 13  1  0
 13 12  2  0
 12  8  1  0
M  END

$$$$
