No_4786-gen_results/8p0m/2024-11-26-14-13-15/
     RDKit          3D

 16 17  0  0  0  0  0  0  0  0999 V2000
  -28.0162   -0.8135   28.8779 C   0  0  0  0  0  0  0  0  0  0  0  0
  -27.0636   -0.1189   28.6079 C   0  0  0  0  0  0  0  0  0  0  0  0
  -26.9716    0.7139   27.5060 C   0  0  0  0  0  0  0  0  0  0  0  0
  -28.1053    0.7744   26.6421 C   0  0  0  0  0  0  0  0  0  0  0  0
  -29.2008    0.1044   27.0527 C   0  0  0  0  0  0  0  0  0  0  0  0
  -29.2096   -0.6029   28.1853 C   0  0  0  0  0  0  0  0  0  0  0  0
  -30.3702    0.2264   26.1604 C   0  0  0  0  0  0  0  0  0  0  0  0
  -30.3387    0.2161   24.9661 O   0  0  0  0  0  0  0  0  0  0  0  0
  -31.5967   -0.2850   26.7546 N   0  0  0  0  0  0  0  0  0  0  0  0
  -32.7227   -0.4164   25.9287 C   0  0  0  0  0  0  0  0  0  0  0  0
  -25.7085   -0.2217   29.4293 C   0  0  0  0  0  0  0  0  0  0  0  0
  -24.8786   -1.1855   29.1854 N   0  0  0  0  0  0  0  0  0  0  0  0
  -23.7082   -1.3473   29.4057 C   0  0  0  0  0  0  0  0  0  0  0  0
  -22.9592   -0.1878   29.7887 C   0  0  0  0  0  0  0  0  0  0  0  0
  -23.7184    0.9562   30.2304 C   0  0  0  0  0  0  0  0  0  0  0  0
  -25.1014    1.0091   29.8570 C   0  0  0  0  0  0  0  0  0  0  0  0
  5  7  1  0
  7  8  2  0
  7  9  1  0
  9 10  1  0
  2 11  1  0
 11 12  2  0
 12 13  1  0
 13 14  2  0
 14 15  1  0
 15 16  2  0
 16 11  1  0
  1  2  2  0
  2  3  1  0
  3  4  2  0
  4  5  1  0
  5  6  2  0
  6  1  1  0
M  END

$$$$
