No_4750-gen_results/8p0m/2024-11-26-14-13-15/
     RDKit          3D

 32 36  0  0  0  0  0  0  0  0999 V2000
  -28.0162   -0.8135   28.8779 C   0  0  0  0  0  0  0  0  0  0  0  0
  -27.0636   -0.1190   28.6079 C   0  0  0  0  0  0  0  0  0  0  0  0
  -25.7647   -0.3897   29.0360 C   0  0  0  0  0  0  0  0  0  0  0  0
  -24.5516    0.4058   28.7646 C   0  0  0  0  0  0  0  0  0  0  0  0
  -23.2300    0.1178   29.2575 C   0  0  0  0  0  0  0  0  0  0  0  0
  -23.0942   -1.1309   29.8730 C   0  0  0  0  0  0  0  0  0  0  0  0
  -27.7981   -1.9341   29.8560 C   0  0  0  0  0  0  0  0  0  0  0  0
  -26.5420   -2.3269   30.2580 C   0  0  0  0  0  0  0  0  0  0  0  0
  -25.4514   -1.5516   29.9079 C   0  0  0  0  0  0  0  0  0  0  0  0
  -24.1562   -1.9097   30.2809 C   0  0  0  0  0  0  0  0  0  0  0  0
  -24.6450    1.6582   27.9464 C   0  0  0  0  0  0  0  0  0  0  0  0
  -24.8958    2.7559   28.5615 C   0  0  0  0  0  0  0  0  0  0  0  0
  -25.1728    3.9344   27.8440 C   0  0  0  0  0  0  0  0  0  0  0  0
  -24.4838    1.5571   26.5889 C   0  0  0  0  0  0  0  0  0  0  0  0
  -24.6321    2.6940   25.7850 C   0  0  0  0  0  0  0  0  0  0  0  0
  -24.8902    3.9231   26.4317 C   0  0  0  0  0  0  0  0  0  0  0  0
  -25.0758    2.9107   29.9068 O   0  0  0  0  0  0  0  0  0  0  0  0
  -26.2306    3.1354   30.6083 C   0  0  0  0  0  0  0  0  0  0  0  0
  -26.3258    2.3912   31.7784 C   0  0  0  0  0  0  0  0  0  0  0  0
  -26.5669    2.9786   32.7224 O   0  0  0  0  0  0  0  0  0  0  0  0
  -26.2894    1.1146   31.7044 O   0  0  0  0  0  0  0  0  0  0  0  0
  -26.3459    4.6098   30.9110 C   0  0  0  0  0  0  0  0  0  0  0  0
  -26.9026    4.7999   31.9358 C   0  0  0  0  0  0  0  0  0  0  0  0
  -26.5557    4.2467   33.1975 C   0  0  0  0  0  0  0  0  0  0  0  0
  -26.8611    5.2485   29.6796 O   0  0  0  0  0  0  0  0  0  0  0  0
  -26.8477    6.6748   32.3141 Cl  0  0  0  0  0  0  0  0  0  0  0  0
  -28.0895    5.4408   29.5460 C   0  0  0  0  0  0  0  0  0  0  0  0
  -28.4058    5.6983   28.2274 C   0  0  0  0  0  0  0  0  0  0  0  0
  -29.3888    5.5718   27.7792 C   0  0  0  0  0  0  0  0  0  0  0  0
  -30.6012    5.3087   28.5537 C   0  0  0  0  0  0  0  0  0  0  0  0
  -30.3511    5.0909   29.9251 C   0  0  0  0  0  0  0  0  0  0  0  0
  -29.0624    5.1018   30.3771 C   0  0  0  0  0  0  0  0  0  0  0  0
  4 11  1  0
 12 17  1  0
 17 18  1  0
 18 19  1  0
 19 20  1  0
 19 21  2  0
 18 22  1  0
 22 23  2  0
 20 24  1  0
 23 24  1  0
 22 25  1  0
 23 26  1  0
 25 27  1  0
 27 28  2  0
 28 29  1  0
 29 30  2  0
 30 31  1  0
 31 32  2  0
 32 27  1  0
  1  2  2  0
  2  3  1  0
  9  8  1  0
  8  7  2  0
  7  1  1  0
 11 12  1  0
 12 13  2  0
 13 16  1  0
 16 15  2  0
 15 14  1  0
 14 11  2  0
  3  4  2  0
  4  5  1  0
  5  6  2  0
  6 10  1  0
 10  9  2  0
  9  3  1  0
M  END

$$$$
