No_4938-gen_results/8p0m/2024-11-26-14-13-15/
     RDKit          3D

 29 30  0  0  0  0  0  0  0  0999 V2000
  -28.1229   -1.3353   28.4874 O   0  0  0  0  0  0  0  0  0  0  0  0
  -28.5208   -0.4363   29.0779 C   0  0  0  0  0  0  0  0  0  0  0  0
  -28.5894    0.5916   28.9464 C   0  0  0  0  0  0  0  0  0  0  0  0
  -29.3752   -0.9434   30.2659 N   0  0  0  0  0  0  0  0  0  0  0  0
  -27.5822    1.2649   28.1478 C   0  0  0  0  0  0  0  0  0  0  0  0
  -27.7778    1.5442   26.7802 C   0  0  0  0  0  0  0  0  0  0  0  0
  -26.6582    1.9013   25.8940 C   0  0  0  0  0  0  0  0  0  0  0  0
  -25.3686    2.0533   26.3890 C   0  0  0  0  0  0  0  0  0  0  0  0
  -25.1623    1.7983   27.7870 C   0  0  0  0  0  0  0  0  0  0  0  0
  -26.1930    1.3944   28.5422 C   0  0  0  0  0  0  0  0  0  0  0  0
  -29.4800   -2.3659   30.5844 C   0  0  0  0  0  0  0  0  0  0  0  0
  -23.7831    1.9159   28.3010 C   0  0  0  0  0  0  0  0  0  0  0  0
  -23.5597    1.8618   29.5622 N   0  0  0  0  0  0  0  0  0  0  0  0
  -22.7357    2.0204   27.5284 O   0  0  0  0  0  0  0  0  0  0  0  0
  -30.0291   -0.0784   31.1790 C   0  0  0  0  0  0  0  0  0  0  0  0
  -29.0380    1.3690   26.1446 C   0  0  0  0  0  0  0  0  0  0  0  0
  -29.9046    2.2739   26.2861 N   0  0  0  0  0  0  0  0  0  0  0  0
  -29.4271    0.2358   25.7025 O   0  0  0  0  0  0  0  0  0  0  0  0
  -31.2972    2.2068   25.7644 C   0  0  0  0  0  0  0  0  0  0  0  0
  -29.6380    3.6525   26.8860 C   0  0  0  0  0  0  0  0  0  0  0  0
  -30.4443   -3.0811   29.8557 C   0  0  0  0  0  0  0  0  0  0  0  0
  -31.3954   -3.7430   30.7309 Cl  0  0  0  0  0  0  0  0  0  0  0  0
  -31.1935   -2.4555   29.0714 F   0  0  0  0  0  0  0  0  0  0  0  0
  -29.7630   -4.0374   29.0909 F   0  0  0  0  0  0  0  0  0  0  0  0
  -31.0162   -0.4685   31.9652 C   0  0  0  0  0  0  0  0  0  0  0  0
  -31.7186    0.5025   32.5806 C   0  0  0  0  0  0  0  0  0  0  0  0
  -31.4498    1.8714   32.4118 C   0  0  0  0  0  0  0  0  0  0  0  0
  -30.4594    2.2555   31.4928 C   0  0  0  0  0  0  0  0  0  0  0  0
  -29.7731    1.3175   30.8677 C   0  0  0  0  0  0  0  0  0  0  0  0
  1  2  2  0
  2  3  1  0
  2  4  1  0
  3  5  1  0
  4 11  1  0
  9 12  1  0
 12 13  1  0
 12 14  2  0
  4 15  1  0
  6 16  1  0
 16 17  1  0
 16 18  2  0
 17 19  1  0
 17 20  1  0
 11 21  1  0
 21 22  1  0
 21 23  1  0
 21 24  1  0
 15 25  2  0
 25 26  1  0
 26 27  2  0
 27 28  1  0
 28 29  2  0
 29 15  1  0
  5  6  2  0
  6  7  1  0
  7  8  2  0
  8  9  1  0
  9 10  2  0
 10  5  1  0
M  END

$$$$
