No_4641-gen_results/8p0m/2024-11-26-14-13-15/
     RDKit          3D

 21 24  0  0  0  0  0  0  0  0999 V2000
  -28.0162   -0.8135   28.8779 C   0  0  0  0  0  0  0  0  0  0  0  0
  -27.0636   -0.1189   28.6079 C   0  0  0  0  0  0  0  0  0  0  0  0
  -27.0010    0.6913   27.4910 C   0  0  0  0  0  0  0  0  0  0  0  0
  -28.1373    0.7363   26.6350 C   0  0  0  0  0  0  0  0  0  0  0  0
  -29.2360    0.0765   27.0690 C   0  0  0  0  0  0  0  0  0  0  0  0
  -29.2177   -0.6429   28.1747 C   0  0  0  0  0  0  0  0  0  0  0  0
  -30.3516    0.1564   26.2430 N   0  0  0  0  0  0  0  0  0  0  0  0
  -31.4313   -0.4312   26.5996 C   0  0  0  0  0  0  0  0  0  0  0  0
  -31.4825   -1.1210   27.8409 C   0  0  0  0  0  0  0  0  0  0  0  0
  -30.4093   -1.2929   28.5803 C   0  0  0  0  0  0  0  0  0  0  0  0
  -25.7813    1.3494   27.1056 N   0  0  0  0  0  0  0  0  0  0  0  0
  -25.2152    2.2472   27.9417 C   0  0  0  0  0  0  0  0  0  0  0  0
  -23.9903    2.5836   28.1423 C   0  0  0  0  0  0  0  0  0  0  0  0
  -26.1769    3.3193   28.4942 C   0  0  0  0  0  0  0  0  0  0  0  0
  -25.7169    4.3502   29.2627 C   0  0  0  0  0  0  0  0  0  0  0  0
  -23.4094    3.6494   28.9528 C   0  0  0  0  0  0  0  0  0  0  0  0
  -24.3855    4.4767   29.5325 C   0  0  0  0  0  0  0  0  0  0  0  0
  -23.1831    1.5031   27.5413 C   0  0  0  0  0  0  0  0  0  0  0  0
  -25.2051    1.0301   25.9171 C   0  0  0  0  0  0  0  0  0  0  0  0
  -23.7207    0.8679   26.3646 C   0  0  0  0  0  0  0  0  0  0  0  0
  -21.8143    1.2837   27.8650 C   0  0  0  0  0  0  0  0  0  0  0  0
  3 11  1  0
 11 12  1  0
 13 18  1  0
 11 19  1  0
 18 20  1  0
 19 20  1  0
 18 21  1  0
  1  2  2  0
  2  3  1  0
  3  4  2  0
  4  5  1  0
  6  1  1  0
  5  6  2  0
  6 10  1  0
 10  9  2  0
  9  8  1  0
  8  7  2  0
  7  5  1  0
 12 14  2  0
 14 15  1  0
 15 17  2  0
 17 16  1  0
 16 13  2  0
 13 12  1  0
M  END

$$$$
