No_4478-gen_results/8p0m/2024-11-26-14-13-15/
     RDKit          3D

 21 23  0  0  0  0  0  0  0  0999 V2000
  -28.0162   -0.8135   28.8779 C   0  0  0  0  0  0  0  0  0  0  0  0
  -27.0636   -0.1189   28.6079 C   0  0  0  0  0  0  0  0  0  0  0  0
  -26.8756    1.1325   28.9134 C   0  0  0  0  0  0  0  0  0  0  0  0
  -27.9014    1.8066   29.6436 C   0  0  0  0  0  0  0  0  0  0  0  0
  -29.0458   -0.2316   29.7181 C   0  0  0  0  0  0  0  0  0  0  0  0
  -28.9402    1.0517   30.0597 C   0  0  0  0  0  0  0  0  0  0  0  0
  -26.0585   -0.8632   27.9084 N   0  0  0  0  0  0  0  0  0  0  0  0
  -24.9484   -1.4918   28.5838 C   0  0  0  0  0  0  0  0  0  0  0  0
  -23.8453   -1.0625   28.9262 C   0  0  0  0  0  0  0  0  0  0  0  0
  -22.9488   -1.7987   29.6891 C   0  0  0  0  0  0  0  0  0  0  0  0
  -25.4133   -2.6896   29.3014 C   0  0  0  0  0  0  0  0  0  0  0  0
  -24.5416   -3.5078   29.9044 C   0  0  0  0  0  0  0  0  0  0  0  0
  -23.3109   -2.9851   30.2254 C   0  0  0  0  0  0  0  0  0  0  0  0
  -25.7561   -0.4769   26.5451 C   0  0  0  0  0  0  0  0  0  0  0  0
  -25.6934    0.5408   26.0302 C   0  0  0  0  0  0  0  0  0  0  0  0
  -25.4905    0.7180   24.6392 C   0  0  0  0  0  0  0  0  0  0  0  0
  -25.6560   -0.5383   24.0078 C   0  0  0  0  0  0  0  0  0  0  0  0
  -25.8498   -1.3037   25.3057 C   0  0  0  0  0  0  0  0  0  0  0  0
  -30.2397   -1.0455   30.1617 C   0  0  0  0  0  0  0  0  0  0  0  0
  -30.9183   -0.5400   31.0406 O   0  0  0  0  0  0  0  0  0  0  0  0
  -30.3996   -2.1585   29.6730 O   0  0  0  0  0  0  0  0  0  0  0  0
  2  7  1  0
  7  8  1  0
  7 14  1  0
 14 15  2  0
 15 16  1  0
 16 17  2  0
 14 18  1  0
 17 18  1  0
  5 19  1  0
 19 20  2  0
 19 21  1  0
  8  9  2  0
  9 10  1  0
 10 13  2  0
 13 12  1  0
 12 11  2  0
 11  8  1  0
  1  2  2  0
  2  3  1  0
  3  4  2  0
  4  6  1  0
  6  5  2  0
  5  1  1  0
M  END

$$$$
