No_4475-gen_results/8p0m/2024-11-26-14-13-15/
     RDKit          3D

 23 26  0  0  0  0  0  0  0  0999 V2000
  -28.0544   -1.0498   28.7246 N   0  0  0  0  0  0  0  0  0  0  0  0
  -26.9659   -0.4722   28.7709 C   0  0  0  0  0  0  0  0  0  0  0  0
  -26.8762    0.8133   29.2194 C   0  0  0  0  0  0  0  0  0  0  0  0
  -25.6185    1.5510   29.2902 C   0  0  0  0  0  0  0  0  0  0  0  0
  -25.5189    2.8929   29.6441 C   0  0  0  0  0  0  0  0  0  0  0  0
  -26.7075    3.5500   30.0721 C   0  0  0  0  0  0  0  0  0  0  0  0
  -27.8674    2.8638   30.0657 C   0  0  0  0  0  0  0  0  0  0  0  0
  -27.9954    1.5592   29.6602 C   0  0  0  0  0  0  0  0  0  0  0  0
  -25.8006   -1.2187   28.8291 N   0  0  0  0  0  0  0  0  0  0  0  0
  -24.5950   -0.8774   28.3698 C   0  0  0  0  0  0  0  0  0  0  0  0
  -23.8282    0.2585   28.5988 C   0  0  0  0  0  0  0  0  0  0  0  0
  -24.2294    1.1565   28.9447 C   0  0  0  0  0  0  0  0  0  0  0  0
  -25.9038   -2.5310   29.4573 C   0  0  0  0  0  0  0  0  0  0  0  0
  -24.8931   -3.4141   29.1999 C   0  0  0  0  0  0  0  0  0  0  0  0
  -27.0193   -2.9502   30.1782 C   0  0  0  0  0  0  0  0  0  0  0  0
  -28.1911   -2.2256   30.1945 C   0  0  0  0  0  0  0  0  0  0  0  0
  -23.4273    2.4277   29.2173 C   0  0  0  0  0  0  0  0  0  0  0  0
  -24.2804    3.3812   29.6739 O   0  0  0  0  0  0  0  0  0  0  0  0
  -29.4694   -2.3879   30.6126 C   0  0  0  0  0  0  0  0  0  0  0  0
  -29.7271   -3.3674   31.2325 O   0  0  0  0  0  0  0  0  0  0  0  0
  -30.1626   -1.4331   30.5059 O   0  0  0  0  0  0  0  0  0  0  0  0
  -29.1605    3.5605   30.5069 C   0  0  0  0  0  0  0  0  0  0  0  0
  -29.2806    4.5583   30.9974 O   0  0  0  0  0  0  0  0  0  0  0  0
  1  2  1  0
  2  9  1  0
  9 10  1  0
 10 11  2  0
  4 12  1  0
 11 12  1  0
  9 13  1  0
 13 14  2  0
 13 15  1  0
  1 16  1  0
 15 16  1  0
 12 17  1  0
  5 18  1  0
 17 18  1  0
 16 19  1  0
 19 20  2  0
 19 21  1  0
  7 22  1  0
 22 23  2  0
  2  3  1  0
  3  4  2  0
  4  5  1  0
  5  6  2  0
  6  7  1  0
  7  8  2  0
  8  3  1  0
M  END

$$$$
