No_4270-gen_results/8p0m/2024-11-26-14-13-15/
     RDKit          3D

 31 33  0  0  0  0  0  0  0  0999 V2000
  -28.0162   -0.8135   28.8779 C   0  0  0  0  0  0  0  0  0  0  0  0
  -27.0636   -0.1189   28.6079 C   0  0  0  0  0  0  0  0  0  0  0  0
  -25.7923   -0.4302   29.0761 C   0  0  0  0  0  0  0  0  0  0  0  0
  -25.5756   -1.5654   29.9363 C   0  0  0  0  0  0  0  0  0  0  0  0
  -26.7354   -2.3004   30.2173 C   0  0  0  0  0  0  0  0  0  0  0  0
  -27.9184   -1.9537   29.7629 C   0  0  0  0  0  0  0  0  0  0  0  0
  -27.1057    1.1023   27.7593 C   0  0  0  0  0  0  0  0  0  0  0  0
  -27.8576    1.5309   27.2156 C   0  0  0  0  0  0  0  0  0  0  0  0
  -28.0991    2.2992   26.4301 C   0  0  0  0  0  0  0  0  0  0  0  0
  -26.9543    3.1837   26.0254 C   0  0  0  0  0  0  0  0  0  0  0  0
  -25.7574    2.8807   26.5755 C   0  0  0  0  0  0  0  0  0  0  0  0
  -25.7339    1.7924   27.4542 C   0  0  0  0  0  0  0  0  0  0  0  0
  -29.0894   -2.7408   30.1817 C   0  0  0  0  0  0  0  0  0  0  0  0
  -29.4289   -2.6156   31.2105 F   0  0  0  0  0  0  0  0  0  0  0  0
  -29.7794   -2.7296   29.2267 F   0  0  0  0  0  0  0  0  0  0  0  0
  -24.5135    3.5934   26.2997 C   0  0  0  0  0  0  0  0  0  0  0  0
  -23.4934    3.0221   26.2965 F   0  0  0  0  0  0  0  0  0  0  0  0
  -24.3170    4.6223   27.3712 F   0  0  0  0  0  0  0  0  0  0  0  0
  -24.6332    4.4305   25.2086 F   0  0  0  0  0  0  0  0  0  0  0  0
  -28.5016   -4.0909   30.1611 F   0  0  0  0  0  0  0  0  0  0  0  0
  -29.3270    2.7723   25.6513 C   0  0  0  0  0  0  0  0  0  0  0  0
  -30.3071    3.4425   26.3450 C   0  0  0  0  0  0  0  0  0  0  0  0
  -31.5542    3.8219   25.7184 C   0  0  0  0  0  0  0  0  0  0  0  0
  -31.7677    3.4251   24.3815 C   0  0  0  0  0  0  0  0  0  0  0  0
  -30.7760    2.7170   23.7028 C   0  0  0  0  0  0  0  0  0  0  0  0
  -29.5625    2.3947   24.3219 C   0  0  0  0  0  0  0  0  0  0  0  0
  -32.9391    3.6660   23.5136 C   0  0  0  0  0  0  0  0  0  0  0  0
  -33.7528    4.6504   23.8658 N   0  0  0  0  0  0  0  0  0  0  0  0
  -34.1954    4.9060   24.8846 C   0  0  0  0  0  0  0  0  0  0  0  0
  -35.6140    5.2216   25.0500 C   0  0  0  0  0  0  0  0  0  0  0  0
  -36.3424    5.4838   23.9798 C   0  0  0  0  0  0  0  0  0  0  0  0
  2  7  1  0
  6 13  1  0
 13 14  1  0
 13 15  1  0
 11 16  1  0
 16 17  1  0
 16 18  1  0
 16 19  1  0
 13 20  1  0
  9 21  1  0
 24 27  1  0
 27 28  1  0
 28 29  2  3
 29 30  1  0
 30 31  2  0
  1  2  2  0
  2  3  1  0
  3  4  2  0
  4  5  1  0
  5  6  2  0
  6  1  1  0
  7  8  2  0
  8  9  1  0
  9 10  2  0
 10 11  1  0
 11 12  2  0
 12  7  1  0
 21 22  2  0
 22 23  1  0
 23 24  2  0
 24 25  1  0
 25 26  2  0
 26 21  1  0
M  END

$$$$
