No_4990-gen_results/8p0m/2024-11-26-14-13-15/
     RDKit          3D

 22 23  0  0  0  0  0  0  0  0999 V2000
  -28.0162   -0.8135   28.8779 C   0  0  0  0  0  0  0  0  0  0  0  0
  -27.0636   -0.1189   28.6079 C   0  0  0  0  0  0  0  0  0  0  0  0
  -25.7647   -0.3897   29.0360 C   0  0  0  0  0  0  0  0  0  0  0  0
  -24.5516    0.4058   28.7646 C   0  0  0  0  0  0  0  0  0  0  0  0
  -24.6957    1.4480   27.7988 C   0  0  0  0  0  0  0  0  0  0  0  0
  -25.9755    1.7250   27.3077 C   0  0  0  0  0  0  0  0  0  0  0  0
  -27.0718    1.0134   27.6535 C   0  0  0  0  0  0  0  0  0  0  0  0
  -29.1869   -0.1649   29.1026 N   0  0  0  0  0  0  0  0  0  0  0  0
  -23.4964    2.1689   27.4760 C   0  0  0  0  0  0  0  0  0  0  0  0
  -23.5395    3.1311   26.7104 O   0  0  0  0  0  0  0  0  0  0  0  0
  -22.2919    1.7826   27.8591 O   0  0  0  0  0  0  0  0  0  0  0  0
  -29.6633    0.1047   30.2609 C   0  0  0  0  0  0  0  0  0  0  0  0
  -30.2396   -0.5663   28.0827 C   0  0  0  0  0  0  0  0  0  0  0  0
  -30.4968    0.4084   27.1109 C   0  0  0  0  0  0  0  0  0  0  0  0
  -30.5367   -0.1708   26.0184 F   0  0  0  0  0  0  0  0  0  0  0  0
  -29.5414    1.3033   26.9516 F   0  0  0  0  0  0  0  0  0  0  0  0
  -31.4660    1.1530   27.3562 F   0  0  0  0  0  0  0  0  0  0  0  0
  -29.6711    0.9480   30.9220 C   0  0  0  0  0  0  0  0  0  0  0  0
  -29.9192   -1.1695   30.9730 C   0  0  0  0  0  0  0  0  0  0  0  0
  -30.1082    1.2127   32.2175 C   0  0  0  0  0  0  0  0  0  0  0  0
  -30.4210   -1.1022   32.3212 C   0  0  0  0  0  0  0  0  0  0  0  0
  -30.4652    0.0983   32.9508 C   0  0  0  0  0  0  0  0  0  0  0  0
  1  8  1  0
  5  9  1  0
  9 10  2  0
  9 11  1  0
  8 12  1  0
  8 13  1  0
 13 14  1  0
 14 15  1  0
 14 16  1  0
 14 17  1  0
  1  2  1  0
 12 18  2  0
 18 20  1  0
 20 22  2  0
 22 21  1  0
 21 19  2  0
 19 12  1  0
  2  3  2  0
  3  4  1  0
  4  5  2  0
  5  6  1  0
  6  7  2  0
  7  2  1  0
M  END

$$$$
