No_4144-gen_results/8p0m/2024-11-26-14-13-15/
     RDKit          3D

 24 24  0  0  0  0  0  0  0  0999 V2000
  -28.0162   -0.8135   28.8779 C   0  0  0  0  0  0  0  0  0  0  0  0
  -27.0636   -0.1190   28.6079 C   0  0  0  0  0  0  0  0  0  0  0  0
  -26.9287    1.1713   29.0083 C   0  0  0  0  0  0  0  0  0  0  0  0
  -25.7702    2.0341   28.6884 C   0  0  0  0  0  0  0  0  0  0  0  0
  -24.7141    1.4431   27.9188 C   0  0  0  0  0  0  0  0  0  0  0  0
  -24.8590    0.0783   27.5836 C   0  0  0  0  0  0  0  0  0  0  0  0
  -25.9647   -0.6606   27.9164 C   0  0  0  0  0  0  0  0  0  0  0  0
  -27.9820   -1.6112   30.1028 N   0  0  0  0  0  0  0  0  0  0  0  0
  -23.5351    2.1704   27.5550 C   0  0  0  0  0  0  0  0  0  0  0  0
  -22.3779    2.1928   27.8323 N   0  0  0  0  0  0  0  0  0  0  0  0
  -23.8393    3.0014   26.2966 C   0  0  0  0  0  0  0  0  0  0  0  0
  -29.2004   -0.6074   28.4823 O   0  0  0  0  0  0  0  0  0  0  0  0
  -29.0505   -2.4959   30.5716 C   0  0  0  0  0  0  0  0  0  0  0  0
  -26.6794   -2.3262   30.3031 C   0  0  0  0  0  0  0  0  0  0  0  0
  -28.8511   -3.7472   30.7586 C   0  0  0  0  0  0  0  0  0  0  0  0
  -29.8343   -4.2013   31.5161 F   0  0  0  0  0  0  0  0  0  0  0  0
  -28.5247   -4.7068   30.2091 F   0  0  0  0  0  0  0  0  0  0  0  0
  -21.5271    1.0585   28.2005 C   0  0  0  0  0  0  0  0  0  0  0  0
  -22.1469   -0.0927   28.7775 C   0  0  0  0  0  0  0  0  0  0  0  0
  -25.7097    3.2476   28.9989 F   0  0  0  0  0  0  0  0  0  0  0  0
  -22.5672    0.0716   30.2179 C   0  0  0  0  0  0  0  0  0  0  0  0
  -23.2740   -1.0876   30.7838 C   0  0  0  0  0  0  0  0  0  0  0  0
  -23.3802   -2.0608   30.1060 F   0  0  0  0  0  0  0  0  0  0  0  0
  -24.5872   -0.6535   31.1323 F   0  0  0  0  0  0  0  0  0  0  0  0
  1  2  1  0
  1  8  1  0
  5  9  1  0
  9 10  1  0
  9 11  1  0
  1 12  2  0
  8 13  1  0
  8 14  1  0
 13 15  2  3
 15 16  1  0
 15 17  1  0
 10 18  1  0
 18 19  1  0
  4 20  1  0
 19 21  1  0
 21 22  2  3
 22 23  1  0
 22 24  1  0
  2  3  2  0
  3  4  1  0
  4  5  2  0
  5  6  1  0
  6  7  2  0
  7  2  1  0
M  END

$$$$
