No_4381-gen_results/8p0m/2024-11-26-14-13-15/
     RDKit          3D

 20 21  0  0  0  0  0  0  0  0999 V2000
  -28.0162   -0.8135   28.8779 C   0  0  0  0  0  0  0  0  0  0  0  0
  -27.0636   -0.1190   28.6079 C   0  0  0  0  0  0  0  0  0  0  0  0
  -25.7923   -0.4302   29.0761 C   0  0  0  0  0  0  0  0  0  0  0  0
  -25.5756   -1.5654   29.9363 C   0  0  0  0  0  0  0  0  0  0  0  0
  -26.7354   -2.3004   30.2173 C   0  0  0  0  0  0  0  0  0  0  0  0
  -27.9184   -1.9537   29.7629 C   0  0  0  0  0  0  0  0  0  0  0  0
  -27.1057    1.1023   27.7593 C   0  0  0  0  0  0  0  0  0  0  0  0
  -26.7157    2.2350   27.9945 C   0  0  0  0  0  0  0  0  0  0  0  0
  -26.6928    3.3459   27.0337 C   0  0  0  0  0  0  0  0  0  0  0  0
  -27.1962    3.0779   25.7437 C   0  0  0  0  0  0  0  0  0  0  0  0
  -27.5814    0.8882   26.3714 C   0  0  0  0  0  0  0  0  0  0  0  0
  -27.6131    1.8443   25.4645 C   0  0  0  0  0  0  0  0  0  0  0  0
  -29.0617   -2.7801   30.2115 C   0  0  0  0  0  0  0  0  0  0  0  0
  -29.4077   -2.6709   31.1941 F   0  0  0  0  0  0  0  0  0  0  0  0
  -28.6475   -3.8949   29.6143 F   0  0  0  0  0  0  0  0  0  0  0  0
  -30.1340   -2.4945   29.3889 F   0  0  0  0  0  0  0  0  0  0  0  0
  -28.1344    1.5848   24.1177 C   0  0  0  0  0  0  0  0  0  0  0  0
  -29.4338    1.2098   24.3575 F   0  0  0  0  0  0  0  0  0  0  0  0
  -27.4579    0.5793   23.5765 F   0  0  0  0  0  0  0  0  0  0  0  0
  -28.1527    2.5882   23.2638 F   0  0  0  0  0  0  0  0  0  0  0  0
  2  7  1  0
  6 13  1  0
 13 14  1  0
 13 15  1  0
 13 16  1  0
 12 17  1  0
 17 18  1  0
 17 19  1  0
 17 20  1  0
  7  8  2  0
  8  9  1  0
  9 10  2  0
 10 12  1  0
 12 11  2  0
 11  7  1  0
  1  2  2  0
  2  3  1  0
  3  4  2  0
  4  5  1  0
  5  6  2  0
  6  1  1  0
M  END

$$$$
