No_4772-gen_results/8p0m/2024-11-26-14-13-15/
     RDKit          3D

 22 23  0  0  0  0  0  0  0  0999 V2000
  -28.0162   -0.8135   28.8779 C   0  0  0  0  0  0  0  0  0  0  0  0
  -28.4690   -0.7850   29.8287 C   0  0  0  0  0  0  0  0  0  0  0  0
  -27.0871    0.2903   28.6377 C   0  0  0  0  0  0  0  0  0  0  0  0
  -26.2516    0.4114   27.4223 C   0  0  0  0  0  0  0  0  0  0  0  0
  -28.3913    0.1041   30.9805 C   0  0  0  0  0  0  0  0  0  0  0  0
  -27.5332    1.1666   30.7866 C   0  0  0  0  0  0  0  0  0  0  0  0
  -26.8219    1.2845   29.6657 C   0  0  0  0  0  0  0  0  0  0  0  0
  -26.8899    0.3314   25.9958 Cl  0  0  0  0  0  0  0  0  0  0  0  0
  -24.8057    0.5343   27.5743 C   0  0  0  0  0  0  0  0  0  0  0  0
  -24.2104    1.6596   26.9602 C   0  0  0  0  0  0  0  0  0  0  0  0
  -22.7700    1.7577   27.1254 C   0  0  0  0  0  0  0  0  0  0  0  0
  -22.1428    0.9603   28.0869 C   0  0  0  0  0  0  0  0  0  0  0  0
  -24.1398   -0.2066   28.5490 C   0  0  0  0  0  0  0  0  0  0  0  0
  -22.7670    0.0167   28.8082 C   0  0  0  0  0  0  0  0  0  0  0  0
  -20.8421    1.1888   28.3149 O   0  0  0  0  0  0  0  0  0  0  0  0
  -29.4790   -2.0058   30.2409 C   0  0  0  0  0  0  0  0  0  0  0  0
  -30.0533   -1.9601   31.3216 O   0  0  0  0  0  0  0  0  0  0  0  0
  -29.7572   -2.7860   29.3572 O   0  0  0  0  0  0  0  0  0  0  0  0
  -27.3560    2.1580   31.8957 C   0  0  0  0  0  0  0  0  0  0  0  0
  -27.8638    3.0919   31.7988 F   0  0  0  0  0  0  0  0  0  0  0  0
  -25.9596    2.3872   31.9836 F   0  0  0  0  0  0  0  0  0  0  0  0
  -27.5909    1.4945   33.0781 F   0  0  0  0  0  0  0  0  0  0  0  0
  3  4  1  0
  4  8  1  0
  4  9  1  0
 12 15  1  0
  2 16  1  0
 16 17  2  0
 16 18  1  0
  6 19  1  0
 19 20  1  0
 19 21  1  0
 19 22  1  0
  1  2  2  0
  2  5  1  0
  5  6  2  0
  6  7  1  0
  7  3  2  0
  3  1  1  0
  9 10  2  0
 10 11  1  0
 11 12  2  0
 12 14  1  0
 14 13  2  0
 13  9  1  0
M  END

$$$$
