No_4250-gen_results/8p0m/2024-11-26-14-13-15/
     RDKit          3D

 26 28  0  0  0  0  0  0  0  0999 V2000
  -28.0162   -0.8135   28.8779 C   0  0  0  0  0  0  0  0  0  0  0  0
  -27.0636   -0.1189   28.6079 C   0  0  0  0  0  0  0  0  0  0  0  0
  -25.7647   -0.3897   29.0360 C   0  0  0  0  0  0  0  0  0  0  0  0
  -25.5296   -1.5302   29.9014 C   0  0  0  0  0  0  0  0  0  0  0  0
  -26.6888   -2.2893   30.1810 C   0  0  0  0  0  0  0  0  0  0  0  0
  -27.8727   -1.9508   29.7373 C   0  0  0  0  0  0  0  0  0  0  0  0
  -28.9304   -2.7298   30.1154 O   0  0  0  0  0  0  0  0  0  0  0  0
  -24.4178    0.2270   28.7824 C   0  0  0  0  0  0  0  0  0  0  0  0
  -24.3425    1.2461   27.8468 C   0  0  0  0  0  0  0  0  0  0  0  0
  -23.0535    1.8186   27.5739 C   0  0  0  0  0  0  0  0  0  0  0  0
  -21.8625    1.2945   28.1724 C   0  0  0  0  0  0  0  0  0  0  0  0
  -23.2178   -0.2537   29.3103 C   0  0  0  0  0  0  0  0  0  0  0  0
  -21.9535    0.2987   29.0069 C   0  0  0  0  0  0  0  0  0  0  0  0
  -28.7912   -3.9922   30.6444 C   0  0  0  0  0  0  0  0  0  0  0  0
  -28.8386   -4.9816   29.8553 C   0  0  0  0  0  0  0  0  0  0  0  0
  -30.0802   -5.0585   29.3553 O   0  0  0  0  0  0  0  0  0  0  0  0
  -31.0570   -5.7278   29.9587 C   0  0  0  0  0  0  0  0  0  0  0  0
  -31.9356   -6.1464   29.1595 C   0  0  0  0  0  0  0  0  0  0  0  0
  -33.0304   -6.9118   29.6116 C   0  0  0  0  0  0  0  0  0  0  0  0
  -33.1852   -7.0560   31.0158 C   0  0  0  0  0  0  0  0  0  0  0  0
  -32.2221   -6.5361   31.8241 C   0  0  0  0  0  0  0  0  0  0  0  0
  -31.1241   -5.8616   31.3475 C   0  0  0  0  0  0  0  0  0  0  0  0
  -31.9038   -6.0557   27.6676 C   0  0  0  0  0  0  0  0  0  0  0  0
  -31.6471   -7.0601   26.9052 C   0  0  0  0  0  0  0  0  0  0  0  0
  -32.0666   -4.7319   27.1413 C   0  0  0  0  0  0  0  0  0  0  0  0
  -31.7156   -3.7337   27.7178 O   0  0  0  0  0  0  0  0  0  0  0  0
  6  7  1  0
  3  8  1  0
  7 14  1  0
 14 15  1  0
 15 16  1  0
 16 17  1  0
 18 23  1  0
 23 24  1  0
 23 25  1  0
 25 26  2  0
 17 18  2  0
 18 19  1  0
 19 20  2  0
 20 21  1  0
 21 22  2  0
 22 17  1  0
  1  2  2  0
  2  3  1  0
  3  4  2  0
  4  5  1  0
  5  6  2  0
  6  1  1  0
  8  9  2  0
  9 10  1  0
 10 11  2  0
 11 13  1  0
 13 12  2  0
 12  8  1  0
M  END

$$$$
