No_4261-gen_results/8p0m/2024-11-26-14-13-15/
     RDKit          3D

 21 22  0  0  0  0  0  0  0  0999 V2000
  -28.0162   -0.8135   28.8779 C   0  0  0  0  0  0  0  0  0  0  0  0
  -27.0636   -0.1189   28.6079 C   0  0  0  0  0  0  0  0  0  0  0  0
  -27.0010    0.6913   27.4910 C   0  0  0  0  0  0  0  0  0  0  0  0
  -25.8548    1.4825   27.0830 C   0  0  0  0  0  0  0  0  0  0  0  0
  -24.6901    1.4526   27.8807 C   0  0  0  0  0  0  0  0  0  0  0  0
  -24.7379    0.6010   29.0416 C   0  0  0  0  0  0  0  0  0  0  0  0
  -25.8234   -0.1688   29.3887 C   0  0  0  0  0  0  0  0  0  0  0  0
  -27.8182   -1.9960   29.2551 F   0  0  0  0  0  0  0  0  0  0  0  0
  -29.2114   -0.4631   28.7491 F   0  0  0  0  0  0  0  0  0  0  0  0
  -23.3299    2.3465   27.5301 Cl  0  0  0  0  0  0  0  0  0  0  0  0
  -23.2580    0.5226   30.0008 Cl  0  0  0  0  0  0  0  0  0  0  0  0
  -28.0292    0.7701   26.6616 O   0  0  0  0  0  0  0  0  0  0  0  0
  -28.6860    1.8310   26.5081 C   0  0  0  0  0  0  0  0  0  0  0  0
  -29.3639    1.8908   25.3689 C   0  0  0  0  0  0  0  0  0  0  0  0
  -30.5921    1.2205   25.5097 C   0  0  0  0  0  0  0  0  0  0  0  0
  -31.0738    0.7764   26.3348 C   0  0  0  0  0  0  0  0  0  0  0  0
  -32.3613   -0.0364   26.4293 C   0  0  0  0  0  0  0  0  0  0  0  0
  -32.8815   -0.2861   25.1583 C   0  0  0  0  0  0  0  0  0  0  0  0
  -32.3105    0.1380   23.9789 C   0  0  0  0  0  0  0  0  0  0  0  0
  -31.2100    0.8990   24.0738 C   0  0  0  0  0  0  0  0  0  0  0  0
  -28.6799    2.8171   27.3628 O   0  0  0  0  0  0  0  0  0  0  0  0
  1  2  1  0
  1  8  1  0
  1  9  1  0
  5 10  1  0
  6 11  1  0
  3 12  1  0
 12 13  1  0
 13 14  1  0
 14 15  1  0
 13 21  2  0
 15 16  2  0
 16 17  1  0
 17 18  2  0
 18 19  1  0
 19 20  2  0
 20 15  1  0
  2  3  2  0
  3  4  1  0
  4  5  2  0
  5  6  1  0
  6  7  2  0
  7  2  1  0
M  END

$$$$
