No_4831-gen_results/8p0m/2024-11-26-14-13-15/
     RDKit          3D

 25 27  0  0  0  0  0  0  0  0999 V2000
  -28.0544   -1.0498   28.7246 N   0  0  0  0  0  0  0  0  0  0  0  0
  -26.9659   -0.4722   28.7709 C   0  0  0  0  0  0  0  0  0  0  0  0
  -25.9289   -1.0196   29.5059 C   0  0  0  0  0  0  0  0  0  0  0  0
  -26.0392   -2.3100   29.9652 C   0  0  0  0  0  0  0  0  0  0  0  0
  -27.3097   -2.8081   30.1726 C   0  0  0  0  0  0  0  0  0  0  0  0
  -28.3055   -2.2717   29.3674 C   0  0  0  0  0  0  0  0  0  0  0  0
  -26.7897    0.7257   28.1988 O   0  0  0  0  0  0  0  0  0  0  0  0
  -29.2526   -0.3735   28.1735 C   0  0  0  0  0  0  0  0  0  0  0  0
  -30.3416   -0.1894   28.9776 C   0  0  0  0  0  0  0  0  0  0  0  0
  -31.4848   -0.0058   28.3484 C   0  0  0  0  0  0  0  0  0  0  0  0
  -31.4636    0.0991   26.9803 C   0  0  0  0  0  0  0  0  0  0  0  0
  -30.3596    0.2055   26.4044 C   0  0  0  0  0  0  0  0  0  0  0  0
  -29.1792   -0.2378   26.8214 C   0  0  0  0  0  0  0  0  0  0  0  0
  -24.5033   -0.4740   29.3929 C   0  0  0  0  0  0  0  0  0  0  0  0
  -24.0595    0.0992   28.5861 C   0  0  0  0  0  0  0  0  0  0  0  0
  -22.7092    0.6153   28.5580 C   0  0  0  0  0  0  0  0  0  0  0  0
  -22.0801   -0.1564   29.5256 N   0  0  0  0  0  0  0  0  0  0  0  0
  -23.3641   -0.9888   30.1981 C   0  0  0  0  0  0  0  0  0  0  0  0
  -21.8702    1.4237   27.8074 C   0  0  0  0  0  0  0  0  0  0  0  0
  -22.3791    1.8795   26.6740 O   0  0  0  0  0  0  0  0  0  0  0  0
  -23.6530    1.9776   26.5027 C   0  0  0  0  0  0  0  0  0  0  0  0
  -30.2773   -0.4925   30.3094 O   0  0  0  0  0  0  0  0  0  0  0  0
  -30.0312    0.5521   31.1224 C   0  0  0  0  0  0  0  0  0  0  0  0
  -30.4964    1.5738   31.0999 C   0  0  0  0  0  0  0  0  0  0  0  0
  -30.1630    2.6478   31.9873 C   0  0  0  0  0  0  0  0  0  0  0  0
  1  2  1  0
  2  3  1  0
  3  4  1  0
  4  5  1  0
  1  6  1  0
  5  6  1  0
  2  7  2  0
  1  8  1  0
  3 14  1  0
 14 15  1  0
 15 16  2  0
 16 17  1  0
 14 18  1  0
 17 18  1  0
 16 19  1  0
 19 20  1  0
 20 21  1  0
  9 22  1  0
 22 23  1  0
 23 24  2  3
 24 25  1  0
  8  9  2  0
  9 10  1  0
 10 11  2  0
 11 12  1  0
 12 13  2  0
 13  8  1  0
M  END

$$$$
