No_4519-gen_results/8p0m/2024-11-26-14-13-15/
     RDKit          3D

 19 19  0  0  0  0  0  0  0  0999 V2000
  -28.0162   -0.8135   28.8779 C   0  0  0  0  0  0  0  0  0  0  0  0
  -28.4690   -0.7850   29.8287 C   0  0  0  0  0  0  0  0  0  0  0  0
  -28.1816    0.4277   28.1134 C   0  0  0  0  0  0  0  0  0  0  0  0
  -27.4498    0.6435   26.8500 C   0  0  0  0  0  0  0  0  0  0  0  0
  -26.1815    0.0357   26.7145 C   0  0  0  0  0  0  0  0  0  0  0  0
  -25.7530   -0.9101   27.6815 C   0  0  0  0  0  0  0  0  0  0  0  0
  -26.5502   -1.2250   28.7228 C   0  0  0  0  0  0  0  0  0  0  0  0
  -28.5409   -1.9553   30.6018 O   0  0  0  0  0  0  0  0  0  0  0  0
  -29.5030    0.0626   30.3884 N   0  0  0  0  0  0  0  0  0  0  0  0
  -30.3569   -0.1787   31.5027 C   0  0  0  0  0  0  0  0  0  0  0  0
  -27.7837    1.6247   25.8614 C   0  0  0  0  0  0  0  0  0  0  0  0
  -27.1551    2.5971   25.9026 F   0  0  0  0  0  0  0  0  0  0  0  0
  -29.1150    2.0039   26.0752 F   0  0  0  0  0  0  0  0  0  0  0  0
  -27.8036    1.0095   24.6441 F   0  0  0  0  0  0  0  0  0  0  0  0
  -31.3870    0.5301   31.4860 C   0  0  0  0  0  0  0  0  0  0  0  0
  -32.3970    0.4518   32.2033 C   0  0  0  0  0  0  0  0  0  0  0  0
  -33.5651    1.2540   32.1280 C   0  0  0  0  0  0  0  0  0  0  0  0
  -33.5601    2.2505   31.1339 C   0  0  0  0  0  0  0  0  0  0  0  0
  -32.5321    2.4097   30.2822 C   0  0  0  0  0  0  0  0  0  0  0  0
  1  2  1  0
  2  8  2  0
  2  9  1  0
  9 10  1  0
  4 11  1  0
 11 12  1  0
 11 13  1  0
 11 14  1  0
 10 15  2  3
 15 16  1  0
 16 17  2  3
 17 18  1  0
 18 19  2  0
  1  3  2  0
  3  4  1  0
  4  5  2  0
  5  6  1  0
  6  7  2  0
  7  1  1  0
M  END

$$$$
