No_4674-gen_results/8p0m/2024-11-26-14-13-15/
     RDKit          3D

 21 23  0  0  0  0  0  0  0  0999 V2000
  -28.0162   -0.8135   28.8779 C   0  0  0  0  0  0  0  0  0  0  0  0
  -28.4690   -0.7850   29.8287 C   0  0  0  0  0  0  0  0  0  0  0  0
  -27.0871    0.2903   28.6377 C   0  0  0  0  0  0  0  0  0  0  0  0
  -26.8317    1.2487   29.5869 C   0  0  0  0  0  0  0  0  0  0  0  0
  -28.3914    0.0801   31.0065 C   0  0  0  0  0  0  0  0  0  0  0  0
  -27.4940    1.1521   30.7841 C   0  0  0  0  0  0  0  0  0  0  0  0
  -26.3109    0.3917   27.3640 C   0  0  0  0  0  0  0  0  0  0  0  0
  -24.9686    0.2477   27.4806 C   0  0  0  0  0  0  0  0  0  0  0  0
  -24.2490   -0.0471   28.6523 C   0  0  0  0  0  0  0  0  0  0  0  0
  -22.8336    0.1271   28.6599 C   0  0  0  0  0  0  0  0  0  0  0  0
  -22.2217    1.0291   27.7525 C   0  0  0  0  0  0  0  0  0  0  0  0
  -22.9750    1.5276   26.6701 C   0  0  0  0  0  0  0  0  0  0  0  0
  -24.3609    1.2906   26.6528 C   0  0  0  0  0  0  0  0  0  0  0  0
  -26.9616    0.1976   26.1708 C   0  0  0  0  0  0  0  0  0  0  0  0
  -27.7633    1.0120   25.6155 C   0  0  0  0  0  0  0  0  0  0  0  0
  -28.3905    0.8064   24.3617 C   0  0  0  0  0  0  0  0  0  0  0  0
  -29.5552    1.5483   24.0112 C   0  0  0  0  0  0  0  0  0  0  0  0
  -29.9621    2.6410   24.8282 C   0  0  0  0  0  0  0  0  0  0  0  0
  -29.2986    2.9978   25.9800 C   0  0  0  0  0  0  0  0  0  0  0  0
  -28.3264    2.1530   26.4633 C   0  0  0  0  0  0  0  0  0  0  0  0
  -20.9351    1.3464   27.8831 O   0  0  0  0  0  0  0  0  0  0  0  0
  3  7  1  0
  7 14  1  0
 11 21  1  0
  7  8  1  0
 14 15  1  0
 15 16  2  0
 16 17  1  0
 17 18  2  0
 18 19  1  0
 19 20  2  0
 20 15  1  0
  8  9  2  0
  9 10  1  0
 10 11  2  0
 11 12  1  0
 12 13  2  0
 13  8  1  0
  1  2  2  0
  2  5  1  0
  5  6  2  0
  6  4  1  0
  4  3  2  0
  3  1  1  0
M  END

$$$$
