No_4009-gen_results/8p0m/2024-11-26-14-13-15/
     RDKit          3D

 21 22  0  0  0  0  0  0  0  0999 V2000
  -28.0162   -0.8135   28.8779 C   0  0  0  0  0  0  0  0  0  0  0  0
  -27.0636   -0.1189   28.6079 C   0  0  0  0  0  0  0  0  0  0  0  0
  -25.7923   -0.4302   29.0761 C   0  0  0  0  0  0  0  0  0  0  0  0
  -25.5756   -1.5654   29.9363 C   0  0  0  0  0  0  0  0  0  0  0  0
  -26.7354   -2.3004   30.2173 C   0  0  0  0  0  0  0  0  0  0  0  0
  -27.9184   -1.9537   29.7629 C   0  0  0  0  0  0  0  0  0  0  0  0
  -29.0001   -2.7012   30.1151 O   0  0  0  0  0  0  0  0  0  0  0  0
  -24.3499    0.4889   28.7497 Cl  0  0  0  0  0  0  0  0  0  0  0  0
  -28.8837   -3.9432   30.5986 C   0  0  0  0  0  0  0  0  0  0  0  0
  -30.1111   -4.6911   30.6199 C   0  0  0  0  0  0  0  0  0  0  0  0
  -31.2186   -4.2597   31.3467 Cl  0  0  0  0  0  0  0  0  0  0  0  0
  -29.7873   -6.1114   30.9507 N   0  0  0  0  0  0  0  0  0  0  0  0
  -27.3001    0.9909   27.8537 O   0  0  0  0  0  0  0  0  0  0  0  0
  -27.6896    0.9624   26.6070 C   0  0  0  0  0  0  0  0  0  0  0  0
  -30.6061   -6.7979   31.8512 C   0  0  0  0  0  0  0  0  0  0  0  0
  -30.8489   -8.1261   31.4670 C   0  0  0  0  0  0  0  0  0  0  0  0
  -30.8329   -8.4470   30.2350 N   0  0  0  0  0  0  0  0  0  0  0  0
  -30.9921   -9.7644   29.7767 C   0  0  0  0  0  0  0  0  0  0  0  0
  -31.0715  -10.7411   30.7743 C   0  0  0  0  0  0  0  0  0  0  0  0
  -30.8852   -9.2310   32.3923 C   0  0  0  0  0  0  0  0  0  0  0  0
  -31.0357  -10.4584   32.0541 N   0  0  0  0  0  0  0  0  0  0  0  0
  6  7  1  0
  3  8  1  0
  7  9  1  0
  9 10  1  0
 10 11  1  0
 10 12  1  0
  2 13  1  0
 13 14  1  0
 12 15  1  0
 15 16  1  0
  1  2  2  0
  2  3  1  0
  3  4  2  0
  4  5  1  0
  5  6  2  0
  6  1  1  0
 16 17  2  0
 17 18  1  0
 18 19  2  0
 19 21  1  0
 21 20  2  0
 20 16  1  0
M  END

$$$$
