No_450-gen_results/8p0m/2024-11-26-14-13-15/
     RDKit          3D

 20 22  0  0  0  0  0  0  0  0999 V2000
  -28.0162   -0.8135   28.8779 C   0  0  0  0  0  0  0  0  0  0  0  0
  -27.0636   -0.1189   28.6079 C   0  0  0  0  0  0  0  0  0  0  0  0
  -26.9716    0.7139   27.5060 C   0  0  0  0  0  0  0  0  0  0  0  0
  -25.8205    1.4910   27.1160 C   0  0  0  0  0  0  0  0  0  0  0  0
  -24.6562    1.4242   27.9180 C   0  0  0  0  0  0  0  0  0  0  0  0
  -24.6847    0.5901   29.0659 C   0  0  0  0  0  0  0  0  0  0  0  0
  -25.8099   -0.1265   29.3338 C   0  0  0  0  0  0  0  0  0  0  0  0
  -29.2185   -0.0422   29.3127 C   0  0  0  0  0  0  0  0  0  0  0  0
  -29.4677    0.4519   30.4667 Cl  0  0  0  0  0  0  0  0  0  0  0  0
  -30.0859   -0.0715   28.2679 F   0  0  0  0  0  0  0  0  0  0  0  0
  -23.4917    2.2406   27.6198 C   0  0  0  0  0  0  0  0  0  0  0  0
  -22.4964    2.1925   28.4989 N   0  0  0  0  0  0  0  0  0  0  0  0
  -23.3995    2.8979   26.5778 O   0  0  0  0  0  0  0  0  0  0  0  0
  -25.7066   -1.0161   30.5440 C   0  0  0  0  0  0  0  0  0  0  0  0
  -24.4949   -1.3099   30.9366 C   0  0  0  0  0  0  0  0  0  0  0  0
  -23.3290   -0.4646   30.6186 C   0  0  0  0  0  0  0  0  0  0  0  0
  -23.3341    0.4237   29.5754 C   0  0  0  0  0  0  0  0  0  0  0  0
  -22.3011    1.2810   29.3307 C   0  0  0  0  0  0  0  0  0  0  0  0
  -25.9708    2.2927   26.1238 O   0  0  0  0  0  0  0  0  0  0  0  0
  -28.0445    0.8632   26.7473 O   0  0  0  0  0  0  0  0  0  0  0  0
  1  2  2  3
  2  3  1  0
  3  4  1  0
  4  5  1  0
  5  6  1  0
  2  7  1  0
  1  8  1  0
  8  9  1  0
  8 10  1  0
  5 11  1  0
 11 12  1  0
 11 13  2  0
 12 18  1  0
 17 18  1  0
  4 19  2  0
  3 20  2  0
  6  7  2  0
  7 14  1  0
 14 15  2  0
 15 16  1  0
 16 17  2  0
 17  6  1  0
M  END

$$$$
