No_4954-gen_results/8p0m/2024-11-26-14-13-15/
     RDKit          3D

 31 34  0  0  0  0  0  0  0  0999 V2000
  -28.0162   -0.8135   28.8779 C   0  0  0  0  0  0  0  0  0  0  0  0
  -27.0636   -0.1189   28.6079 C   0  0  0  0  0  0  0  0  0  0  0  0
  -26.9716    0.7139   27.5060 C   0  0  0  0  0  0  0  0  0  0  0  0
  -25.8205    1.4909   27.1160 C   0  0  0  0  0  0  0  0  0  0  0  0
  -24.6562    1.4242   27.9180 C   0  0  0  0  0  0  0  0  0  0  0  0
  -24.7114    0.5419   29.0507 C   0  0  0  0  0  0  0  0  0  0  0  0
  -25.8042   -0.2058   29.3881 C   0  0  0  0  0  0  0  0  0  0  0  0
  -28.0309   -1.5903   30.1490 C   0  0  0  0  0  0  0  0  0  0  0  0
  -26.8104   -1.7964   30.8511 C   0  0  0  0  0  0  0  0  0  0  0  0
  -25.6958   -1.0684   30.5035 C   0  0  0  0  0  0  0  0  0  0  0  0
  -28.0906    0.8797   26.5377 C   0  0  0  0  0  0  0  0  0  0  0  0
  -29.2470    0.9364   26.8550 C   0  0  0  0  0  0  0  0  0  0  0  0
  -30.3083    0.9865   25.9581 C   0  0  0  0  0  0  0  0  0  0  0  0
  -27.8659    0.4882   25.1882 C   0  0  0  0  0  0  0  0  0  0  0  0
  -28.7476    0.4743   24.2472 C   0  0  0  0  0  0  0  0  0  0  0  0
  -30.0241    0.7446   24.6048 C   0  0  0  0  0  0  0  0  0  0  0  0
  -23.3822    0.4718   29.8141 C   0  0  0  0  0  0  0  0  0  0  0  0
  -23.5021    1.0201   30.9548 F   0  0  0  0  0  0  0  0  0  0  0  0
  -22.3638    1.0876   29.1788 F   0  0  0  0  0  0  0  0  0  0  0  0
  -23.0219   -0.8079   29.9194 F   0  0  0  0  0  0  0  0  0  0  0  0
  -29.2085   -2.4089   30.4906 C   0  0  0  0  0  0  0  0  0  0  0  0
  -30.2910   -1.9875   30.3869 O   0  0  0  0  0  0  0  0  0  0  0  0
  -28.9999   -3.8118   30.6345 N   0  0  0  0  0  0  0  0  0  0  0  0
  -27.7771   -4.4468   30.6203 C   0  0  0  0  0  0  0  0  0  0  0  0
  -30.1725   -4.6013   30.3721 C   0  0  0  0  0  0  0  0  0  0  0  0
  -30.6050   -5.3153   31.3031 C   0  0  0  0  0  0  0  0  0  0  0  0
  -30.0403   -5.1624   32.6219 C   0  0  0  0  0  0  0  0  0  0  0  0
  -30.4276   -6.1277   33.6686 C   0  0  0  0  0  0  0  0  0  0  0  0
  -31.4198   -7.0078   33.3464 C   0  0  0  0  0  0  0  0  0  0  0  0
  -31.9604   -7.1516   32.0862 C   0  0  0  0  0  0  0  0  0  0  0  0
  -31.5130   -6.3307   31.0588 C   0  0  0  0  0  0  0  0  0  0  0  0
  3 11  1  0
  6 17  1  0
 17 18  1  0
 17 19  1  0
 17 20  1  0
  8 21  1  0
 21 22  2  0
 21 23  1  0
 23 24  1  0
 23 25  1  0
 25 26  1  0
 26 27  2  0
 27 28  1  0
 28 29  2  0
 29 30  1  0
 30 31  2  0
 31 26  1  0
  2  3  1  0
  3  4  2  0
  4  5  1  0
  5  6  2  0
  6  7  1  0
  1  2  2  0
  2  7  1  0
  7 10  2  0
 10  9  1  0
  9  8  2  0
  8  1  1  0
 11 12  2  0
 12 13  1  0
 13 16  2  0
 16 15  1  0
 15 14  2  0
 14 11  1  0
M  END

$$$$
