No_436-gen_results/8p0m/2024-11-26-14-13-15/
     RDKit          3D

 18 19  0  0  0  0  0  0  0  0999 V2000
  -28.0162   -0.8135   28.8779 C   0  0  0  0  0  0  0  0  0  0  0  0
  -27.0636   -0.1189   28.6079 C   0  0  0  0  0  0  0  0  0  0  0  0
  -26.9716    0.7139   27.5060 C   0  0  0  0  0  0  0  0  0  0  0  0
  -28.1053    0.7744   26.6421 C   0  0  0  0  0  0  0  0  0  0  0  0
  -29.2008    0.1044   27.0527 C   0  0  0  0  0  0  0  0  0  0  0  0
  -28.0219   -1.5899   30.0879 C   0  0  0  0  0  0  0  0  0  0  0  0
  -29.1640   -0.6394   28.1484 C   0  0  0  0  0  0  0  0  0  0  0  0
  -28.8247   -1.8905   30.7103 O   0  0  0  0  0  0  0  0  0  0  0  0
  -26.7951   -2.2214   30.3429 O   0  0  0  0  0  0  0  0  0  0  0  0
  -30.2968    0.2683   26.0155 C   0  0  0  0  0  0  0  0  0  0  0  0
  -30.2596    0.4455   24.8827 O   0  0  0  0  0  0  0  0  0  0  0  0
  -31.5254    0.2832   26.5979 O   0  0  0  0  0  0  0  0  0  0  0  0
  -25.6946    1.4371   27.1330 C   0  0  0  0  0  0  0  0  0  0  0  0
  -24.5799    0.9866   27.7345 C   0  0  0  0  0  0  0  0  0  0  0  0
  -23.3392    1.7192   27.5737 C   0  0  0  0  0  0  0  0  0  0  0  0
  -23.3360    2.6339   26.5387 C   0  0  0  0  0  0  0  0  0  0  0  0
  -24.4824    3.0220   25.8854 C   0  0  0  0  0  0  0  0  0  0  0  0
  -25.7050    2.4377   26.1840 C   0  0  0  0  0  0  0  0  0  0  0  0
  1  6  1  0
  6  8  1  0
  6  9  2  0
  5 10  1  0
 10 11  2  0
 10 12  1  0
  3 13  1  0
 13 14  2  0
 14 15  1  0
 15 16  2  0
 16 17  1  0
 17 18  2  0
 18 13  1  0
  1  2  2  0
  2  3  1  0
  3  4  2  0
  4  5  1  0
  5  7  2  0
  7  1  1  0
M  END

$$$$
