No_481-gen_results/8p0m/2024-11-26-14-13-15/
     RDKit          3D

 11 12  0  0  0  0  0  0  0  0999 V2000
  -28.1229   -1.3353   28.4874 O   0  0  0  0  0  0  0  0  0  0  0  0
  -27.4806   -0.4044   28.7094 C   0  0  0  0  0  0  0  0  0  0  0  0
  -27.2411    0.3910   29.5098 N   0  0  0  0  0  0  0  0  0  0  0  0
  -26.4066   -0.1069   27.4496 C   0  0  0  0  0  0  0  0  0  0  0  0
  -25.4358    0.8473   27.6341 C   0  0  0  0  0  0  0  0  0  0  0  0
  -24.3969    1.1078   26.6806 C   0  0  0  0  0  0  0  0  0  0  0  0
  -26.3629    1.4022   29.7984 C   0  0  0  0  0  0  0  0  0  0  0  0
  -25.3950    1.6671   28.8472 C   0  0  0  0  0  0  0  0  0  0  0  0
  -23.3391    2.0038   27.0406 C   0  0  0  0  0  0  0  0  0  0  0  0
  -23.3279    2.6478   28.2634 C   0  0  0  0  0  0  0  0  0  0  0  0
  -24.3126    2.5042   29.1137 C   0  0  0  0  0  0  0  0  0  0  0  0
  1  2  2  0
  2  3  1  0
  2  4  1  0
  7  8  1  0
  3  7  1  0
  5  4  1  0
  5  6  2  0
  6  9  1  0
  9 10  2  0
 10 11  1  0
 11  8  2  0
  8  5  1  0
M  END

$$$$
