No_4933-gen_results/8p0m/2024-11-26-14-13-15/
     RDKit          3D

 13 13  0  0  0  0  0  0  0  0999 V2000
  -28.0162   -0.8135   28.8779 C   0  0  0  0  0  0  0  0  0  0  0  0
  -28.4690   -0.7850   29.8287 C   0  0  0  0  0  0  0  0  0  0  0  0
  -26.5042   -0.7777   28.8766 C   0  0  0  0  0  0  0  0  0  0  0  0
  -25.6540   -0.6597   27.7191 C   0  0  0  0  0  0  0  0  0  0  0  0
  -27.9180   -0.9374   31.1824 C   0  0  0  0  0  0  0  0  0  0  0  0
  -26.5423   -0.9399   31.2606 C   0  0  0  0  0  0  0  0  0  0  0  0
  -25.7832   -0.8935   30.1201 C   0  0  0  0  0  0  0  0  0  0  0  0
  -26.1510   -0.9708   26.7104 F   0  0  0  0  0  0  0  0  0  0  0  0
  -24.4481   -1.3951   27.8913 F   0  0  0  0  0  0  0  0  0  0  0  0
  -25.1286    0.6726   27.6220 F   0  0  0  0  0  0  0  0  0  0  0  0
  -30.0508   -0.8080   29.8830 C   0  0  0  0  0  0  0  0  0  0  0  0
  -30.6656   -0.0476   30.7446 O   0  0  0  0  0  0  0  0  0  0  0  0
  -30.6564   -1.4264   29.0268 O   0  0  0  0  0  0  0  0  0  0  0  0
  3  4  1  0
  4  8  1  0
  4  9  1  0
  4 10  1  0
  2 11  1  0
 11 12  2  0
 11 13  1  0
  1  2  2  0
  2  5  1  0
  5  6  2  0
  6  7  1  0
  7  3  2  0
  3  1  1  0
M  END

$$$$
