No_4987-gen_results/8p0m/2024-11-26-14-13-15/
     RDKit          3D

 14 14  0  0  0  0  0  0  0  0999 V2000
  -28.0162   -0.8135   28.8779 C   0  0  0  0  0  0  0  0  0  0  0  0
  -27.0636   -0.1189   28.6079 C   0  0  0  0  0  0  0  0  0  0  0  0
  -26.9716    0.7139   27.5060 C   0  0  0  0  0  0  0  0  0  0  0  0
  -25.8206    1.4909   27.1160 C   0  0  0  0  0  0  0  0  0  0  0  0
  -24.6562    1.4242   27.9180 C   0  0  0  0  0  0  0  0  0  0  0  0
  -24.6847    0.5901   29.0659 C   0  0  0  0  0  0  0  0  0  0  0  0
  -25.8099   -0.1265   29.3338 C   0  0  0  0  0  0  0  0  0  0  0  0
  -29.1935   -0.1896   29.0164 N   0  0  0  0  0  0  0  0  0  0  0  0
  -23.4634    2.1759   27.6079 C   0  0  0  0  0  0  0  0  0  0  0  0
  -22.4185    1.6506   27.2095 N   0  0  0  0  0  0  0  0  0  0  0  0
  -30.2501   -0.7525   29.6494 C   0  0  0  0  0  0  0  0  0  0  0  0
  -23.6258    3.4674   27.4875 O   0  0  0  0  0  0  0  0  0  0  0  0
  -30.5647   -0.5741   30.8349 C   0  0  0  0  0  0  0  0  0  0  0  0
  -31.6807   -1.1909   31.5484 C   0  0  0  0  0  0  0  0  0  0  0  0
  1  8  1  0
  5  9  1  0
  9 10  1  0
  8 11  1  0
  9 12  2  0
 11 13  2  3
 13 14  1  0
  1  2  1  0
  2  3  2  0
  3  4  1  0
  4  5  2  0
  5  6  1  0
  6  7  2  0
  7  2  1  0
M  END

$$$$
