No_4879-gen_results/8p0m/2024-11-26-14-13-15/
     RDKit          3D

 25 28  0  0  0  0  0  0  0  0999 V2000
  -28.0162   -0.8135   28.8779 C   0  0  0  0  0  0  0  0  0  0  0  0
  -28.4690   -0.7850   29.8287 C   0  0  0  0  0  0  0  0  0  0  0  0
  -26.5042   -0.7777   28.8766 C   0  0  0  0  0  0  0  0  0  0  0  0
  -25.6540   -0.6597   27.7191 C   0  0  0  0  0  0  0  0  0  0  0  0
  -27.9180   -0.9374   31.1824 C   0  0  0  0  0  0  0  0  0  0  0  0
  -26.5423   -0.9399   31.2606 C   0  0  0  0  0  0  0  0  0  0  0  0
  -25.7832   -0.8935   30.1201 C   0  0  0  0  0  0  0  0  0  0  0  0
  -25.9259    0.2819   26.7445 C   0  0  0  0  0  0  0  0  0  0  0  0
  -25.6258    1.4719   26.8191 C   0  0  0  0  0  0  0  0  0  0  0  0
  -24.8156    1.9657   27.9646 C   0  0  0  0  0  0  0  0  0  0  0  0
  -24.4735    3.2932   27.9753 N   0  0  0  0  0  0  0  0  0  0  0  0
  -24.4480    1.3040   28.9031 O   0  0  0  0  0  0  0  0  0  0  0  0
  -25.2348    4.2296   27.2996 C   0  0  0  0  0  0  0  0  0  0  0  0
  -26.0491    2.4885   25.8984 C   0  0  0  0  0  0  0  0  0  0  0  0
  -25.7369    3.8371   26.0985 N   0  0  0  0  0  0  0  0  0  0  0  0
  -26.6214   -0.2355   25.5767 C   0  0  0  0  0  0  0  0  0  0  0  0
  -24.7993    5.4903   27.4488 N   0  0  0  0  0  0  0  0  0  0  0  0
  -25.0973    6.1373   28.6262 C   0  0  0  0  0  0  0  0  0  0  0  0
  -25.7271    5.5249   29.6230 C   0  0  0  0  0  0  0  0  0  0  0  0
  -25.6227    6.0754   30.7834 N   0  0  0  0  0  0  0  0  0  0  0  0
  -24.7733    7.5868   28.7521 C   0  0  0  0  0  0  0  0  0  0  0  0
  -24.8292    8.2052   29.9499 C   0  0  0  0  0  0  0  0  0  0  0  0
  -25.3081    7.3995   31.0199 C   0  0  0  0  0  0  0  0  0  0  0  0
  -27.2679    0.5243   24.5526 C   0  0  0  0  0  0  0  0  0  0  0  0
  -26.8787    2.0256   24.7788 C   0  0  0  0  0  0  0  0  0  0  0  0
  3  4  1  0
  4  8  1  0
  9 10  1  0
 10 11  1  0
 10 12  2  0
 11 13  1  0
 13 15  1  0
 14 15  1  0
 13 17  1  0
 17 18  1  0
 18 19  2  0
 19 20  1  0
 20 23  2  0
 23 22  1  0
 22 21  2  0
 21 18  1  0
  1  2  2  0
  2  5  1  0
  5  6  2  0
  6  7  1  0
  7  3  2  0
  3  1  1  0
  8  9  1  0
  9 14  2  0
 14 25  1  0
 25 24  2  0
 24 16  1  0
 16  8  2  0
M  END

$$$$
