No_473-gen_results/8p0m/2024-11-26-14-13-15/
     RDKit          3D

 12 13  0  0  0  0  0  0  0  0999 V2000
  -28.0162   -0.8135   28.8779 C   0  0  0  0  0  0  0  0  0  0  0  0
  -28.4690   -0.7850   29.8287 C   0  0  0  0  0  0  0  0  0  0  0  0
  -27.1356    0.2359   28.5352 C   0  0  0  0  0  0  0  0  0  0  0  0
  -26.8050    1.0509   29.2763 C   0  0  0  0  0  0  0  0  0  0  0  0
  -27.3158    1.1492   30.6054 C   0  0  0  0  0  0  0  0  0  0  0  0
  -28.1917    0.1430   30.9488 C   0  0  0  0  0  0  0  0  0  0  0  0
  -26.4831    0.2096   27.1281 C   0  0  0  0  0  0  0  0  0  0  0  0
  -27.0196    0.6489   26.1370 C   0  0  0  0  0  0  0  0  0  0  0  0
  -26.4103    0.4893   24.8421 C   0  0  0  0  0  0  0  0  0  0  0  0
  -25.0825   -0.0283   24.8361 C   0  0  0  0  0  0  0  0  0  0  0  0
  -25.1087   -0.3129   27.0516 C   0  0  0  0  0  0  0  0  0  0  0  0
  -24.4544   -0.3514   25.9213 C   0  0  0  0  0  0  0  0  0  0  0  0
  3  7  1  0
  7  8  2  0
  8  9  1  0
  9 10  2  0
 10 12  1  0
 12 11  2  0
 11  7  1  0
  1  2  2  0
  2  6  1  0
  6  5  2  0
  5  4  1  0
  4  3  2  0
  3  1  1  0
M  END

$$$$
