No_4698-gen_results/8p0m/2024-11-26-14-13-15/
     RDKit          3D

  7  7  0  0  0  0  0  0  0  0999 V2000
  -28.0162   -0.8135   28.8779 C   0  0  0  0  0  0  0  0  0  0  0  0
  -28.4690   -0.7850   29.8287 C   0  0  0  0  0  0  0  0  0  0  0  0
  -28.7063   -0.5182   27.8769 F   0  0  0  0  0  0  0  0  0  0  0  0
  -26.5857   -0.9572   28.6898 C   0  0  0  0  0  0  0  0  0  0  0  0
  -25.7973   -1.4978   29.7457 C   0  0  0  0  0  0  0  0  0  0  0  0
  -27.7517   -1.2950   31.1605 C   0  0  0  0  0  0  0  0  0  0  0  0
  -26.3994   -1.5687   31.0252 C   0  0  0  0  0  0  0  0  0  0  0  0
  1  3  1  0
  1  2  2  0
  2  6  1  0
  6  7  2  0
  7  5  1  0
  5  4  2  0
  4  1  1  0
M  END

$$$$
