No_448-gen_results/8p0m/2024-11-26-14-13-15/
     RDKit          3D

 29 31  0  0  0  0  0  0  0  0999 V2000
  -28.0162   -0.8135   28.8779 C   0  0  0  0  0  0  0  0  0  0  0  0
  -27.0636   -0.1189   28.6079 C   0  0  0  0  0  0  0  0  0  0  0  0
  -26.9287    1.1713   29.0083 C   0  0  0  0  0  0  0  0  0  0  0  0
  -27.9560    1.7411   29.7840 C   0  0  0  0  0  0  0  0  0  0  0  0
  -29.0569   -0.3271   29.7466 C   0  0  0  0  0  0  0  0  0  0  0  0
  -28.9828    0.9722   30.1516 C   0  0  0  0  0  0  0  0  0  0  0  0
  -26.0447   -0.7682   27.9424 O   0  0  0  0  0  0  0  0  0  0  0  0
  -24.9423   -0.0401   27.4562 C   0  0  0  0  0  0  0  0  0  0  0  0
  -23.7645   -0.0749   27.9500 C   0  0  0  0  0  0  0  0  0  0  0  0
  -25.2179    0.8099   26.3611 C   0  0  0  0  0  0  0  0  0  0  0  0
  -24.2348    1.5354   25.8112 C   0  0  0  0  0  0  0  0  0  0  0  0
  -22.6757    0.8113   27.5346 C   0  0  0  0  0  0  0  0  0  0  0  0
  -22.9567    1.6687   26.4134 C   0  0  0  0  0  0  0  0  0  0  0  0
  -21.3884    0.8836   28.1762 C   0  0  0  0  0  0  0  0  0  0  0  0
  -27.7960    3.1830   30.2112 C   0  0  0  0  0  0  0  0  0  0  0  0
  -27.6836    4.1810   29.7817 C   0  0  0  0  0  0  0  0  0  0  0  0
  -27.3951    5.4797   30.3612 C   0  0  0  0  0  0  0  0  0  0  0  0
  -27.3171    5.4976   31.7444 C   0  0  0  0  0  0  0  0  0  0  0  0
  -27.3954    4.3068   32.4557 C   0  0  0  0  0  0  0  0  0  0  0  0
  -27.5575    3.0909   31.8215 C   0  0  0  0  0  0  0  0  0  0  0  0
  -30.2102   -1.1535   30.0573 C   0  0  0  0  0  0  0  0  0  0  0  0
  -30.9939   -0.7265   31.0981 O   0  0  0  0  0  0  0  0  0  0  0  0
  -30.4529   -2.1828   29.5088 O   0  0  0  0  0  0  0  0  0  0  0  0
  -27.7793    4.3405   28.2346 C   0  0  0  0  0  0  0  0  0  0  0  0
  -26.9952    5.1425   27.6885 F   0  0  0  0  0  0  0  0  0  0  0  0
  -29.1184    4.6908   27.9791 F   0  0  0  0  0  0  0  0  0  0  0  0
  -27.5483    3.1765   27.5288 F   0  0  0  0  0  0  0  0  0  0  0  0
  -20.9997   -0.0266   29.0484 N   0  0  0  0  0  0  0  0  0  0  0  0
  -20.5080    1.7337   27.7260 O   0  0  0  0  0  0  0  0  0  0  0  0
  2  7  1  0
  7  8  1  0
 12 14  1  0
  4 15  1  0
  5 21  1  0
 21 22  1  0
 21 23  2  0
 16 24  1  0
 24 25  1  0
 24 26  1  0
 24 27  1  0
 14 28  2  0
 14 29  1  0
 15 16  2  0
 16 17  1  0
 17 18  2  0
 18 19  1  0
 19 20  2  0
 20 15  1  0
  1  2  2  0
  2  3  1  0
  3  4  2  0
  4  6  1  0
  6  5  2  0
  5  1  1  0
  8  9  2  0
  9 12  1  0
 12 13  2  0
 13 11  1  0
 11 10  2  0
 10  8  1  0
M  END

$$$$
