No_4848-gen_results/8p0m/2024-11-26-14-13-15/
     RDKit          3D

 14 15  0  0  0  0  0  0  0  0999 V2000
  -28.0162   -0.8135   28.8779 C   0  0  0  0  0  0  0  0  0  0  0  0
  -28.4690   -0.7850   29.8287 C   0  0  0  0  0  0  0  0  0  0  0  0
  -26.5042   -0.7777   28.8766 C   0  0  0  0  0  0  0  0  0  0  0  0
  -25.8103   -0.8531   30.1028 C   0  0  0  0  0  0  0  0  0  0  0  0
  -27.9906   -0.8916   31.2257 C   0  0  0  0  0  0  0  0  0  0  0  0
  -26.6042   -0.8676   31.2652 C   0  0  0  0  0  0  0  0  0  0  0  0
  -30.2656   -0.7636   29.6521 Cl  0  0  0  0  0  0  0  0  0  0  0  0
  -24.3701   -0.8360   30.1525 C   0  0  0  0  0  0  0  0  0  0  0  0
  -23.6242   -0.3909   29.1138 C   0  0  0  0  0  0  0  0  0  0  0  0
  -22.1739   -0.3695   29.2775 C   0  0  0  0  0  0  0  0  0  0  0  0
  -24.1802    0.2674   28.0253 C   0  0  0  0  0  0  0  0  0  0  0  0
  -23.3084    1.1261   27.2425 C   0  0  0  0  0  0  0  0  0  0  0  0
  -21.3663    0.3244   28.3944 C   0  0  0  0  0  0  0  0  0  0  0  0
  -21.8957    1.0941   27.4076 C   0  0  0  0  0  0  0  0  0  0  0  0
  2  7  1  0
  4  8  1  0
  8  9  1  0
  9 10  2  0
 10 13  1  0
 13 14  2  0
 14 12  1  0
 12 11  2  0
 11  9  1  0
  1  2  2  0
  2  5  1  0
  5  6  2  0
  6  4  1  0
  4  3  2  0
  3  1  1  0
M  END

$$$$
