No_4768-gen_results/8p0m/2024-11-26-14-13-15/
     RDKit          3D

 20 21  0  0  0  0  0  0  0  0999 V2000
  -28.0162   -0.8135   28.8779 C   0  0  0  0  0  0  0  0  0  0  0  0
  -28.4690   -0.7850   29.8287 C   0  0  0  0  0  0  0  0  0  0  0  0
  -26.6082   -0.9454   28.8569 N   0  0  0  0  0  0  0  0  0  0  0  0
  -26.0396   -1.5690   29.9264 C   0  0  0  0  0  0  0  0  0  0  0  0
  -28.1711   -1.6084   31.0855 C   0  0  0  0  0  0  0  0  0  0  0  0
  -26.7104   -1.6313   31.1973 C   0  0  0  0  0  0  0  0  0  0  0  0
  -25.7326   -0.6752   27.7626 C   0  0  0  0  0  0  0  0  0  0  0  0
  -24.4949   -0.0497   28.0968 C   0  0  0  0  0  0  0  0  0  0  0  0
  -23.5516   -0.5678   28.8540 C   0  0  0  0  0  0  0  0  0  0  0  0
  -24.3082    1.2948   27.5371 C   0  0  0  0  0  0  0  0  0  0  0  0
  -23.0196    1.9086   27.6611 C   0  0  0  0  0  0  0  0  0  0  0  0
  -22.2861    0.0626   29.0696 C   0  0  0  0  0  0  0  0  0  0  0  0
  -22.0252    1.2605   28.4254 C   0  0  0  0  0  0  0  0  0  0  0  0
  -28.7101   -1.1578   32.3310 N   0  0  0  0  0  0  0  0  0  0  0  0
  -28.3230   -0.2687   33.0163 C   0  0  0  0  0  0  0  0  0  0  0  0
  -29.8946   -1.9480   32.7826 C   0  0  0  0  0  0  0  0  0  0  0  0
  -27.5116    0.6452   32.7703 C   0  0  0  0  0  0  0  0  0  0  0  0
  -27.3080    1.3890   31.9802 C   0  0  0  0  0  0  0  0  0  0  0  0
  -26.2477    2.4020   31.7599 C   0  0  0  0  0  0  0  0  0  0  0  0
  -25.2078    2.2681   32.6534 C   0  0  0  0  0  0  0  0  0  0  0  0
  1  2  1  0
  1  3  1  0
  3  4  1  0
  2  5  1  0
  5  6  1  0
  3  7  1  0
  7  8  1  0
  5 14  1  0
 14 15  1  0
 14 16  1  0
 15 17  2  3
 17 18  1  0
 18 19  2  3
 19 20  1  0
  6  4  1  0
  8  9  2  0
  9 12  1  0
 12 13  2  0
 13 11  1  0
 11 10  2  0
 10  8  1  0
M  END

$$$$
