No_4411-gen_results/8p0m/2024-11-26-14-13-15/
     RDKit          3D

 15 16  0  0  0  0  0  0  0  0999 V2000
  -28.0162   -0.8135   28.8779 C   0  0  0  0  0  0  0  0  0  0  0  0
  -28.4690   -0.7850   29.8287 C   0  0  0  0  0  0  0  0  0  0  0  0
  -26.5042   -0.7777   28.8766 C   0  0  0  0  0  0  0  0  0  0  0  0
  -25.8103   -0.8531   30.1028 C   0  0  0  0  0  0  0  0  0  0  0  0
  -27.9906   -0.8916   31.2257 C   0  0  0  0  0  0  0  0  0  0  0  0
  -26.6042   -0.8676   31.2652 C   0  0  0  0  0  0  0  0  0  0  0  0
  -29.9765   -0.8288   29.8497 N   0  0  0  0  0  0  0  0  0  0  0  0
  -30.5795   -0.1232   28.9820 C   0  0  0  0  0  0  0  0  0  0  0  0
  -31.6492   -0.5564   28.5139 O   0  0  0  0  0  0  0  0  0  0  0  0
  -30.1187    1.1939   28.4936 C   0  0  0  0  0  0  0  0  0  0  0  0
  -30.1272    1.4408   27.3324 C   0  0  0  0  0  0  0  0  0  0  0  0
  -29.5277    2.7306   26.8497 C   0  0  0  0  0  0  0  0  0  0  0  0
  -28.8697    3.5363   27.7911 C   0  0  0  0  0  0  0  0  0  0  0  0
  -29.3502    1.9163   29.4590 C   0  0  0  0  0  0  0  0  0  0  0  0
  -28.8287    3.1652   29.0867 C   0  0  0  0  0  0  0  0  0  0  0  0
  2  7  1  0
  7  8  1  0
  8  9  2  0
  8 10  1  0
 10 11  2  0
 11 12  1  0
 12 13  2  0
 13 15  1  0
 15 14  2  0
 14 10  1  0
  1  2  2  0
  2  5  1  0
  5  6  2  0
  6  4  1  0
  4  3  2  0
  3  1  1  0
M  END

$$$$
