No_4970-gen_results/8p0m/2024-11-26-14-13-15/
     RDKit          3D

 25 27  0  0  0  0  0  0  0  0999 V2000
  -28.0162   -0.8135   28.8779 C   0  0  0  0  0  0  0  0  0  0  0  0
  -28.4690   -0.7850   29.8287 C   0  0  0  0  0  0  0  0  0  0  0  0
  -26.5042   -0.7777   28.8766 C   0  0  0  0  0  0  0  0  0  0  0  0
  -25.8103   -0.8531   30.1028 C   0  0  0  0  0  0  0  0  0  0  0  0
  -27.9906   -0.8916   31.2257 C   0  0  0  0  0  0  0  0  0  0  0  0
  -26.6042   -0.8676   31.2652 C   0  0  0  0  0  0  0  0  0  0  0  0
  -29.9203   -0.8331   29.8239 F   0  0  0  0  0  0  0  0  0  0  0  0
  -24.3796   -0.8022   30.1424 C   0  0  0  0  0  0  0  0  0  0  0  0
  -23.6323   -0.3170   29.1196 C   0  0  0  0  0  0  0  0  0  0  0  0
  -22.1884   -0.2415   29.2461 C   0  0  0  0  0  0  0  0  0  0  0  0
  -21.5218    0.3195   28.2388 N   0  0  0  0  0  0  0  0  0  0  0  0
  -22.1422    1.1800   27.3870 C   0  0  0  0  0  0  0  0  0  0  0  0
  -23.5032    1.3129   27.3623 C   0  0  0  0  0  0  0  0  0  0  0  0
  -24.2578    0.6717   28.2966 C   0  0  0  0  0  0  0  0  0  0  0  0
  -24.2530    2.2389   26.5244 C   0  0  0  0  0  0  0  0  0  0  0  0
  -23.8216    3.2888   26.0460 C   0  0  0  0  0  0  0  0  0  0  0  0
  -25.4933    1.7173   26.0207 C   0  0  0  0  0  0  0  0  0  0  0  0
  -26.4476    2.5556   25.5196 C   0  0  0  0  0  0  0  0  0  0  0  0
  -24.6614    4.3119   25.4897 C   0  0  0  0  0  0  0  0  0  0  0  0
  -25.9432    3.8781   25.1397 C   0  0  0  0  0  0  0  0  0  0  0  0
  -27.7433    2.2142   25.1181 C   0  0  0  0  0  0  0  0  0  0  0  0
  -28.6109    2.3312   25.9899 F   0  0  0  0  0  0  0  0  0  0  0  0
  -28.1898    2.9157   24.0590 F   0  0  0  0  0  0  0  0  0  0  0  0
  -27.6694    0.9106   24.6995 F   0  0  0  0  0  0  0  0  0  0  0  0
  -23.9852   -0.2724   31.5227 C   0  0  0  0  0  0  0  0  0  0  0  0
  2  7  1  0
  4  8  1  0
 13 15  1  0
 18 21  1  0
 21 22  1  0
 21 23  1  0
 21 24  1  0
  8 25  1  0
  8  9  1  0
  9 10  2  0
 10 11  1  0
 11 12  2  0
 12 13  1  0
 13 14  2  0
 14  9  1  0
  1  2  2  0
  2  5  1  0
  5  6  2  0
  6  4  1  0
  4  3  2  0
  3  1  1  0
 15 16  2  0
 16 19  1  0
 19 20  2  0
 20 18  1  0
 18 17  2  0
 17 15  1  0
M  END

$$$$
