No_4612-gen_results/8p0m/2024-11-26-14-13-15/
     RDKit          3D

 14 14  0  0  0  0  0  0  0  0999 V2000
  -28.0162   -0.8135   28.8779 C   0  0  0  0  0  0  0  0  0  0  0  0
  -28.4690   -0.7850   29.8287 C   0  0  0  0  0  0  0  0  0  0  0  0
  -27.0871    0.2903   28.6377 C   0  0  0  0  0  0  0  0  0  0  0  0
  -26.7676    1.0274   29.4716 C   0  0  0  0  0  0  0  0  0  0  0  0
  -28.2764    0.0268   31.0145 C   0  0  0  0  0  0  0  0  0  0  0  0
  -27.3287    1.0538   30.7535 C   0  0  0  0  0  0  0  0  0  0  0  0
  -25.8653    2.0415   29.2470 F   0  0  0  0  0  0  0  0  0  0  0  0
  -29.5148   -1.9936   30.2525 C   0  0  0  0  0  0  0  0  0  0  0  0
  -29.3565   -3.1699   30.2284 O   0  0  0  0  0  0  0  0  0  0  0  0
  -30.7423   -1.6286   30.6306 O   0  0  0  0  0  0  0  0  0  0  0  0
  -26.3666    0.2840   27.2302 C   0  0  0  0  0  0  0  0  0  0  0  0
  -25.0664    0.4828   27.1339 C   0  0  0  0  0  0  0  0  0  0  0  0
  -24.4262    1.6180   27.7786 C   0  0  0  0  0  0  0  0  0  0  0  0
  -23.1183    1.8967   27.4832 C   0  0  0  0  0  0  0  0  0  0  0  0
  4  7  1  0
  2  8  1  0
  8  9  2  0
  8 10  1  0
  3 11  1  0
 11 12  1  0
 12 13  1  0
 13 14  1  0
  1  2  2  0
  2  5  1  0
  5  6  2  0
  6  4  1  0
  4  3  2  0
  3  1  1  0
M  END

$$$$
