No_4981-gen_results/8p0m/2024-11-26-14-13-15/
     RDKit          3D

 22 24  0  0  0  0  0  0  0  0999 V2000
  -28.0162   -0.8135   28.8779 C   0  0  0  0  0  0  0  0  0  0  0  0
  -27.0636   -0.1189   28.6079 C   0  0  0  0  0  0  0  0  0  0  0  0
  -27.0010    0.6913   27.4910 C   0  0  0  0  0  0  0  0  0  0  0  0
  -27.1778    1.9037   27.5632 C   0  0  0  0  0  0  0  0  0  0  0  0
  -29.3113   -0.2245   28.4756 C   0  0  0  0  0  0  0  0  0  0  0  0
  -28.7654    2.1211   27.8478 C   0  0  0  0  0  0  0  0  0  0  0  0
  -29.4738    0.8296   28.1859 C   0  0  0  0  0  0  0  0  0  0  0  0
  -25.6464   -0.6502   29.0965 C   0  0  0  0  0  0  0  0  0  0  0  0
  -25.2382   -0.1703   30.3071 C   0  0  0  0  0  0  0  0  0  0  0  0
  -24.8958   -1.6203   28.4905 C   0  0  0  0  0  0  0  0  0  0  0  0
  -23.6598   -2.0692   29.0254 C   0  0  0  0  0  0  0  0  0  0  0  0
  -24.0231   -0.5707   30.9443 C   0  0  0  0  0  0  0  0  0  0  0  0
  -23.1982   -1.5335   30.2712 C   0  0  0  0  0  0  0  0  0  0  0  0
  -31.0217    1.3854   28.2876 C   0  0  0  0  0  0  0  0  0  0  0  0
  -31.7871    1.0182   27.4680 O   0  0  0  0  0  0  0  0  0  0  0  0
  -31.3178    2.1748   29.3591 N   0  0  0  0  0  0  0  0  0  0  0  0
  -32.6477    2.5914   29.5482 C   0  0  0  0  0  0  0  0  0  0  0  0
  -32.7378    3.3219   30.5159 C   0  0  0  0  0  0  0  0  0  0  0  0
  -31.7167    3.7078   31.3769 C   0  0  0  0  0  0  0  0  0  0  0  0
  -30.4018    3.2570   31.1445 C   0  0  0  0  0  0  0  0  0  0  0  0
  -30.2009    2.4355   30.0859 C   0  0  0  0  0  0  0  0  0  0  0  0
  -29.3144    3.1362   26.9540 C   0  0  0  0  0  0  0  0  0  0  0  0
  1  2  1  0
  2  3  1  0
  3  4  2  0
  1  5  1  0
  4  6  1  0
  5  7  1  0
  6  7  1  0
  2  8  1  0
  7 14  1  0
 14 15  2  0
 14 16  1  0
 16 17  1  0
 18 19  1  0
 16 21  1  0
 20 21  1  0
  6 22  1  0
 17 18  1  0
 19 20  1  0
  8  9  2  0
  9 12  1  0
 12 13  2  0
 13 11  1  0
 11 10  2  0
 10  8  1  0
M  END

$$$$
