No_4737-gen_results/8p0m/2024-11-26-14-13-15/
     RDKit          3D

 14 15  0  0  0  0  0  0  0  0999 V2000
  -28.0162   -0.8135   28.8779 C   0  0  0  0  0  0  0  0  0  0  0  0
  -28.4690   -0.7850   29.8287 C   0  0  0  0  0  0  0  0  0  0  0  0
  -27.1356    0.2359   28.5352 C   0  0  0  0  0  0  0  0  0  0  0  0
  -26.8745    1.2825   29.3982 C   0  0  0  0  0  0  0  0  0  0  0  0
  -28.3613    0.1987   30.9244 C   0  0  0  0  0  0  0  0  0  0  0  0
  -27.5277    1.2234   30.6356 C   0  0  0  0  0  0  0  0  0  0  0  0
  -26.3879    0.2914   27.2334 C   0  0  0  0  0  0  0  0  0  0  0  0
  -26.4936    0.9729   26.2859 C   0  0  0  0  0  0  0  0  0  0  0  0
  -27.4761    2.0647   26.3647 C   0  0  0  0  0  0  0  0  0  0  0  0
  -28.7475    1.9389   26.4017 C   0  0  0  0  0  0  0  0  0  0  0  0
  -29.5629    3.1143   26.4450 C   0  0  0  0  0  0  0  0  0  0  0  0
  -28.9568    4.3946   26.3980 C   0  0  0  0  0  0  0  0  0  0  0  0
  -26.8268    3.4248   26.4425 C   0  0  0  0  0  0  0  0  0  0  0  0
  -27.6075    4.5334   26.3726 C   0  0  0  0  0  0  0  0  0  0  0  0
  3  7  1  0
  7  8  2  3
  8  9  1  0
  1  2  2  0
  2  5  1  0
  5  6  2  0
  6  4  1  0
  4  3  2  0
  3  1  1  0
  9 10  2  0
 10 11  1  0
 11 12  2  0
 12 14  1  0
 14 13  2  0
 13  9  1  0
M  END

$$$$
