No_4051-gen_results/8p0m/2024-11-26-14-13-15/
     RDKit          3D

 11 11  0  0  0  0  0  0  0  0999 V2000
  -28.1229   -1.3353   28.4874 O   0  0  0  0  0  0  0  0  0  0  0  0
  -28.5208   -0.4363   29.0779 C   0  0  0  0  0  0  0  0  0  0  0  0
  -27.9150    0.0780   30.0386 O   0  0  0  0  0  0  0  0  0  0  0  0
  -29.8074    0.1885   28.6630 C   0  0  0  0  0  0  0  0  0  0  0  0
  -29.7096    1.3760   28.1635 C   0  0  0  0  0  0  0  0  0  0  0  0
  -30.6214    1.8870   27.5825 C   0  0  0  0  0  0  0  0  0  0  0  0
  -30.6728    0.0768   29.8115 O   0  0  0  0  0  0  0  0  0  0  0  0
  -31.0243    2.2447   26.7324 C   0  0  0  0  0  0  0  0  0  0  0  0
  -30.2304    2.0191   25.4451 C   0  0  0  0  0  0  0  0  0  0  0  0
  -28.8670    1.7864   25.6858 C   0  0  0  0  0  0  0  0  0  0  0  0
  -28.5438    1.4006   26.9881 C   0  0  0  0  0  0  0  0  0  0  0  0
  1  2  2  0
  2  3  1  0
  2  4  1  0
  4  5  1  0
  4  7  1  0
  5  6  2  0
  6  8  1  0
  8  9  2  0
  9 10  1  0
 10 11  2  0
 11  5  1  0
M  END

$$$$
