No_4747-gen_results/8p0m/2024-11-26-14-13-15/
     RDKit          3D

 28 31  0  0  0  0  0  0  0  0999 V2000
  -28.0727   -1.2542   28.5316 F   0  0  0  0  0  0  0  0  0  0  0  0
  -27.3591   -0.3792   28.7224 C   0  0  0  0  0  0  0  0  0  0  0  0
  -26.8100    0.1885   27.6513 C   0  0  0  0  0  0  0  0  0  0  0  0
  -25.6015    0.9529   27.6828 C   0  0  0  0  0  0  0  0  0  0  0  0
  -25.0371    1.2332   29.0000 C   0  0  0  0  0  0  0  0  0  0  0  0
  -25.6162    0.5855   30.0870 C   0  0  0  0  0  0  0  0  0  0  0  0
  -26.6061   -0.2296   29.9624 C   0  0  0  0  0  0  0  0  0  0  0  0
  -23.9925    2.0751   29.0733 O   0  0  0  0  0  0  0  0  0  0  0  0
  -22.8230    1.7084   28.3926 C   0  0  0  0  0  0  0  0  0  0  0  0
  -21.7249    1.1425   29.1639 C   0  0  0  0  0  0  0  0  0  0  0  0
  -20.7254    0.4718   28.3981 C   0  0  0  0  0  0  0  0  0  0  0  0
  -22.6514    2.0754   27.0702 C   0  0  0  0  0  0  0  0  0  0  0  0
  -21.3990    1.7165   26.4659 C   0  0  0  0  0  0  0  0  0  0  0  0
  -20.5245    0.9140   27.1374 C   0  0  0  0  0  0  0  0  0  0  0  0
  -27.2723    0.0065   26.4020 O   0  0  0  0  0  0  0  0  0  0  0  0
  -28.3382    0.7600   26.0094 C   0  0  0  0  0  0  0  0  0  0  0  0
  -28.9802    0.3445   24.9346 C   0  0  0  0  0  0  0  0  0  0  0  0
  -30.1561    1.0031   24.4600 C   0  0  0  0  0  0  0  0  0  0  0  0
  -30.5137    2.2340   25.1339 C   0  0  0  0  0  0  0  0  0  0  0  0
  -28.7874    1.9333   26.6903 C   0  0  0  0  0  0  0  0  0  0  0  0
  -29.8263    2.6464   26.2651 C   0  0  0  0  0  0  0  0  0  0  0  0
  -24.9293    0.8781   31.4092 C   0  0  0  0  0  0  0  0  0  0  0  0
  -25.5700    1.9858   32.2000 C   0  0  0  0  0  0  0  0  0  0  0  0
  -26.8703    2.1366   32.0948 C   0  0  0  0  0  0  0  0  0  0  0  0
  -27.4255    3.2665   32.8391 C   0  0  0  0  0  0  0  0  0  0  0  0
  -26.6039    4.1243   33.5504 C   0  0  0  0  0  0  0  0  0  0  0  0
  -25.2088    3.9812   33.4341 C   0  0  0  0  0  0  0  0  0  0  0  0
  -24.7183    2.9722   32.7217 C   0  0  0  0  0  0  0  0  0  0  0  0
  1  2  1  0
  5  8  1  0
  8  9  1  0
  3 15  1  0
 15 16  1  0
  6 22  1  0
 22 23  1  0
  2  3  2  0
  3  4  1  0
  4  5  2  0
  5  6  1  0
  6  7  2  0
  7  2  1  0
  9 10  2  0
 10 11  1  0
 11 14  2  0
 14 13  1  0
 13 12  2  0
 12  9  1  0
 23 24  2  0
 24 25  1  0
 25 26  2  0
 26 27  1  0
 27 28  2  0
 28 23  1  0
 16 17  2  0
 17 18  1  0
 18 19  2  0
 19 21  1  0
 21 20  2  0
 20 16  1  0
M  END

$$$$
