No_48-gen_results/8p0m/2024-11-26-14-13-15/
     RDKit          3D

 10 11  0  0  0  0  0  0  0  0999 V2000
  -28.0162   -0.8135   28.8779 C   0  0  0  0  0  0  0  0  0  0  0  0
  -28.4690   -0.7850   29.8287 C   0  0  0  0  0  0  0  0  0  0  0  0
  -27.1356    0.2359   28.5352 C   0  0  0  0  0  0  0  0  0  0  0  0
  -26.8745    1.2825   29.3982 C   0  0  0  0  0  0  0  0  0  0  0  0
  -27.5070    1.2380   30.6295 C   0  0  0  0  0  0  0  0  0  0  0  0
  -28.3293    0.1745   30.9350 C   0  0  0  0  0  0  0  0  0  0  0  0
  -26.4077    0.3070   27.2259 C   0  0  0  0  0  0  0  0  0  0  0  0
  -25.7129    1.4905   26.9212 C   0  0  0  0  0  0  0  0  0  0  0  0
  -25.4301    2.4538   27.8655 C   0  0  0  0  0  0  0  0  0  0  0  0
  -26.0916    2.4163   29.0923 C   0  0  0  0  0  0  0  0  0  0  0  0
  4 10  2  0
 10  9  1  0
  9  8  2  0
  8  7  1  0
  7  3  2  0
  1  2  2  0
  2  6  1  0
  6  5  2  0
  5  4  1  0
  4  3  1  0
  3  1  1  0
M  END

$$$$
