No_4305-gen_results/8p0m/2024-11-26-14-13-15/
     RDKit          3D

 14 15  0  0  0  0  0  0  0  0999 V2000
  -28.1229   -1.3353   28.4874 O   0  0  0  0  0  0  0  0  0  0  0  0
  -27.4806   -0.4044   28.7094 C   0  0  0  0  0  0  0  0  0  0  0  0
  -27.1904    0.2460   29.5268 C   0  0  0  0  0  0  0  0  0  0  0  0
  -26.6871   -0.0001   27.4423 N   0  0  0  0  0  0  0  0  0  0  0  0
  -27.6511    0.1259   30.8799 C   0  0  0  0  0  0  0  0  0  0  0  0
  -25.7508    1.0047   27.4342 C   0  0  0  0  0  0  0  0  0  0  0  0
  -25.5610    1.6907   28.6120 C   0  0  0  0  0  0  0  0  0  0  0  0
  -26.1559    1.3682   29.6808 C   0  0  0  0  0  0  0  0  0  0  0  0
  -28.2686   -0.9093   31.0194 F   0  0  0  0  0  0  0  0  0  0  0  0
  -28.0709    0.8456   31.7272 F   0  0  0  0  0  0  0  0  0  0  0  0
  -25.1315    1.3066   26.2761 N   0  0  0  0  0  0  0  0  0  0  0  0
  -24.0964    2.2597   26.2847 C   0  0  0  0  0  0  0  0  0  0  0  0
  -23.8548    2.9963   27.4115 C   0  0  0  0  0  0  0  0  0  0  0  0
  -24.5014    2.7383   28.5121 C   0  0  0  0  0  0  0  0  0  0  0  0
  1  2  2  0
  2  3  1  0
  2  4  1  0
  3  5  1  0
  3  8  1  0
  7  8  1  0
  5  9  1  0
  5 10  1  0
  6  4  1  0
  6  7  2  0
  7 14  1  0
 14 13  2  0
 13 12  1  0
 12 11  2  0
 11  6  1  0
M  END

$$$$
