No_443-gen_results/8p0m/2024-11-26-14-13-15/
     RDKit          3D

 28 29  0  0  0  0  0  0  0  0999 V2000
  -28.0727   -1.2542   28.5316 F   0  0  0  0  0  0  0  0  0  0  0  0
  -27.0607   -0.6291   28.8721 C   0  0  0  0  0  0  0  0  0  0  0  0
  -26.1528   -1.1557   29.4537 C   0  0  0  0  0  0  0  0  0  0  0  0
  -24.8778   -0.5788   29.8639 C   0  0  0  0  0  0  0  0  0  0  0  0
  -24.7426    0.8273   29.4808 C   0  0  0  0  0  0  0  0  0  0  0  0
  -25.7883    1.3927   28.7628 C   0  0  0  0  0  0  0  0  0  0  0  0
  -26.9145    0.7309   28.4427 C   0  0  0  0  0  0  0  0  0  0  0  0
  -23.5403    1.5267   29.8447 C   0  0  0  0  0  0  0  0  0  0  0  0
  -22.4127    1.2112   29.3122 N   0  0  0  0  0  0  0  0  0  0  0  0
  -23.6279    2.4204   30.8055 O   0  0  0  0  0  0  0  0  0  0  0  0
  -22.1809    0.3260   28.2762 C   0  0  0  0  0  0  0  0  0  0  0  0
  -27.8781    1.3002   27.7806 F   0  0  0  0  0  0  0  0  0  0  0  0
  -26.2118   -2.4743   29.9118 F   0  0  0  0  0  0  0  0  0  0  0  0
  -20.7431    0.4024   28.0648 C   0  0  0  0  0  0  0  0  0  0  0  0
  -22.8469   -0.5255   28.1983 O   0  0  0  0  0  0  0  0  0  0  0  0
  -25.6112    2.6985   28.3770 O   0  0  0  0  0  0  0  0  0  0  0  0
  -25.0258    3.0180   27.1574 C   0  0  0  0  0  0  0  0  0  0  0  0
  -24.9414    4.3497   26.8979 C   0  0  0  0  0  0  0  0  0  0  0  0
  -24.5916    2.1200   26.2055 C   0  0  0  0  0  0  0  0  0  0  0  0
  -24.4333    4.7370   25.7233 N   0  0  0  0  0  0  0  0  0  0  0  0
  -25.3106    5.3435   27.8223 N   0  0  0  0  0  0  0  0  0  0  0  0
  -25.1440    6.6788   27.4979 C   0  0  0  0  0  0  0  0  0  0  0  0
  -25.2049    7.5828   28.6388 C   0  0  0  0  0  0  0  0  0  0  0  0
  -25.4668    7.0737   29.8704 C   0  0  0  0  0  0  0  0  0  0  0  0
  -25.5735    7.8927   31.0237 C   0  0  0  0  0  0  0  0  0  0  0  0
  -25.3477    9.2603   30.7959 C   0  0  0  0  0  0  0  0  0  0  0  0
  -25.0732    9.8437   29.5985 C   0  0  0  0  0  0  0  0  0  0  0  0
  -24.9604    8.9613   28.4449 C   0  0  0  0  0  0  0  0  0  0  0  0
  1  2  1  0
  5  8  1  0
  8  9  1  0
  8 10  2  0
  9 11  1  0
  7 12  1  0
  3 13  1  0
 11 14  1  0
 11 15  2  0
  6 16  1  0
 16 17  1  0
 17 18  1  0
 17 19  1  0
 18 20  1  0
 18 21  1  0
 21 22  1  0
 22 23  1  0
  2  3  2  0
  3  4  1  0
  4  5  2  0
  5  6  1  0
  6  7  2  0
  7  2  1  0
 23 24  2  0
 24 25  1  0
 25 26  2  0
 26 27  1  0
 27 28  2  0
 28 23  1  0
M  END

$$$$
