No_4780-gen_results/8p0m/2024-11-26-14-13-15/
     RDKit          3D

 21 22  0  0  0  0  0  0  0  0999 V2000
  -28.0727   -1.2542   28.5316 F   0  0  0  0  0  0  0  0  0  0  0  0
  -28.2662   -0.4214   29.1931 C   0  0  0  0  0  0  0  0  0  0  0  0
  -27.2356   -0.0574   30.0145 C   0  0  0  0  0  0  0  0  0  0  0  0
  -27.2606    1.1013   30.9347 C   0  0  0  0  0  0  0  0  0  0  0  0
  -29.4969    0.3179   29.2904 C   0  0  0  0  0  0  0  0  0  0  0  0
  -29.5573    1.4396   30.2037 C   0  0  0  0  0  0  0  0  0  0  0  0
  -28.4535    1.8015   31.0013 C   0  0  0  0  0  0  0  0  0  0  0  0
  -28.5487    3.1205   32.0457 Cl  0  0  0  0  0  0  0  0  0  0  0  0
  -25.9334   -0.7600   30.0079 C   0  0  0  0  0  0  0  0  0  0  0  0
  -24.9694   -0.3562   29.0514 C   0  0  0  0  0  0  0  0  0  0  0  0
  -23.7050   -0.7702   29.2343 C   0  0  0  0  0  0  0  0  0  0  0  0
  -22.5853   -0.2324   28.4647 C   0  0  0  0  0  0  0  0  0  0  0  0
  -22.8873    0.7765   27.5142 C   0  0  0  0  0  0  0  0  0  0  0  0
  -24.2418    1.1851   27.3358 C   0  0  0  0  0  0  0  0  0  0  0  0
  -25.2790    0.6957   28.1303 C   0  0  0  0  0  0  0  0  0  0  0  0
  -24.4638    2.3067   26.3865 C   0  0  0  0  0  0  0  0  0  0  0  0
  -24.9832    3.4089   26.7815 C   0  0  0  0  0  0  0  0  0  0  0  0
  -25.2924    3.6608   28.0069 C   0  0  0  0  0  0  0  0  0  0  0  0
  -25.7924    4.9373   28.5127 C   0  0  0  0  0  0  0  0  0  0  0  0
  -26.2353    5.1252   29.8488 C   0  0  0  0  0  0  0  0  0  0  0  0
  -26.9310    6.1436   30.1721 N   0  0  0  0  0  0  0  0  0  0  0  0
  1  2  1  0
  7  8  1  0
  3  9  1  0
  9 10  1  0
 14 16  1  0
 16 17  1  0
 17 18  1  0
 18 19  2  3
 19 20  1  0
 20 21  2  0
 10 11  2  0
 11 12  1  0
 12 13  2  0
 13 14  1  0
 14 15  2  0
 15 10  1  0
  2  3  2  0
  3  4  1  0
  4  7  2  0
  7  6  1  0
  6  5  2  0
  5  2  1  0
M  END

$$$$
