No_4997-gen_results/8p0m/2024-11-26-14-13-15/
     RDKit          3D

  7  6  0  0  0  0  0  0  0  0999 V2000
  -28.1493   -0.8198   28.9079 Cl  0  0  0  0  0  0  0  0  0  0  0  0
  -27.8339    0.4961   29.0598 C   0  0  0  0  0  0  0  0  0  0  0  0
  -27.6022    1.0128   30.2974 C   0  0  0  0  0  0  0  0  0  0  0  0
  -27.5822    0.3544   31.3106 C   0  0  0  0  0  0  0  0  0  0  0  0
  -27.8896   -1.0945   31.2200 C   0  0  0  0  0  0  0  0  0  0  0  0
  -28.1177   -1.6158   30.0901 C   0  0  0  0  0  0  0  0  0  0  0  0
  -28.4545   -3.3101   30.0443 Cl  0  0  0  0  0  0  0  0  0  0  0  0
  1  2  1  0
  2  3  1  0
  3  4  2  3
  4  5  1  0
  5  6  2  3
  6  7  1  0
M  END

$$$$
