No_4629-gen_results/8p0m/2024-11-26-14-13-15/
     RDKit          3D

 16 17  0  0  0  0  0  0  0  0999 V2000
  -28.0162   -0.8135   28.8779 C   0  0  0  0  0  0  0  0  0  0  0  0
  -28.4690   -0.7850   29.8287 C   0  0  0  0  0  0  0  0  0  0  0  0
  -27.1356    0.2359   28.5352 C   0  0  0  0  0  0  0  0  0  0  0  0
  -26.8745    1.2825   29.3982 C   0  0  0  0  0  0  0  0  0  0  0  0
  -28.3613    0.1987   30.9244 C   0  0  0  0  0  0  0  0  0  0  0  0
  -27.5277    1.2234   30.6356 C   0  0  0  0  0  0  0  0  0  0  0  0
  -26.2846    0.2758   27.0339 Cl  0  0  0  0  0  0  0  0  0  0  0  0
  -29.0188    0.0871   32.1303 O   0  0  0  0  0  0  0  0  0  0  0  0
  -25.9786    2.4021   29.0706 C   0  0  0  0  0  0  0  0  0  0  0  0
  -26.0326    3.0780   27.8750 C   0  0  0  0  0  0  0  0  0  0  0  0
  -27.0091    3.7109   27.4862 C   0  0  0  0  0  0  0  0  0  0  0  0
  -26.9826    4.3260   26.1387 C   0  0  0  0  0  0  0  0  0  0  0  0
  -25.9154    3.9226   25.3511 C   0  0  0  0  0  0  0  0  0  0  0  0
  -24.9918    2.9708   26.7972 C   0  0  0  0  0  0  0  0  0  0  0  0
  -23.7902    2.4601   26.5473 C   0  0  0  0  0  0  0  0  0  0  0  0
  -22.6656    1.9378   26.3942 N   0  0  0  0  0  0  0  0  0  0  0  0
  3  7  1  0
  5  8  1  0
  4  9  1  0
  9 10  1  0
 10 11  2  0
 11 12  1  0
 12 13  2  0
 10 14  1  0
 13 14  1  0
 14 15  1  0
 15 16  3  0
  1  2  2  0
  2  5  1  0
  5  6  2  0
  6  4  1  0
  4  3  2  0
  3  1  1  0
M  END

$$$$
