No_4378-gen_results/8p0m/2024-11-26-14-13-15/
     RDKit          3D

 12 13  0  0  0  0  0  0  0  0999 V2000
  -28.0162   -0.8135   28.8779 C   0  0  0  0  0  0  0  0  0  0  0  0
  -27.0636   -0.1190   28.6079 C   0  0  0  0  0  0  0  0  0  0  0  0
  -27.0010    0.6913   27.4910 C   0  0  0  0  0  0  0  0  0  0  0  0
  -28.1373    0.7363   26.6350 C   0  0  0  0  0  0  0  0  0  0  0  0
  -29.2360    0.0765   27.0690 C   0  0  0  0  0  0  0  0  0  0  0  0
  -29.2177   -0.6429   28.1747 C   0  0  0  0  0  0  0  0  0  0  0  0
  -30.4152    0.1590   26.1820 C   0  0  0  0  0  0  0  0  0  0  0  0
  -31.3727   -0.5052   26.4854 N   0  0  0  0  0  0  0  0  0  0  0  0
  -30.2154    0.5174   24.9703 O   0  0  0  0  0  0  0  0  0  0  0  0
  -31.6893   -1.0458   27.7694 C   0  0  0  0  0  0  0  0  0  0  0  0
  -30.5056   -1.2718   28.5496 C   0  0  0  0  0  0  0  0  0  0  0  0
  -32.7342   -0.5036   25.7271 C   0  0  0  0  0  0  0  0  0  0  0  0
  5  7  1  0
  7  8  1  0
  7  9  2  0
  8 10  1  0
  6 11  1  0
  8 12  1  0
 11 10  1  0
  1  2  2  0
  2  3  1  0
  3  4  2  0
  4  5  1  0
  5  6  2  0
  6  1  1  0
M  END

$$$$
