No_4279-gen_results/8p0m/2024-11-26-14-13-15/
     RDKit          3D

 15 16  0  0  0  0  0  0  0  0999 V2000
  -28.0162   -0.8135   28.8779 C   0  0  0  0  0  0  0  0  0  0  0  0
  -28.4690   -0.7850   29.8287 C   0  0  0  0  0  0  0  0  0  0  0  0
  -28.1960    0.3478   28.0550 C   0  0  0  0  0  0  0  0  0  0  0  0
  -29.0191    1.3501   28.3782 C   0  0  0  0  0  0  0  0  0  0  0  0
  -29.6249    1.2683   29.6012 C   0  0  0  0  0  0  0  0  0  0  0  0
  -29.3821    0.1816   30.4004 C   0  0  0  0  0  0  0  0  0  0  0  0
  -27.4591    0.3787   26.7048 C   0  0  0  0  0  0  0  0  0  0  0  0
  -26.1350    0.3565   26.8181 C   0  0  0  0  0  0  0  0  0  0  0  0
  -25.3867    0.0259   27.9207 C   0  0  0  0  0  0  0  0  0  0  0  0
  -23.9774    0.0244   27.9125 C   0  0  0  0  0  0  0  0  0  0  0  0
  -23.2124   -0.3701   29.0872 C   0  0  0  0  0  0  0  0  0  0  0  0
  -21.8407   -0.0869   29.1556 C   0  0  0  0  0  0  0  0  0  0  0  0
  -21.2545    0.7661   28.1992 C   0  0  0  0  0  0  0  0  0  0  0  0
  -22.0889    1.4077   27.2470 C   0  0  0  0  0  0  0  0  0  0  0  0
  -23.4180    1.0765   27.1773 C   0  0  0  0  0  0  0  0  0  0  0  0
  3  7  1  0
  7  8  1  0
  8  9  2  3
  9 10  1  0
  1  2  2  0
  2  6  1  0
  6  5  2  0
  5  4  1  0
  4  3  2  0
  3  1  1  0
 10 11  2  0
 11 12  1  0
 12 13  2  0
 13 14  1  0
 14 15  2  0
 15 10  1  0
M  END

$$$$
