No_4055-gen_results/8p0m/2024-11-26-14-13-15/
     RDKit          3D

 33 35  0  0  0  0  0  0  0  0999 V2000
  -28.0162   -0.8135   28.8779 C   0  0  0  0  0  0  0  0  0  0  0  0
  -27.0636   -0.1190   28.6079 C   0  0  0  0  0  0  0  0  0  0  0  0
  -27.0010    0.6913   27.4910 C   0  0  0  0  0  0  0  0  0  0  0  0
  -25.8548    1.4825   27.0830 C   0  0  0  0  0  0  0  0  0  0  0  0
  -24.6901    1.4526   27.8807 C   0  0  0  0  0  0  0  0  0  0  0  0
  -24.7379    0.6010   29.0416 C   0  0  0  0  0  0  0  0  0  0  0  0
  -25.8234   -0.1688   29.3887 C   0  0  0  0  0  0  0  0  0  0  0  0
  -28.7350   -0.4637   30.1419 C   0  0  0  0  0  0  0  0  0  0  0  0
  -29.7910   -1.3607   30.6434 C   0  0  0  0  0  0  0  0  0  0  0  0
  -30.0295   -2.4276   29.9358 C   0  0  0  0  0  0  0  0  0  0  0  0
  -31.1519   -3.1894   30.4786 C   0  0  0  0  0  0  0  0  0  0  0  0
  -31.4905   -4.4180   29.8140 C   0  0  0  0  0  0  0  0  0  0  0  0
  -30.5741   -4.9869   28.9769 C   0  0  0  0  0  0  0  0  0  0  0  0
  -29.2722   -4.5469   28.9878 C   0  0  0  0  0  0  0  0  0  0  0  0
  -28.9635   -3.3002   29.5228 C   0  0  0  0  0  0  0  0  0  0  0  0
  -23.5003    2.1762   27.5672 C   0  0  0  0  0  0  0  0  0  0  0  0
  -22.3528    1.6864   26.9222 Cl  0  0  0  0  0  0  0  0  0  0  0  0
  -32.7045   -5.0386   29.9776 O   0  0  0  0  0  0  0  0  0  0  0  0
  -28.3316    0.7865   26.4546 Cl  0  0  0  0  0  0  0  0  0  0  0  0
  -33.5476   -4.8672   30.8747 C   0  0  0  0  0  0  0  0  0  0  0  0
  -33.4948   -4.9459   31.9828 C   0  0  0  0  0  0  0  0  0  0  0  0
  -34.4901   -4.7042   33.0265 C   0  0  0  0  0  0  0  0  0  0  0  0
  -35.7550   -4.3928   32.4932 C   0  0  0  0  0  0  0  0  0  0  0  0
  -34.8328   -4.3338   30.3317 C   0  0  0  0  0  0  0  0  0  0  0  0
  -35.8730   -4.1597   31.1560 C   0  0  0  0  0  0  0  0  0  0  0  0
  -37.1722   -3.7397   30.5994 C   0  0  0  0  0  0  0  0  0  0  0  0
  -37.8022   -4.1551   29.8191 O   0  0  0  0  0  0  0  0  0  0  0  0
  -37.5739   -2.4696   31.2266 N   0  0  0  0  0  0  0  0  0  0  0  0
  -38.7907   -1.8612   30.8186 C   0  0  0  0  0  0  0  0  0  0  0  0
  -39.5662   -2.0336   30.1283 C   0  0  0  0  0  0  0  0  0  0  0  0
  -39.5456   -3.2393   29.3510 C   0  0  0  0  0  0  0  0  0  0  0  0
  -38.7490   -4.1620   29.1431 C   0  0  0  0  0  0  0  0  0  0  0  0
  -38.8698   -5.2845   28.2689 C   0  0  0  0  0  0  0  0  0  0  0  0
  1  2  1  0
  1  8  2  3
  8  9  1  0
  5 16  1  0
 16 17  1  0
 12 18  1  0
  3 19  1  0
 18 20  1  0
 25 26  1  0
 26 27  2  0
 26 28  1  0
 28 29  1  0
 29 30  2  3
 30 31  1  0
 31 32  2  3
 32 33  1  0
  9 10  1  0
  2  3  2  0
  3  4  1  0
  4  5  2  0
  5  6  1  0
  6  7  2  0
  7  2  1  0
 20 21  2  0
 21 22  1  0
 22 23  2  0
 23 25  1  0
 25 24  2  0
 24 20  1  0
 10 11  2  0
 11 12  1  0
 12 13  2  0
 13 14  1  0
 14 15  2  0
 15 10  1  0
M  END

$$$$
