No_4596-gen_results/8p0m/2024-11-26-14-13-15/
     RDKit          3D

 16 17  0  0  0  0  0  0  0  0999 V2000
  -28.1229   -1.3353   28.4874 O   0  0  0  0  0  0  0  0  0  0  0  0
  -27.4806   -0.4044   28.7094 C   0  0  0  0  0  0  0  0  0  0  0  0
  -27.1904    0.2460   29.5268 C   0  0  0  0  0  0  0  0  0  0  0  0
  -26.7282   -0.1238   27.4073 F   0  0  0  0  0  0  0  0  0  0  0  0
  -27.6905    0.2967   30.8292 C   0  0  0  0  0  0  0  0  0  0  0  0
  -27.3202    1.0931   31.9540 C   0  0  0  0  0  0  0  0  0  0  0  0
  -26.2504    2.0573   31.6826 C   0  0  0  0  0  0  0  0  0  0  0  0
  -25.6372    2.0737   30.4091 C   0  0  0  0  0  0  0  0  0  0  0  0
  -26.0498    1.2082   29.4679 C   0  0  0  0  0  0  0  0  0  0  0  0
  -25.8008    2.9654   32.7634 C   0  0  0  0  0  0  0  0  0  0  0  0
  -26.2056    4.1954   32.6901 N   0  0  0  0  0  0  0  0  0  0  0  0
  -25.6902    5.2352   33.3948 C   0  0  0  0  0  0  0  0  0  0  0  0
  -27.2378    4.6024   31.8019 C   0  0  0  0  0  0  0  0  0  0  0  0
  -27.3440    5.6417   31.3073 C   0  0  0  0  0  0  0  0  0  0  0  0
  -25.7874    6.5978   33.0382 C   0  0  0  0  0  0  0  0  0  0  0  0
  -26.7555    6.8317   31.9948 C   0  0  0  0  0  0  0  0  0  0  0  0
  1  2  2  0
  2  3  1  0
  2  4  1  0
  7 10  1  0
 10 11  1  0
 11 12  1  0
 11 13  1  0
 14 16  1  0
 15 16  1  0
 12 15  1  0
 14 13  1  0
  3  5  2  0
  5  6  1  0
  6  7  2  0
  7  8  1  0
  8  9  2  0
  9  3  1  0
M  END

$$$$
