No_4802-gen_results/8p0m/2024-11-26-14-13-15/
     RDKit          3D

 21 23  0  0  0  0  0  0  0  0999 V2000
  -28.0162   -0.8135   28.8779 C   0  0  0  0  0  0  0  0  0  0  0  0
  -27.0636   -0.1190   28.6079 C   0  0  0  0  0  0  0  0  0  0  0  0
  -25.7923   -0.4302   29.0761 C   0  0  0  0  0  0  0  0  0  0  0  0
  -24.5456    0.3494   28.8225 C   0  0  0  0  0  0  0  0  0  0  0  0
  -24.6586    1.4196   27.8878 C   0  0  0  0  0  0  0  0  0  0  0  0
  -25.9471    1.6811   27.3792 C   0  0  0  0  0  0  0  0  0  0  0  0
  -27.0439    0.9739   27.6871 C   0  0  0  0  0  0  0  0  0  0  0  0
  -28.6597   -0.4600   30.2006 C   0  0  0  0  0  0  0  0  0  0  0  0
  -29.6386   -1.2518   30.6446 O   0  0  0  0  0  0  0  0  0  0  0  0
  -23.4477    2.1436   27.5883 C   0  0  0  0  0  0  0  0  0  0  0  0
  -22.2631    1.7459   28.0914 N   0  0  0  0  0  0  0  0  0  0  0  0
  -23.4877    3.0106   26.6634 O   0  0  0  0  0  0  0  0  0  0  0  0
  -28.4777    0.5773   30.8278 O   0  0  0  0  0  0  0  0  0  0  0  0
  -22.0279    0.8184   29.0070 C   0  0  0  0  0  0  0  0  0  0  0  0
  -23.1818   -0.0365   29.3854 C   0  0  0  0  0  0  0  0  0  0  0  0
  -28.3315    1.3522   27.0443 C   0  0  0  0  0  0  0  0  0  0  0  0
  -28.2652    1.9279   25.8064 C   0  0  0  0  0  0  0  0  0  0  0  0
  -29.5502    1.1669   27.6445 C   0  0  0  0  0  0  0  0  0  0  0  0
  -30.7371    1.5132   26.9172 C   0  0  0  0  0  0  0  0  0  0  0  0
  -29.4103    2.2770   25.0796 C   0  0  0  0  0  0  0  0  0  0  0  0
  -30.6313    2.1176   25.6760 C   0  0  0  0  0  0  0  0  0  0  0  0
  1  2  1  0
  1  8  1  0
  8  9  1  0
  5 10  1  0
 10 11  1  0
 10 12  2  0
  8 13  2  0
 11 14  1  0
  4 15  1  0
  7 16  1  0
 15 14  1  0
  2  3  2  0
  3  4  1  0
  4  5  2  0
  5  6  1  0
  6  7  2  0
  7  2  1  0
 16 17  2  0
 17 20  1  0
 20 21  2  0
 21 19  1  0
 19 18  2  0
 18 16  1  0
M  END

$$$$
