No_4704-gen_results/8p0m/2024-11-26-14-13-15/
     RDKit          3D

 24 26  0  0  0  0  0  0  0  0999 V2000
  -28.0162   -0.8135   28.8779 C   0  0  0  0  0  0  0  0  0  0  0  0
  -28.4690   -0.7850   29.8287 C   0  0  0  0  0  0  0  0  0  0  0  0
  -27.1356    0.2359   28.5352 C   0  0  0  0  0  0  0  0  0  0  0  0
  -26.8745    1.2825   29.3982 C   0  0  0  0  0  0  0  0  0  0  0  0
  -28.3613    0.1987   30.9244 C   0  0  0  0  0  0  0  0  0  0  0  0
  -27.5277    1.2234   30.6356 C   0  0  0  0  0  0  0  0  0  0  0  0
  -26.3879    0.2914   27.2334 C   0  0  0  0  0  0  0  0  0  0  0  0
  -25.5573    1.3117   27.0292 N   0  0  0  0  0  0  0  0  0  0  0  0
  -24.3235    1.3464   27.3500 C   0  0  0  0  0  0  0  0  0  0  0  0
  -23.5855    0.5108   28.1695 C   0  0  0  0  0  0  0  0  0  0  0  0
  -23.9813   -0.5804   28.7839 C   0  0  0  0  0  0  0  0  0  0  0  0
  -23.2495   -1.3818   29.6237 C   0  0  0  0  0  0  0  0  0  0  0  0
  -21.8977   -1.0265   29.7854 C   0  0  0  0  0  0  0  0  0  0  0  0
  -21.3117    0.0619   29.1232 C   0  0  0  0  0  0  0  0  0  0  0  0
  -22.1105    0.8614   28.3539 C   0  0  0  0  0  0  0  0  0  0  0  0
  -23.5747    2.1761   26.5778 O   0  0  0  0  0  0  0  0  0  0  0  0
  -26.5421   -0.5485   26.3473 O   0  0  0  0  0  0  0  0  0  0  0  0
  -26.2448    2.3938   26.2914 C   0  0  0  0  0  0  0  0  0  0  0  0
  -27.3141    2.3670   31.6199 C   0  0  0  0  0  0  0  0  0  0  0  0
  -26.1718    2.4833   32.1089 C   0  0  0  0  0  0  0  0  0  0  0  0
  -25.7968    3.6020   33.0101 C   0  0  0  0  0  0  0  0  0  0  0  0
  -26.7940    4.4083   33.4744 C   0  0  0  0  0  0  0  0  0  0  0  0
  -28.0637    4.2160   32.8905 C   0  0  0  0  0  0  0  0  0  0  0  0
  -28.3422    3.2308   31.9940 C   0  0  0  0  0  0  0  0  0  0  0  0
  3  7  1  0
  7  8  1  0
  8  9  1  0
  9 10  1  0
  9 16  2  0
  7 17  2  0
  8 18  1  0
  6 19  1  0
 19 20  2  0
 20 21  1  0
 21 22  2  0
 22 23  1  0
 23 24  2  0
 24 19  1  0
  1  2  2  0
  2  5  1  0
  5  6  2  0
  6  4  1  0
  4  3  2  0
  3  1  1  0
 10 11  2  0
 11 12  1  0
 12 13  2  0
 13 14  1  0
 14 15  2  0
 15 10  1  0
M  END

$$$$
