No_4126-gen_results/8p0m/2024-11-26-14-13-15/
     RDKit          3D

 26 27  0  0  0  0  0  0  0  0999 V2000
  -28.0162   -0.8135   28.8779 C   0  0  0  0  0  0  0  0  0  0  0  0
  -27.0636   -0.1189   28.6079 C   0  0  0  0  0  0  0  0  0  0  0  0
  -26.9716    0.7139   27.5060 C   0  0  0  0  0  0  0  0  0  0  0  0
  -28.1053    0.7744   26.6421 C   0  0  0  0  0  0  0  0  0  0  0  0
  -29.2041    0.1179   27.0477 C   0  0  0  0  0  0  0  0  0  0  0  0
  -29.2127   -0.6088   28.1281 C   0  0  0  0  0  0  0  0  0  0  0  0
  -25.6860    1.2756   27.3185 N   0  0  0  0  0  0  0  0  0  0  0  0
  -25.2817    1.9576   26.4664 C   0  0  0  0  0  0  0  0  0  0  0  0
  -23.8687    2.4822   26.4597 C   0  0  0  0  0  0  0  0  0  0  0  0
  -23.1594    1.9376   27.5424 C   0  0  0  0  0  0  0  0  0  0  0  0
  -24.5104    0.9678   28.2558 C   0  0  0  0  0  0  0  0  0  0  0  0
  -21.9826    1.8552   28.0428 C   0  0  0  0  0  0  0  0  0  0  0  0
  -21.7638    1.5682   29.2108 O   0  0  0  0  0  0  0  0  0  0  0  0
  -21.0159    2.3261   27.3155 O   0  0  0  0  0  0  0  0  0  0  0  0
  -30.4912    0.1748   26.3437 C   0  0  0  0  0  0  0  0  0  0  0  0
  -30.5411    0.2104   25.0937 N   0  0  0  0  0  0  0  0  0  0  0  0
  -31.5924    0.1587   26.9158 O   0  0  0  0  0  0  0  0  0  0  0  0
  -28.1096   -1.7026   30.1030 C   0  0  0  0  0  0  0  0  0  0  0  0
  -27.1798   -2.5215   30.3125 O   0  0  0  0  0  0  0  0  0  0  0  0
  -29.1446   -1.7621   30.7949 O   0  0  0  0  0  0  0  0  0  0  0  0
  -29.3246    0.2561   24.2047 C   0  0  0  0  0  0  0  0  0  0  0  0
  -31.7225    0.2667   24.2610 C   0  0  0  0  0  0  0  0  0  0  0  0
  -27.3250   -3.8619   30.1308 C   0  0  0  0  0  0  0  0  0  0  0  0
  -28.6406   -4.4252   30.2179 C   0  0  0  0  0  0  0  0  0  0  0  0
  -26.1968   -4.6424   29.7828 C   0  0  0  0  0  0  0  0  0  0  0  0
  -29.6504   -3.8372   30.9111 C   0  0  0  0  0  0  0  0  0  0  0  0
  3  7  1  0
  7  8  1  0
  8  9  2  0
  9 10  1  0
  7 11  1  0
 10 11  2  0
 10 12  1  0
 12 13  2  0
 12 14  1  0
  5 15  1  0
 15 16  1  0
 15 17  2  0
  1 18  1  0
 18 19  1  0
 18 20  2  0
 16 21  1  0
 16 22  1  0
 19 23  1  0
 23 24  2  3
 23 25  1  0
 24 26  1  0
  1  2  2  0
  2  3  1  0
  3  4  2  0
  4  5  1  0
  5  6  2  0
  6  1  1  0
M  END

$$$$
