No_4885-gen_results/8p0m/2024-11-26-14-13-15/
     RDKit          3D

 16 18  0  0  0  0  0  0  0  0999 V2000
  -28.0162   -0.8135   28.8779 C   0  0  0  0  0  0  0  0  0  0  0  0
  -28.4690   -0.7850   29.8287 C   0  0  0  0  0  0  0  0  0  0  0  0
  -26.5455   -0.8762   28.8500 C   0  0  0  0  0  0  0  0  0  0  0  0
  -25.8041   -1.0324   30.0571 C   0  0  0  0  0  0  0  0  0  0  0  0
  -30.0055   -0.7457   29.8978 C   0  0  0  0  0  0  0  0  0  0  0  0
  -26.5747   -1.0565   31.2005 C   0  0  0  0  0  0  0  0  0  0  0  0
  -27.9251   -0.9738   31.1683 C   0  0  0  0  0  0  0  0  0  0  0  0
  -30.6342   -0.0988   29.1602 O   0  0  0  0  0  0  0  0  0  0  0  0
  -30.6627   -1.2806   31.0265 N   0  0  0  0  0  0  0  0  0  0  0  0
  -32.1011   -1.2682   31.0883 C   0  0  0  0  0  0  0  0  0  0  0  0
  -24.5127   -1.0825   30.0545 F   0  0  0  0  0  0  0  0  0  0  0  0
  -32.5864   -2.0110   31.9360 C   0  0  0  0  0  0  0  0  0  0  0  0
  -31.8277   -2.7488   32.9253 C   0  0  0  0  0  0  0  0  0  0  0  0
  -30.4255   -2.7662   32.8101 C   0  0  0  0  0  0  0  0  0  0  0  0
  -29.8689   -2.1387   31.8185 C   0  0  0  0  0  0  0  0  0  0  0  0
  -28.5313   -1.9705   31.9115 N   0  0  0  0  0  0  0  0  0  0  0  0
  2  5  1  0
  5  8  2  0
  5  9  1  0
  9 10  1  0
  4 11  1  0
 12 13  1  0
  9 15  1  0
 14 15  1  0
  7 16  1  0
 15 16  1  0
 10 12  1  0
 13 14  1  0
  1  2  2  0
  2  7  1  0
  7  6  2  0
  6  4  1  0
  4  3  2  0
  3  1  1  0
M  END

$$$$
