No_4164-gen_results/8p0m/2024-11-26-14-13-15/
     RDKit          3D

 27 27  0  0  0  0  0  0  0  0999 V2000
  -28.0162   -0.8135   28.8779 C   0  0  0  0  0  0  0  0  0  0  0  0
  -27.0636   -0.1189   28.6079 C   0  0  0  0  0  0  0  0  0  0  0  0
  -27.0010    0.6913   27.4910 C   0  0  0  0  0  0  0  0  0  0  0  0
  -28.1373    0.7363   26.6350 C   0  0  0  0  0  0  0  0  0  0  0  0
  -29.2360    0.0765   27.0690 C   0  0  0  0  0  0  0  0  0  0  0  0
  -30.3815    0.2048   26.2662 C   0  0  0  0  0  0  0  0  0  0  0  0
  -29.1803   -0.6422   28.1830 C   0  0  0  0  0  0  0  0  0  0  0  0
  -28.0151   -1.6081   30.0375 O   0  0  0  0  0  0  0  0  0  0  0  0
  -27.6698   -1.7434   28.7445 C   0  0  0  0  0  0  0  0  0  0  0  0
  -30.3106   -1.3254   28.5262 O   0  0  0  0  0  0  0  0  0  0  0  0
  -29.9056    0.0943   28.7833 F   0  0  0  0  0  0  0  0  0  0  0  0
  -31.4481   -1.4643   28.7648 C   0  0  0  0  0  0  0  0  0  0  0  0
  -27.2666   -1.3608   31.1123 C   0  0  0  0  0  0  0  0  0  0  0  0
  -26.7526   -2.7387   29.3071 C   0  0  0  0  0  0  0  0  0  0  0  0
  -27.7204   -2.2028   27.7216 F   0  0  0  0  0  0  0  0  0  0  0  0
  -26.5856   -2.7358   30.6995 C   0  0  0  0  0  0  0  0  0  0  0  0
  -25.4257   -2.6076   28.8560 O   0  0  0  0  0  0  0  0  0  0  0  0
  -31.3984    0.5534   26.5849 O   0  0  0  0  0  0  0  0  0  0  0  0
  -30.1814   -0.2430   24.9879 N   0  0  0  0  0  0  0  0  0  0  0  0
  -26.9734   -0.1277   31.0879 N   0  0  0  0  0  0  0  0  0  0  0  0
  -25.7932    0.3324   31.7299 C   0  0  0  0  0  0  0  0  0  0  0  0
  -25.0277    1.7194   31.6394 P   0  0  0  0  0  0  0  0  0  0  0  0
  -25.8621    2.5001   30.4980 O   0  0  0  0  0  0  0  0  0  0  0  0
  -25.3085    2.5041   32.8749 O   0  0  0  0  0  0  0  0  0  0  0  0
  -23.6680    1.6122   31.0857 O   0  0  0  0  0  0  0  0  0  0  0  0
  -31.7910   -2.4455   29.8061 C   0  0  0  0  0  0  0  0  0  0  0  0
  -31.0645   -2.4988   30.7687 O   0  0  0  0  0  0  0  0  0  0  0  0
  1  2  1  0
  2  3  2  3
  3  4  1  0
  4  5  2  3
  5  6  1  0
  5  7  1  0
  1  8  1  0
  1  9  1  0
  7 10  1  0
  7 11  1  0
 10 12  1  0
  8 13  1  0
  9 14  1  0
  9 15  1  0
 13 16  1  0
 14 16  1  0
 14 17  1  0
  6 18  2  0
  6 19  1  0
 13 20  1  0
 20 21  1  0
 21 22  1  0
 22 23  2  0
 22 24  1  0
 22 25  1  0
 12 26  1  0
 26 27  2  0
M  END

$$$$
