No_4999-gen_results/8p0m/2024-11-26-14-13-15/
     RDKit          3D

  8  7  0  0  0  0  0  0  0  0999 V2000
  -28.1493   -0.8198   28.9079 Cl  0  0  0  0  0  0  0  0  0  0  0  0
  -26.9116   -0.0797   28.9452 C   0  0  0  0  0  0  0  0  0  0  0  0
  -26.2828   -0.1883   27.9884 F   0  0  0  0  0  0  0  0  0  0  0  0
  -26.3333    0.5804   30.0971 C   0  0  0  0  0  0  0  0  0  0  0  0
  -26.8929    0.8276   31.1584 C   0  0  0  0  0  0  0  0  0  0  0  0
  -26.2157    1.5886   32.2473 C   0  0  0  0  0  0  0  0  0  0  0  0
  -24.9033    2.0342   31.9481 C   0  0  0  0  0  0  0  0  0  0  0  0
  -24.3040    1.7699   30.7425 C   0  0  0  0  0  0  0  0  0  0  0  0
  1  2  1  0
  2  3  1  0
  2  4  1  0
  4  5  2  3
  5  6  1  0
  6  7  2  3
  7  8  1  0
M  END

$$$$
