No_4183-gen_results/8p0m/2024-11-26-14-13-15/
     RDKit          3D

 17 18  0  0  0  0  0  0  0  0999 V2000
  -28.0162   -0.8135   28.8779 C   0  0  0  0  0  0  0  0  0  0  0  0
  -28.4690   -0.7850   29.8287 C   0  0  0  0  0  0  0  0  0  0  0  0
  -27.0871    0.2903   28.6377 C   0  0  0  0  0  0  0  0  0  0  0  0
  -26.9102    0.8486   27.4199 C   0  0  0  0  0  0  0  0  0  0  0  0
  -27.8863   -0.5049   31.0945 C   0  0  0  0  0  0  0  0  0  0  0  0
  -26.8583    0.4896   31.0361 C   0  0  0  0  0  0  0  0  0  0  0  0
  -26.4721    0.9027   29.7780 C   0  0  0  0  0  0  0  0  0  0  0  0
  -25.6318    0.7699   27.0485 C   0  0  0  0  0  0  0  0  0  0  0  0
  -25.1502    1.4388   25.8495 C   0  0  0  0  0  0  0  0  0  0  0  0
  -23.7779    1.5005   25.5713 C   0  0  0  0  0  0  0  0  0  0  0  0
  -22.8488    1.3107   26.6200 C   0  0  0  0  0  0  0  0  0  0  0  0
  -23.3276    0.8344   27.8705 C   0  0  0  0  0  0  0  0  0  0  0  0
  -24.6382    0.5726   28.0771 C   0  0  0  0  0  0  0  0  0  0  0  0
  -27.6353    2.0372   27.1928 C   0  0  0  0  0  0  0  0  0  0  0  0
  -27.2921   -0.1447   26.4023 F   0  0  0  0  0  0  0  0  0  0  0  0
  -27.3372    3.1845   27.5588 O   0  0  0  0  0  0  0  0  0  0  0  0
  -28.9371    1.9172   26.8374 O   0  0  0  0  0  0  0  0  0  0  0  0
  3  4  1  0
  4  8  1  0
  4 14  1  0
  4 15  1  0
 14 16  2  0
 14 17  1  0
  8  9  2  0
  9 10  1  0
 10 11  2  0
 11 12  1  0
 12 13  2  0
 13  8  1  0
  1  2  2  0
  2  5  1  0
  5  6  2  0
  6  7  1  0
  7  3  2  0
  3  1  1  0
M  END

$$$$
