No_432-gen_results/8p0m/2024-11-26-14-13-15/
     RDKit          3D

 25 26  0  0  0  0  0  0  0  0999 V2000
  -28.0162   -0.8135   28.8779 C   0  0  0  0  0  0  0  0  0  0  0  0
  -27.0636   -0.1190   28.6079 C   0  0  0  0  0  0  0  0  0  0  0  0
  -26.8756    1.1325   28.9134 C   0  0  0  0  0  0  0  0  0  0  0  0
  -27.9014    1.8066   29.6436 C   0  0  0  0  0  0  0  0  0  0  0  0
  -29.0458   -0.2316   29.7181 C   0  0  0  0  0  0  0  0  0  0  0  0
  -28.9402    1.0517   30.0597 C   0  0  0  0  0  0  0  0  0  0  0  0
  -30.0593   -1.0632   30.0946 O   0  0  0  0  0  0  0  0  0  0  0  0
  -25.6684    1.9362   28.4484 C   0  0  0  0  0  0  0  0  0  0  0  0
  -24.9744    2.6172   28.9157 N   0  0  0  0  0  0  0  0  0  0  0  0
  -25.3709    1.7935   26.9695 C   0  0  0  0  0  0  0  0  0  0  0  0
  -24.3526    2.2842   26.5673 C   0  0  0  0  0  0  0  0  0  0  0  0
  -23.3910    3.0437   27.2120 C   0  0  0  0  0  0  0  0  0  0  0  0
  -23.7845    3.2088   28.5151 C   0  0  0  0  0  0  0  0  0  0  0  0
  -29.8571   -2.1383   30.8482 C   0  0  0  0  0  0  0  0  0  0  0  0
  -30.1376   -3.3587   30.2070 C   0  0  0  0  0  0  0  0  0  0  0  0
  -29.2988   -4.4682   30.6402 C   0  0  0  0  0  0  0  0  0  0  0  0
  -28.1163   -4.2724   30.7352 O   0  0  0  0  0  0  0  0  0  0  0  0
  -31.5339   -3.6303   30.5079 N   0  0  0  0  0  0  0  0  0  0  0  0
  -32.4486   -3.4840   29.6010 C   0  0  0  0  0  0  0  0  0  0  0  0
  -33.6220   -3.6898   29.8662 O   0  0  0  0  0  0  0  0  0  0  0  0
  -32.1342   -3.1034   28.1372 C   0  0  0  0  0  0  0  0  0  0  0  0
  -32.4792   -4.0476   27.2269 C   0  0  0  0  0  0  0  0  0  0  0  0
  -32.2126   -3.6156   26.0193 O   0  0  0  0  0  0  0  0  0  0  0  0
  -29.7968   -5.6070   30.9708 O   0  0  0  0  0  0  0  0  0  0  0  0
  -32.5927   -1.9028   27.7437 O   0  0  0  0  0  0  0  0  0  0  0  0
  5  7  1  0
  3  8  1  0
  7 14  1  0
 14 15  1  0
 15 16  1  0
 16 17  2  0
 15 18  1  0
 18 19  1  0
 19 20  2  0
 19 21  1  0
 21 22  1  0
 22 23  2  0
 16 24  1  0
 21 25  1  0
  1  2  2  0
  2  3  1  0
  3  4  2  0
  4  6  1  0
  6  5  2  0
  5  1  1  0
  8  9  2  0
  9 13  1  0
 13 12  2  0
 12 11  1  0
 11 10  2  0
 10  8  1  0
M  END

$$$$
