No_4331-gen_results/8p0m/2024-11-26-14-13-15/
     RDKit          3D

 35 38  0  0  0  0  0  0  0  0999 V2000
  -28.0162   -0.8135   28.8779 C   0  0  0  0  0  0  0  0  0  0  0  0
  -27.0636   -0.1189   28.6079 C   0  0  0  0  0  0  0  0  0  0  0  0
  -25.7647   -0.3897   29.0360 C   0  0  0  0  0  0  0  0  0  0  0  0
  -25.5296   -1.5302   29.9014 C   0  0  0  0  0  0  0  0  0  0  0  0
  -26.6888   -2.2893   30.1810 C   0  0  0  0  0  0  0  0  0  0  0  0
  -27.8727   -1.9508   29.7373 C   0  0  0  0  0  0  0  0  0  0  0  0
  -29.0016   -2.8142   30.1793 C   0  0  0  0  0  0  0  0  0  0  0  0
  -30.1410   -2.4192   30.1450 N   0  0  0  0  0  0  0  0  0  0  0  0
  -28.7175   -4.0960   30.3007 O   0  0  0  0  0  0  0  0  0  0  0  0
  -31.3070   -3.2860   30.4452 C   0  0  0  0  0  0  0  0  0  0  0  0
  -24.5378    0.4081   28.6854 C   0  0  0  0  0  0  0  0  0  0  0  0
  -24.5255    1.2464   27.6335 C   0  0  0  0  0  0  0  0  0  0  0  0
  -23.3059    1.9353   27.3140 C   0  0  0  0  0  0  0  0  0  0  0  0
  -22.1268    1.7276   27.9707 C   0  0  0  0  0  0  0  0  0  0  0  0
  -23.3066    0.1495   29.3611 C   0  0  0  0  0  0  0  0  0  0  0  0
  -22.1083    0.8276   29.0118 C   0  0  0  0  0  0  0  0  0  0  0  0
  -32.3775   -2.6403   30.8568 C   0  0  0  0  0  0  0  0  0  0  0  0
  -32.8067   -1.7257   30.0889 C   0  0  0  0  0  0  0  0  0  0  0  0
  -33.8675   -0.8384   30.4913 C   0  0  0  0  0  0  0  0  0  0  0  0
  -34.5568   -1.1777   31.6765 C   0  0  0  0  0  0  0  0  0  0  0  0
  -34.1565   -2.1958   32.4417 C   0  0  0  0  0  0  0  0  0  0  0  0
  -32.9854   -2.9572   32.0805 C   0  0  0  0  0  0  0  0  0  0  0  0
  -35.7470   -0.3570   32.0984 C   0  0  0  0  0  0  0  0  0  0  0  0
  -36.7868   -0.8249   32.3045 C   0  0  0  0  0  0  0  0  0  0  0  0
  -37.9649   -0.0277   32.7041 C   0  0  0  0  0  0  0  0  0  0  0  0
  -37.7881    1.3722   32.7365 C   0  0  0  0  0  0  0  0  0  0  0  0
  -36.5687    1.8988   32.4319 C   0  0  0  0  0  0  0  0  0  0  0  0
  -35.4699    1.0979   32.0931 C   0  0  0  0  0  0  0  0  0  0  0  0
  -36.3358    3.3604   32.4747 C   0  0  0  0  0  0  0  0  0  0  0  0
  -36.8460    4.1198   33.2539 N   0  0  0  0  0  0  0  0  0  0  0  0
  -35.4724    3.8202   31.6116 O   0  0  0  0  0  0  0  0  0  0  0  0
  -36.6771    5.5461   33.3118 C   0  0  0  0  0  0  0  0  0  0  0  0
  -37.0072    6.2953   34.0821 C   0  0  0  0  0  0  0  0  0  0  0  0
  -36.8443    7.7552   33.9830 C   0  0  0  0  0  0  0  0  0  0  0  0
  -36.1882    8.2261   32.8454 C   0  0  0  0  0  0  0  0  0  0  0  0
  6  7  1  0
  7  8  1  0
  7  9  2  0
  8 10  1  0
  3 11  1  0
 10 17  1  0
 20 23  1  0
 27 29  1  0
 29 30  1  0
 29 31  2  0
 30 32  1  0
 32 33  2  3
 33 34  1  0
 34 35  2  0
 17 18  2  0
 18 19  1  0
 19 20  2  0
 20 21  1  0
 21 22  2  0
 22 17  1  0
  1  2  2  0
  2  3  1  0
  3  4  2  0
  4  5  1  0
  5  6  2  0
  6  1  1  0
 23 24  2  0
 24 25  1  0
 25 26  2  0
 26 27  1  0
 27 28  2  0
 28 23  1  0
 11 12  2  0
 12 13  1  0
 13 14  2  0
 14 16  1  0
 16 15  2  0
 15 11  1  0
M  END

$$$$
