No_4419-gen_results/8p0m/2024-11-26-14-13-15/
     RDKit          3D

 18 19  0  0  0  0  0  0  0  0999 V2000
  -28.0162   -0.8135   28.8779 C   0  0  0  0  0  0  0  0  0  0  0  0
  -27.0636   -0.1189   28.6079 C   0  0  0  0  0  0  0  0  0  0  0  0
  -26.9287    1.1713   29.0083 C   0  0  0  0  0  0  0  0  0  0  0  0
  -27.9560    1.7411   29.7840 C   0  0  0  0  0  0  0  0  0  0  0  0
  -29.0569   -0.3271   29.7466 C   0  0  0  0  0  0  0  0  0  0  0  0
  -28.9828    0.9722   30.1516 C   0  0  0  0  0  0  0  0  0  0  0  0
  -25.7352   -0.7297   27.6631 Cl  0  0  0  0  0  0  0  0  0  0  0  0
  -30.0810    1.5109   31.0108 C   0  0  0  0  0  0  0  0  0  0  0  0
  -31.1301    1.7095   30.8945 C   0  0  0  0  0  0  0  0  0  0  0  0
  -32.0707    2.2777   31.8475 C   0  0  0  0  0  0  0  0  0  0  0  0
  -29.4780    1.8359   32.4146 C   0  0  0  0  0  0  0  0  0  0  0  0
  -30.3068    2.3882   33.3794 C   0  0  0  0  0  0  0  0  0  0  0  0
  -31.5943    2.6125   33.0865 C   0  0  0  0  0  0  0  0  0  0  0  0
  -32.6438    3.3016   34.2480 Cl  0  0  0  0  0  0  0  0  0  0  0  0
  -33.4835    2.4735   31.4464 C   0  0  0  0  0  0  0  0  0  0  0  0
  -34.0337    1.8032   30.6868 O   0  0  0  0  0  0  0  0  0  0  0  0
  -34.1311    3.2984   32.1030 O   0  0  0  0  0  0  0  0  0  0  0  0
  -30.3518   -1.3539   30.1653 Cl  0  0  0  0  0  0  0  0  0  0  0  0
  2  7  1  0
  6  8  1  0
 13 14  1  0
 10 15  1  0
 15 16  2  0
 15 17  1  0
  5 18  1  0
  8  9  2  0
  9 10  1  0
 10 13  2  0
 13 12  1  0
 12 11  2  0
 11  8  1  0
  1  2  2  0
  2  3  1  0
  3  4  2  0
  4  6  1  0
  6  5  2  0
  5  1  1  0
M  END

$$$$
