No_4266-gen_results/8p0m/2024-11-26-14-13-15/
     RDKit          3D

 17 18  0  0  0  0  0  0  0  0999 V2000
  -28.0162   -0.8135   28.8779 C   0  0  0  0  0  0  0  0  0  0  0  0
  -27.0636   -0.1189   28.6079 C   0  0  0  0  0  0  0  0  0  0  0  0
  -25.8176   -0.3427   29.0487 N   0  0  0  0  0  0  0  0  0  0  0  0
  -24.6757    0.3814   28.7496 C   0  0  0  0  0  0  0  0  0  0  0  0
  -23.3317    0.0231   29.2052 C   0  0  0  0  0  0  0  0  0  0  0  0
  -27.1812    0.9682   27.6388 C   0  0  0  0  0  0  0  0  0  0  0  0
  -26.0788    1.7596   27.1955 C   0  0  0  0  0  0  0  0  0  0  0  0
  -24.7013    1.4434   27.7655 C   0  0  0  0  0  0  0  0  0  0  0  0
  -23.1407   -0.9126   30.1707 C   0  0  0  0  0  0  0  0  0  0  0  0
  -22.2123    0.6751   28.6117 C   0  0  0  0  0  0  0  0  0  0  0  0
  -20.9244    0.1457   28.9622 C   0  0  0  0  0  0  0  0  0  0  0  0
  -24.1701   -1.4459   30.8346 N   0  0  0  0  0  0  0  0  0  0  0  0
  -20.8697   -1.0242   29.7244 C   0  0  0  0  0  0  0  0  0  0  0  0
  -21.8614   -1.4278   30.4905 C   0  0  0  0  0  0  0  0  0  0  0  0
  -28.4421   -0.3351   30.0676 F   0  0  0  0  0  0  0  0  0  0  0  0
  -27.5919   -2.1138   29.2095 F   0  0  0  0  0  0  0  0  0  0  0  0
  -29.0450   -0.8369   28.0967 F   0  0  0  0  0  0  0  0  0  0  0  0
  1  2  1  0
  4  5  1  0
  9 12  1  0
  1 15  1  0
  1 16  1  0
  1 17  1  0
  2  3  2  0
  3  4  1  0
  4  8  2  0
  8  7  1  0
  7  6  2  0
  6  2  1  0
  5  9  2  0
  9 14  1  0
 14 13  2  0
 13 11  1  0
 11 10  2  0
 10  5  1  0
M  END

$$$$
