No_4960-gen_results/8p0m/2024-11-26-14-13-15/
     RDKit          3D

 22 23  0  0  0  0  0  0  0  0999 V2000
  -28.0162   -0.8135   28.8779 C   0  0  0  0  0  0  0  0  0  0  0  0
  -27.0636   -0.1190   28.6079 C   0  0  0  0  0  0  0  0  0  0  0  0
  -25.7923   -0.4302   29.0761 C   0  0  0  0  0  0  0  0  0  0  0  0
  -24.5456    0.3494   28.8225 C   0  0  0  0  0  0  0  0  0  0  0  0
  -23.2409    0.0217   29.3323 C   0  0  0  0  0  0  0  0  0  0  0  0
  -27.8820   -1.8995   29.8633 C   0  0  0  0  0  0  0  0  0  0  0  0
  -26.6526   -2.3142   30.3138 C   0  0  0  0  0  0  0  0  0  0  0  0
  -25.5153   -1.5607   29.9787 C   0  0  0  0  0  0  0  0  0  0  0  0
  -22.1645    0.7936   28.9524 C   0  0  0  0  0  0  0  0  0  0  0  0
  -22.1241    1.7484   27.9889 C   0  0  0  0  0  0  0  0  0  0  0  0
  -24.3434    1.1968   27.6433 C   0  0  0  0  0  0  0  0  0  0  0  0
  -23.2700    1.9328   27.3447 C   0  0  0  0  0  0  0  0  0  0  0  0
  -28.9623   -2.6534   30.2417 O   0  0  0  0  0  0  0  0  0  0  0  0
  -23.3698    2.8313   26.3311 O   0  0  0  0  0  0  0  0  0  0  0  0
  -28.8372   -3.9341   30.6823 C   0  0  0  0  0  0  0  0  0  0  0  0
  -29.8921   -4.2472   31.6522 C   0  0  0  0  0  0  0  0  0  0  0  0
  -30.3627   -3.3408   32.3192 C   0  0  0  0  0  0  0  0  0  0  0  0
  -29.7370   -2.3220   32.7039 C   0  0  0  0  0  0  0  0  0  0  0  0
  -30.2801   -1.2626   33.4898 C   0  0  0  0  0  0  0  0  0  0  0  0
  -29.4127   -0.3392   34.1015 C   0  0  0  0  0  0  0  0  0  0  0  0
  -28.0276   -0.2010   33.7252 C   0  0  0  0  0  0  0  0  0  0  0  0
  -27.5261   -1.2550   32.9161 C   0  0  0  0  0  0  0  0  0  0  0  0
  3  4  1  0
  6 13  1  0
 12 14  1  0
 13 15  1  0
 15 16  1  0
 16 17  1  0
 17 18  2  3
 18 19  1  0
 19 20  2  3
 20 21  1  0
 21 22  2  0
  1  2  2  0
  2  3  1  0
  3  8  2  0
  8  7  1  0
  7  6  2  0
  6  1  1  0
  4  5  2  0
  5  9  1  0
  9 10  2  0
 10 12  1  0
 12 11  2  0
 11  4  1  0
M  END

$$$$
