No_4575-gen_results/8p0m/2024-11-26-14-13-15/
     RDKit          3D

 35 37  0  0  0  0  0  0  0  0999 V2000
  -28.1493   -0.8198   28.9079 Cl  0  0  0  0  0  0  0  0  0  0  0  0
  -26.9116   -0.0797   28.9452 C   0  0  0  0  0  0  0  0  0  0  0  0
  -26.7384    1.0439   29.2534 C   0  0  0  0  0  0  0  0  0  0  0  0
  -25.4392    1.7115   29.2755 C   0  0  0  0  0  0  0  0  0  0  0  0
  -24.2812    0.9888   28.8542 C   0  0  0  0  0  0  0  0  0  0  0  0
  -24.4868   -0.3041   28.4957 C   0  0  0  0  0  0  0  0  0  0  0  0
  -25.7046   -0.8667   28.5244 C   0  0  0  0  0  0  0  0  0  0  0  0
  -22.9690    1.6346   28.7977 C   0  0  0  0  0  0  0  0  0  0  0  0
  -21.8929    0.9368   28.5399 N   0  0  0  0  0  0  0  0  0  0  0  0
  -22.9132    2.9053   28.6664 O   0  0  0  0  0  0  0  0  0  0  0  0
  -21.7203   -0.4454   28.7055 C   0  0  0  0  0  0  0  0  0  0  0  0
  -20.4744   -0.6941   29.2397 C   0  0  0  0  0  0  0  0  0  0  0  0
  -27.8258    1.9766   29.7374 C   0  0  0  0  0  0  0  0  0  0  0  0
  -28.4363    1.8330   30.7440 C   0  0  0  0  0  0  0  0  0  0  0  0
  -28.0850    0.8301   31.7893 C   0  0  0  0  0  0  0  0  0  0  0  0
  -26.9238    0.4687   32.0249 C   0  0  0  0  0  0  0  0  0  0  0  0
  -26.5951   -0.4211   33.2070 C   0  0  0  0  0  0  0  0  0  0  0  0
  -27.6881   -0.8717   33.8817 C   0  0  0  0  0  0  0  0  0  0  0  0
  -28.9446   -0.5489   33.6120 C   0  0  0  0  0  0  0  0  0  0  0  0
  -29.2151    0.3491   32.6236 C   0  0  0  0  0  0  0  0  0  0  0  0
  -28.1080    3.0513   28.7628 C   0  0  0  0  0  0  0  0  0  0  0  0
  -29.2079    3.7048   28.9078 C   0  0  0  0  0  0  0  0  0  0  0  0
  -29.9482    3.5684   30.1357 C   0  0  0  0  0  0  0  0  0  0  0  0
  -29.5937    2.6891   31.0909 C   0  0  0  0  0  0  0  0  0  0  0  0
  -30.0711   -1.0652   34.4418 C   0  0  0  0  0  0  0  0  0  0  0  0
  -30.4514   -0.4561   35.3979 N   0  0  0  0  0  0  0  0  0  0  0  0
  -31.1932    0.0692   35.9058 C   0  0  0  0  0  0  0  0  0  0  0  0
  -32.4844    0.1330   35.2696 C   0  0  0  0  0  0  0  0  0  0  0  0
  -31.1076    1.1706   37.3736 P   0  0  0  0  0  0  0  0  0  0  0  0
  -32.1201    1.5102   37.8959 O   0  0  0  0  0  0  0  0  0  0  0  0
  -30.2238    2.3256   36.9139 O   0  0  0  0  0  0  0  0  0  0  0  0
  -30.1397    0.2432   38.2234 O   0  0  0  0  0  0  0  0  0  0  0  0
  -30.5300   -2.2193   34.1941 O   0  0  0  0  0  0  0  0  0  0  0  0
  -33.2574   -0.9462   35.3505 C   0  0  0  0  0  0  0  0  0  0  0  0
  -33.2894   -1.7190   36.3448 C   0  0  0  0  0  0  0  0  0  0  0  0
  1  2  1  0
  5  8  1  0
  8  9  1  0
  8 10  2  0
  9 11  1  0
 11 12  2  0
  3 13  1  0
 14 15  1  0
 19 25  1  0
 25 26  1  0
 26 27  1  0
 27 28  2  3
 27 29  1  0
 29 30  1  0
 29 31  2  0
 29 32  1  0
 25 33  2  0
 28 34  1  0
 34 35  2  0
 15 16  2  0
 16 17  1  0
 17 18  2  0
 18 19  1  0
 19 20  2  0
 20 15  1  0
  2  3  2  0
  3  4  1  0
  4  5  2  0
  5  6  1  0
  6  7  2  0
  7  2  1  0
 13 14  2  0
 14 24  1  0
 24 23  2  0
 23 22  1  0
 22 21  2  0
 21 13  1  0
M  END

$$$$
