No_4498-gen_results/8p0m/2024-11-26-14-13-15/
     RDKit          3D

 15 16  0  0  0  0  0  0  0  0999 V2000
  -28.0162   -0.8135   28.8779 C   0  0  0  0  0  0  0  0  0  0  0  0
  -27.0636   -0.1189   28.6079 C   0  0  0  0  0  0  0  0  0  0  0  0
  -27.0010    0.6913   27.4910 C   0  0  0  0  0  0  0  0  0  0  0  0
  -28.1373    0.7363   26.6350 C   0  0  0  0  0  0  0  0  0  0  0  0
  -29.2360    0.0765   27.0690 C   0  0  0  0  0  0  0  0  0  0  0  0
  -29.2177   -0.6429   28.1747 C   0  0  0  0  0  0  0  0  0  0  0  0
  -30.3423    0.1617   26.2790 O   0  0  0  0  0  0  0  0  0  0  0  0
  -25.7291   -0.2038   29.3995 C   0  0  0  0  0  0  0  0  0  0  0  0
  -25.2367    1.0088   30.0520 C   0  0  0  0  0  0  0  0  0  0  0  0
  -25.8807    2.1002   30.1147 C   0  0  0  0  0  0  0  0  0  0  0  0
  -25.2687    3.2105   30.8116 C   0  0  0  0  0  0  0  0  0  0  0  0
  -25.9289    4.4725   30.9104 C   0  0  0  0  0  0  0  0  0  0  0  0
  -27.0733    4.6707   30.1737 C   0  0  0  0  0  0  0  0  0  0  0  0
  -27.5808    3.6593   29.4223 C   0  0  0  0  0  0  0  0  0  0  0  0
  -26.9792    2.4547   29.3910 C   0  0  0  0  0  0  0  0  0  0  0  0
  5  7  1  0
  2  8  1  0
  8  9  2  3
  9 10  1  0
  1  2  2  0
  2  3  1  0
  3  4  2  0
  4  5  1  0
  5  6  2  0
  6  1  1  0
 10 11  2  0
 11 12  1  0
 12 13  2  0
 13 14  1  0
 14 15  2  0
 15 10  1  0
M  END

$$$$
