No_4410-gen_results/8p0m/2024-11-26-14-13-15/
     RDKit          3D

 24 26  0  0  0  0  0  0  0  0999 V2000
  -28.0162   -0.8135   28.8779 C   0  0  0  0  0  0  0  0  0  0  0  0
  -27.0636   -0.1190   28.6079 C   0  0  0  0  0  0  0  0  0  0  0  0
  -25.7923   -0.4302   29.0761 C   0  0  0  0  0  0  0  0  0  0  0  0
  -24.5456    0.3494   28.8225 C   0  0  0  0  0  0  0  0  0  0  0  0
  -23.2409    0.0217   29.3323 C   0  0  0  0  0  0  0  0  0  0  0  0
  -23.1926   -1.2816   29.8967 C   0  0  0  0  0  0  0  0  0  0  0  0
  -27.8703   -1.9138   29.8642 C   0  0  0  0  0  0  0  0  0  0  0  0
  -26.6310   -2.3256   30.2990 C   0  0  0  0  0  0  0  0  0  0  0  0
  -25.5115   -1.5728   29.9655 C   0  0  0  0  0  0  0  0  0  0  0  0
  -24.2167   -1.9673   30.3246 C   0  0  0  0  0  0  0  0  0  0  0  0
  -24.5912    1.5912   27.9920 C   0  0  0  0  0  0  0  0  0  0  0  0
  -23.6429    1.7197   26.9963 C   0  0  0  0  0  0  0  0  0  0  0  0
  -23.7354    2.8606   26.1435 C   0  0  0  0  0  0  0  0  0  0  0  0
  -24.5079    2.8860   28.8328 C   0  0  0  0  0  0  0  0  0  0  0  0
  -25.0289    4.0297   28.0752 C   0  0  0  0  0  0  0  0  0  0  0  0
  -25.3487    5.2059   28.7844 C   0  0  0  0  0  0  0  0  0  0  0  0
  -24.5655    4.0464   26.6717 C   0  0  0  0  0  0  0  0  0  0  0  0
  -25.7792    5.0966   29.8906 O   0  0  0  0  0  0  0  0  0  0  0  0
  -25.5507    6.3583   28.0441 N   0  0  0  0  0  0  0  0  0  0  0  0
  -25.9825    7.6218   28.6625 C   0  0  0  0  0  0  0  0  0  0  0  0
  -29.1131   -2.6931   30.2222 C   0  0  0  0  0  0  0  0  0  0  0  0
  -29.3536   -2.6921   31.5286 O   0  0  0  0  0  0  0  0  0  0  0  0
  -30.6081   -2.3806   31.9125 C   0  0  0  0  0  0  0  0  0  0  0  0
  -31.3263   -3.3469   32.0245 C   0  0  0  0  0  0  0  0  0  0  0  0
  4 11  1  0
 15 16  1  0
 16 18  2  0
 16 19  1  0
 19 20  1  0
  7 21  1  0
 21 22  1  0
 22 23  1  0
 23 24  2  0
 11 12  2  0
 12 13  1  0
 13 17  2  0
 17 15  1  0
 15 14  2  0
 14 11  1  0
  1  2  2  0
  2  3  1  0
  9  8  1  0
  8  7  2  0
  7  1  1  0
  3  4  2  0
  4  5  1  0
  5  6  2  0
  6 10  1  0
 10  9  2  0
  9  3  1  0
M  END

$$$$
