No_427-gen_results/8p0m/2024-11-26-14-13-15/
     RDKit          3D

 18 19  0  0  0  0  0  0  0  0999 V2000
  -28.0162   -0.8135   28.8779 C   0  0  0  0  0  0  0  0  0  0  0  0
  -28.4690   -0.7850   29.8287 C   0  0  0  0  0  0  0  0  0  0  0  0
  -28.1960    0.3478   28.0550 C   0  0  0  0  0  0  0  0  0  0  0  0
  -29.0191    1.3501   28.3782 C   0  0  0  0  0  0  0  0  0  0  0  0
  -29.4107    0.1803   30.3782 C   0  0  0  0  0  0  0  0  0  0  0  0
  -29.6059    1.2495   29.6193 C   0  0  0  0  0  0  0  0  0  0  0  0
  -27.4598    0.3802   26.7091 C   0  0  0  0  0  0  0  0  0  0  0  0
  -26.0095    0.3317   26.7236 C   0  0  0  0  0  0  0  0  0  0  0  0
  -25.2570    1.3161   27.3387 C   0  0  0  0  0  0  0  0  0  0  0  0
  -23.8757    1.1200   27.5503 C   0  0  0  0  0  0  0  0  0  0  0  0
  -23.0019    2.2258   27.5778 C   0  0  0  0  0  0  0  0  0  0  0  0
  -23.6017    3.3985   27.5337 N   0  0  0  0  0  0  0  0  0  0  0  0
  -25.1011    2.7962   26.7018 C   0  0  0  0  0  0  0  0  0  0  0  0
  -28.1348    0.5146   25.5291 C   0  0  0  0  0  0  0  0  0  0  0  0
  -27.6892   -0.1972   24.5963 F   0  0  0  0  0  0  0  0  0  0  0  0
  -29.5672    0.3176   25.6176 N   0  0  0  0  0  0  0  0  0  0  0  0
  -27.9920    2.0273   25.0028 C   0  0  0  0  0  0  0  0  0  0  0  0
  -30.5252    0.6527   24.7900 C   0  0  0  0  0  0  0  0  0  0  0  0
  3  7  1  0
  7  8  1  0
  8  9  1  0
  9 10  2  0
 10 11  1  0
 11 12  2  0
  9 13  1  0
 12 13  1  0
  7 14  1  0
 14 15  1  0
 14 16  1  0
 14 17  1  0
 16 18  1  0
  1  2  2  0
  2  5  1  0
  5  6  2  0
  6  4  1  0
  4  3  2  0
  3  1  1  0
M  END

$$$$
