No_4222-gen_results/8p0m/2024-11-26-14-13-15/
     RDKit          3D

 30 31  0  0  0  0  0  0  0  0999 V2000
  -28.0162   -0.8135   28.8779 C   0  0  0  0  0  0  0  0  0  0  0  0
  -27.0636   -0.1190   28.6079 C   0  0  0  0  0  0  0  0  0  0  0  0
  -25.7647   -0.3897   29.0360 C   0  0  0  0  0  0  0  0  0  0  0  0
  -25.5296   -1.5302   29.9014 C   0  0  0  0  0  0  0  0  0  0  0  0
  -26.6888   -2.2893   30.1810 C   0  0  0  0  0  0  0  0  0  0  0  0
  -27.8727   -1.9508   29.7373 C   0  0  0  0  0  0  0  0  0  0  0  0
  -24.5491    0.4100   28.7341 C   0  0  0  0  0  0  0  0  0  0  0  0
  -24.0931    1.3779   29.5761 C   0  0  0  0  0  0  0  0  0  0  0  0
  -24.9550    1.8355   30.9163 Cl  0  0  0  0  0  0  0  0  0  0  0  0
  -23.0476    2.1011   29.3182 O   0  0  0  0  0  0  0  0  0  0  0  0
  -29.0501   -2.7836   30.1549 C   0  0  0  0  0  0  0  0  0  0  0  0
  -29.3460   -2.8475   31.4148 N   0  0  0  0  0  0  0  0  0  0  0  0
  -30.5564   -2.5585   31.8102 C   0  0  0  0  0  0  0  0  0  0  0  0
  -31.4255   -2.1368   31.1065 C   0  0  0  0  0  0  0  0  0  0  0  0
  -30.8019   -2.7495   33.3195 C   0  0  0  0  0  0  0  0  0  0  0  0
  -32.8201   -1.8069   31.5325 C   0  0  0  0  0  0  0  0  0  0  0  0
  -32.1029   -2.4294   33.7697 C   0  0  0  0  0  0  0  0  0  0  0  0
  -33.0529   -1.9600   32.9001 C   0  0  0  0  0  0  0  0  0  0  0  0
  -29.5704   -3.5184   29.4692 O   0  0  0  0  0  0  0  0  0  0  0  0
  -34.4125   -1.6219   33.3785 C   0  0  0  0  0  0  0  0  0  0  0  0
  -35.3367   -1.8998   33.1031 O   0  0  0  0  0  0  0  0  0  0  0  0
  -34.2499   -0.7675   34.5060 O   0  0  0  0  0  0  0  0  0  0  0  0
  -23.8816    0.2240   27.4655 C   0  0  0  0  0  0  0  0  0  0  0  0
  -24.0230    1.2591   26.4941 C   0  0  0  0  0  0  0  0  0  0  0  0
  -23.0128    2.2252   26.4757 C   0  0  0  0  0  0  0  0  0  0  0  0
  -25.0374    1.2395   25.5542 C   0  0  0  0  0  0  0  0  0  0  0  0
  -25.3857    0.2554   24.8682 C   0  0  0  0  0  0  0  0  0  0  0  0
  -26.6279    0.1229   24.1416 C   0  0  0  0  0  0  0  0  0  0  0  0
  -27.5695    1.1994   24.4054 C   0  0  0  0  0  0  0  0  0  0  0  0
  -27.2124    2.3170   25.2046 C   0  0  0  0  0  0  0  0  0  0  0  0
  3  7  1  0
  7  8  1  0
  8  9  1  0
  8 10  2  0
  6 11  1  0
 11 12  1  0
 12 13  1  0
 11 19  2  0
 18 20  1  0
 20 21  1  0
 20 22  2  0
  7 23  1  0
 23 24  1  0
 24 25  1  0
 24 26  1  0
 26 27  2  3
 27 28  1  0
 28 29  2  3
 29 30  1  0
  1  2  2  0
  2  3  1  0
  3  4  2  0
  4  5  1  0
  5  6  2  0
  6  1  1  0
 13 14  2  0
 14 16  1  0
 16 18  2  0
 18 17  1  0
 17 15  2  0
 15 13  1  0
M  END

$$$$
