No_4349-gen_results/8p0m/2024-11-26-14-13-15/
     RDKit          3D

 20 21  0  0  0  0  0  0  0  0999 V2000
  -28.0162   -0.8135   28.8779 C   0  0  0  0  0  0  0  0  0  0  0  0
  -27.0636   -0.1190   28.6079 C   0  0  0  0  0  0  0  0  0  0  0  0
  -25.7647   -0.3897   29.0360 C   0  0  0  0  0  0  0  0  0  0  0  0
  -25.5296   -1.5303   29.9014 C   0  0  0  0  0  0  0  0  0  0  0  0
  -26.6888   -2.2893   30.1810 C   0  0  0  0  0  0  0  0  0  0  0  0
  -27.8727   -1.9508   29.7373 C   0  0  0  0  0  0  0  0  0  0  0  0
  -24.3819    0.5593   28.6789 Cl  0  0  0  0  0  0  0  0  0  0  0  0
  -29.0263   -2.8156   30.1581 C   0  0  0  0  0  0  0  0  0  0  0  0
  -29.3427   -2.8896   31.3966 N   0  0  0  0  0  0  0  0  0  0  0  0
  -29.8016   -3.9675   31.9133 C   0  0  0  0  0  0  0  0  0  0  0  0
  -30.2140   -5.0452   31.0950 C   0  0  0  0  0  0  0  0  0  0  0  0
  -29.8913   -4.9758   29.7390 C   0  0  0  0  0  0  0  0  0  0  0  0
  -29.1056   -3.9394   29.4802 N   0  0  0  0  0  0  0  0  0  0  0  0
  -30.9287   -6.2414   31.6144 C   0  0  0  0  0  0  0  0  0  0  0  0
  -32.0675   -5.9910   31.9536 O   0  0  0  0  0  0  0  0  0  0  0  0
  -30.3738   -7.3750   31.6818 O   0  0  0  0  0  0  0  0  0  0  0  0
  -26.9230    1.0903   27.6051 C   0  0  0  0  0  0  0  0  0  0  0  0
  -26.8697    2.2170   28.0102 N   0  0  0  0  0  0  0  0  0  0  0  0
  -27.2582    0.8029   26.3625 O   0  0  0  0  0  0  0  0  0  0  0  0
  -26.8682    3.3858   27.1142 C   0  0  0  0  0  0  0  0  0  0  0  0
  3  7  1  0
  6  8  1  0
 11 14  1  0
 14 15  2  0
 14 16  1  0
  2 17  1  0
 17 18  1  0
 17 19  2  0
 18 20  1  0
  1  2  2  0
  2  3  1  0
  3  4  2  0
  4  5  1  0
  5  6  2  0
  6  1  1  0
  8  9  2  0
  9 10  1  0
 10 11  2  0
 11 12  1  0
 12 13  2  0
 13  8  1  0
M  END

$$$$
