No_4375-gen_results/8p0m/2024-11-26-14-13-15/
     RDKit          3D

 35 39  0  0  0  0  0  0  0  0999 V2000
  -28.0162   -0.8135   28.8779 C   0  0  0  0  0  0  0  0  0  0  0  0
  -27.0636   -0.1189   28.6079 C   0  0  0  0  0  0  0  0  0  0  0  0
  -26.8756    1.1325   28.9134 C   0  0  0  0  0  0  0  0  0  0  0  0
  -25.6883    1.9515   28.5672 C   0  0  0  0  0  0  0  0  0  0  0  0
  -24.6394    1.2834   27.8753 C   0  0  0  0  0  0  0  0  0  0  0  0
  -24.8181   -0.0802   27.6166 C   0  0  0  0  0  0  0  0  0  0  0  0
  -25.9311   -0.7717   27.9696 C   0  0  0  0  0  0  0  0  0  0  0  0
  -28.0898   -1.4945   30.2341 C   0  0  0  0  0  0  0  0  0  0  0  0
  -29.2073   -2.2991   30.6512 C   0  0  0  0  0  0  0  0  0  0  0  0
  -30.3614   -2.0537   30.0100 C   0  0  0  0  0  0  0  0  0  0  0  0
  -30.4489   -1.1712   28.9719 C   0  0  0  0  0  0  0  0  0  0  0  0
  -29.3379   -0.5404   28.4879 C   0  0  0  0  0  0  0  0  0  0  0  0
  -23.4153    1.9561   27.5135 C   0  0  0  0  0  0  0  0  0  0  0  0
  -23.3161    2.9902   28.0618 F   0  0  0  0  0  0  0  0  0  0  0  0
  -22.3398    1.0892   27.7793 F   0  0  0  0  0  0  0  0  0  0  0  0
  -23.4083    2.1653   26.1894 F   0  0  0  0  0  0  0  0  0  0  0  0
  -29.4368    0.2487   27.4179 O   0  0  0  0  0  0  0  0  0  0  0  0
  -29.3349    1.4797   27.3338 C   0  0  0  0  0  0  0  0  0  0  0  0
  -28.9214    2.0207   26.1279 C   0  0  0  0  0  0  0  0  0  0  0  0
  -29.7782    2.3416   28.3696 C   0  0  0  0  0  0  0  0  0  0  0  0
  -29.7592    3.6970   28.2438 C   0  0  0  0  0  0  0  0  0  0  0  0
  -28.8611    3.4435   25.9748 C   0  0  0  0  0  0  0  0  0  0  0  0
  -29.3131    4.2829   27.0319 C   0  0  0  0  0  0  0  0  0  0  0  0
  -28.4125    1.2247   25.0628 C   0  0  0  0  0  0  0  0  0  0  0  0
  -28.6034    1.2864   23.9960 C   0  0  0  0  0  0  0  0  0  0  0  0
  -27.3720    0.2169   25.5430 C   0  0  0  0  0  0  0  0  0  0  0  0
  -26.7498   -0.5467   24.5184 C   0  0  0  0  0  0  0  0  0  0  0  0
  -29.6470    2.2650   23.5527 C   0  0  0  0  0  0  0  0  0  0  0  0
  -30.5505    2.0295   22.4805 C   0  0  0  0  0  0  0  0  0  0  0  0
  -31.8418    2.4915   22.7665 C   0  0  0  0  0  0  0  0  0  0  0  0
  -32.1502    3.5290   23.6722 C   0  0  0  0  0  0  0  0  0  0  0  0
  -31.1584    3.8192   24.6420 C   0  0  0  0  0  0  0  0  0  0  0  0
  -30.0267    3.1607   24.6210 C   0  0  0  0  0  0  0  0  0  0  0  0
  -29.2780    5.7587   26.8533 C   0  0  0  0  0  0  0  0  0  0  0  0
  -27.5835    3.9680   25.3266 C   0  0  0  0  0  0  0  0  0  0  0  0
  5 13  1  0
 13 14  1  0
 13 15  1  0
 13 16  1  0
 12 17  1  0
 17 18  1  0
 18 20  1  0
 19 22  1  0
 21 23  1  0
 22 23  1  0
 19 24  1  0
 24 26  1  0
 26 27  2  0
 25 28  1  0
 22 33  1  0
 23 34  1  0
 22 35  1  0
  1  2  1  0
 19 18  1  0
 20 21  1  0
 24 25  1  0
  2  3  2  0
  3  4  1  0
  4  5  2  0
  5  6  1  0
  6  7  2  0
  7  2  1  0
 28 29  2  0
 29 30  1  0
 30 31  2  0
 31 32  1  0
 32 33  2  0
 33 28  1  0
  1  8  2  0
  8  9  1  0
  9 10  2  0
 10 11  1  0
 11 12  2  0
 12  1  1  0
M  END

$$$$
