No_4006-gen_results/8p0m/2024-11-26-14-13-15/
     RDKit          3D

 22 23  0  0  0  0  0  0  0  0999 V2000
  -28.0162   -0.8135   28.8779 C   0  0  0  0  0  0  0  0  0  0  0  0
  -28.4690   -0.7850   29.8287 C   0  0  0  0  0  0  0  0  0  0  0  0
  -26.5041   -0.7777   28.8766 C   0  0  0  0  0  0  0  0  0  0  0  0
  -25.8103   -0.8531   30.1028 C   0  0  0  0  0  0  0  0  0  0  0  0
  -27.9906   -0.8916   31.2257 C   0  0  0  0  0  0  0  0  0  0  0  0
  -26.6042   -0.8676   31.2652 C   0  0  0  0  0  0  0  0  0  0  0  0
  -30.2937   -0.8377   29.8355 Cl  0  0  0  0  0  0  0  0  0  0  0  0
  -24.4554   -0.8153   30.1264 N   0  0  0  0  0  0  0  0  0  0  0  0
  -23.8167    0.4686   30.1398 C   0  0  0  0  0  0  0  0  0  0  0  0
  -24.2334    1.5924   30.2447 C   0  0  0  0  0  0  0  0  0  0  0  0
  -22.6929    0.3680   29.0653 C   0  0  0  0  0  0  0  0  0  0  0  0
  -23.8352   -1.6033   31.2241 C   0  0  0  0  0  0  0  0  0  0  0  0
  -22.0882    1.4715   28.4819 C   0  0  0  0  0  0  0  0  0  0  0  0
  -22.7451    1.8665   27.4057 C   0  0  0  0  0  0  0  0  0  0  0  0
  -24.1124    1.6844   27.0856 C   0  0  0  0  0  0  0  0  0  0  0  0
  -24.5984    2.1818   25.8428 C   0  0  0  0  0  0  0  0  0  0  0  0
  -25.8953    1.9481   25.4704 C   0  0  0  0  0  0  0  0  0  0  0  0
  -26.2314    0.6868   25.1693 C   0  0  0  0  0  0  0  0  0  0  0  0
  -27.5195    0.2622   24.7762 C   0  0  0  0  0  0  0  0  0  0  0  0
  -28.5034    1.2129   24.6856 C   0  0  0  0  0  0  0  0  0  0  0  0
  -28.2427    2.5869   25.0055 C   0  0  0  0  0  0  0  0  0  0  0  0
  -26.9437    2.9692   25.3880 C   0  0  0  0  0  0  0  0  0  0  0  0
  2  7  1  0
  4  8  1  0
  8  9  1  0
  9 10  1  0
  9 11  1  0
  8 12  1  0
 11 13  1  0
 13 14  1  0
 14 15  2  3
 15 16  1  0
 16 17  1  0
 17 18  2  0
 18 19  1  0
 19 20  2  0
 20 21  1  0
 21 22  2  0
 22 17  1  0
  1  2  2  0
  2  5  1  0
  5  6  2  0
  6  4  1  0
  4  3  2  0
  3  1  1  0
M  END

$$$$
