No_4137-gen_results/8p0m/2024-11-26-14-13-15/
     RDKit          3D

 11 12  0  0  0  0  0  0  0  0999 V2000
  -28.0162   -0.8135   28.8779 C   0  0  0  0  0  0  0  0  0  0  0  0
  -28.4690   -0.7850   29.8287 C   0  0  0  0  0  0  0  0  0  0  0  0
  -27.1356    0.2359   28.5352 C   0  0  0  0  0  0  0  0  0  0  0  0
  -26.3351    0.2900   27.2835 C   0  0  0  0  0  0  0  0  0  0  0  0
  -28.3692    0.1957   30.9236 C   0  0  0  0  0  0  0  0  0  0  0  0
  -29.0527    0.1733   32.1679 C   0  0  0  0  0  0  0  0  0  0  0  0
  -25.3339    1.1767   27.1512 C   0  0  0  0  0  0  0  0  0  0  0  0
  -24.9890    2.0908   28.1533 C   0  0  0  0  0  0  0  0  0  0  0  0
  -25.6449    2.0219   29.3262 C   0  0  0  0  0  0  0  0  0  0  0  0
  -26.5955    1.1094   29.5635 C   0  0  0  0  0  0  0  0  0  0  0  0
  -27.3162    1.0876   30.7137 C   0  0  0  0  0  0  0  0  0  0  0  0
  5  6  1  0
  3  4  2  0
  4  7  1  0
  7  8  2  0
  8  9  1  0
  9 10  2  0
  1  2  2  0
  2  5  1  0
  5 11  2  0
 11 10  1  0
 10  3  1  0
  3  1  1  0
M  END

$$$$
