No_4972-gen_results/8p0m/2024-11-26-14-13-15/
     RDKit          3D

 30 32  0  0  0  0  0  0  0  0999 V2000
  -28.0162   -0.8135   28.8779 C   0  0  0  0  0  0  0  0  0  0  0  0
  -28.4690   -0.7850   29.8287 C   0  0  0  0  0  0  0  0  0  0  0  0
  -26.5042   -0.7777   28.8766 C   0  0  0  0  0  0  0  0  0  0  0  0
  -25.8103   -0.8531   30.1028 C   0  0  0  0  0  0  0  0  0  0  0  0
  -27.9906   -0.8916   31.2257 C   0  0  0  0  0  0  0  0  0  0  0  0
  -26.6042   -0.8676   31.2652 C   0  0  0  0  0  0  0  0  0  0  0  0
  -29.9203   -0.8331   29.8239 F   0  0  0  0  0  0  0  0  0  0  0  0
  -24.3796   -0.8022   30.1424 C   0  0  0  0  0  0  0  0  0  0  0  0
  -23.8075    0.5641   30.1478 C   0  0  0  0  0  0  0  0  0  0  0  0
  -24.2519    1.6206   30.5267 C   0  0  0  0  0  0  0  0  0  0  0  0
  -25.5317    1.6829   31.1507 C   0  0  0  0  0  0  0  0  0  0  0  0
  -25.9638    3.0639   31.6129 C   0  0  0  0  0  0  0  0  0  0  0  0
  -25.2504    4.1008   31.1664 C   0  0  0  0  0  0  0  0  0  0  0  0
  -24.1368    4.0133   30.4138 C   0  0  0  0  0  0  0  0  0  0  0  0
  -23.5960    2.8090   30.1424 C   0  0  0  0  0  0  0  0  0  0  0  0
  -22.4025    0.4295   29.4743 C   0  0  0  0  0  0  0  0  0  0  0  0
  -25.4838   -0.6433   27.2993 Br  0  0  0  0  0  0  0  0  0  0  0  0
  -21.6442   -0.3269   30.0240 F   0  0  0  0  0  0  0  0  0  0  0  0
  -22.5746    0.1447   28.1169 F   0  0  0  0  0  0  0  0  0  0  0  0
  -21.7042    1.4885   29.4556 F   0  0  0  0  0  0  0  0  0  0  0  0
  -27.1008    3.1146   32.2919 F   0  0  0  0  0  0  0  0  0  0  0  0
  -25.7604    5.3204   31.5885 O   0  0  0  0  0  0  0  0  0  0  0  0
  -26.0405    6.2494   31.3382 C   0  0  0  0  0  0  0  0  0  0  0  0
  -26.8769    6.9145   31.3266 C   0  0  0  0  0  0  0  0  0  0  0  0
  -28.1063    6.4860   32.0576 C   0  0  0  0  0  0  0  0  0  0  0  0
  -28.0939    5.9698   33.0469 C   0  0  0  0  0  0  0  0  0  0  0  0
  -29.3039    5.5512   33.8780 C   0  0  0  0  0  0  0  0  0  0  0  0
  -30.5030    5.7399   33.2119 C   0  0  0  0  0  0  0  0  0  0  0  0
  -30.5568    6.3481   31.9828 C   0  0  0  0  0  0  0  0  0  0  0  0
  -29.4208    6.7885   31.4084 C   0  0  0  0  0  0  0  0  0  0  0  0
  2  7  1  0
  4  8  1  0
  8  9  1  0
  9 16  1  0
  3 17  1  0
 16 18  1  0
 16 19  1  0
 16 20  1  0
 12 21  1  0
 13 22  1  0
 22 23  1  0
 23 24  2  3
 24 25  1  0
  9 10  1  0
 25 26  2  0
 26 27  1  0
 27 28  2  0
 28 29  1  0
 29 30  2  0
 30 25  1  0
  1  2  2  0
  2  5  1  0
  5  6  2  0
  6  4  1  0
  4  3  2  0
  3  1  1  0
 10 11  2  0
 11 12  1  0
 12 13  2  0
 13 14  1  0
 14 15  2  0
 15 10  1  0
M  END

$$$$
