No_4177-gen_results/8p0m/2024-11-26-14-13-15/
     RDKit          3D

 14 15  0  0  0  0  0  0  0  0999 V2000
  -28.0162   -0.8135   28.8779 C   0  0  0  0  0  0  0  0  0  0  0  0
  -27.0636   -0.1189   28.6079 C   0  0  0  0  0  0  0  0  0  0  0  0
  -26.9716    0.7139   27.5060 C   0  0  0  0  0  0  0  0  0  0  0  0
  -28.1053    0.7744   26.6421 C   0  0  0  0  0  0  0  0  0  0  0  0
  -29.2008    0.1044   27.0527 C   0  0  0  0  0  0  0  0  0  0  0  0
  -29.2096   -0.6029   28.1853 C   0  0  0  0  0  0  0  0  0  0  0  0
  -30.2994    0.2279   26.2571 O   0  0  0  0  0  0  0  0  0  0  0  0
  -25.7189   -0.2206   29.4011 C   0  0  0  0  0  0  0  0  0  0  0  0
  -24.5693    0.1274   28.9001 C   0  0  0  0  0  0  0  0  0  0  0  0
  -24.5868    1.0201   27.6932 C   0  0  0  0  0  0  0  0  0  0  0  0
  -25.6916    1.2348   26.9867 C   0  0  0  0  0  0  0  0  0  0  0  0
  -23.2517    1.6051   27.3252 C   0  0  0  0  0  0  0  0  0  0  0  0
  -22.4855    2.4130   27.5548 N   0  0  0  0  0  0  0  0  0  0  0  0
  -30.3454   -0.4536   25.1431 C   0  0  0  0  0  0  0  0  0  0  0  0
  5  7  1  0
 10 12  1  0
 12 13  3  0
  7 14  1  0
  1  2  2  0
  3  4  2  0
  4  5  1  0
  5  6  2  0
  6  1  1  0
  2  3  1  0
  3 11  1  0
 11 10  2  0
 10  9  1  0
  9  8  2  0
  8  2  1  0
M  END

$$$$
