No_4578-gen_results/8p0m/2024-11-26-14-13-15/
     RDKit          3D

 27 28  0  0  0  0  0  0  0  0999 V2000
  -28.1229   -1.3353   28.4874 O   0  0  0  0  0  0  0  0  0  0  0  0
  -27.4806   -0.4044   28.7094 C   0  0  0  0  0  0  0  0  0  0  0  0
  -26.3804   -0.0867   27.9394 C   0  0  0  0  0  0  0  0  0  0  0  0
  -27.6665    0.4468   29.8988 N   0  0  0  0  0  0  0  0  0  0  0  0
  -26.4086    0.8567   26.8802 C   0  0  0  0  0  0  0  0  0  0  0  0
  -25.0824   -0.6970   28.1699 C   0  0  0  0  0  0  0  0  0  0  0  0
  -25.2842    1.0488   26.0470 C   0  0  0  0  0  0  0  0  0  0  0  0
  -23.9159   -0.3440   27.4444 C   0  0  0  0  0  0  0  0  0  0  0  0
  -24.0618    0.5290   26.3707 C   0  0  0  0  0  0  0  0  0  0  0  0
  -28.7784    0.1033   30.7872 C   0  0  0  0  0  0  0  0  0  0  0  0
  -26.8454    1.5246   30.2211 C   0  0  0  0  0  0  0  0  0  0  0  0
  -26.0878    1.4823   31.0460 C   0  0  0  0  0  0  0  0  0  0  0  0
  -25.0745    2.6030   31.2740 C   0  0  0  0  0  0  0  0  0  0  0  0
  -25.1085    3.6223   30.3575 C   0  0  0  0  0  0  0  0  0  0  0  0
  -25.9967    3.5762   29.2707 C   0  0  0  0  0  0  0  0  0  0  0  0
  -26.8983    2.5047   29.1621 C   0  0  0  0  0  0  0  0  0  0  0  0
  -25.8833    4.7072   28.3142 C   0  0  0  0  0  0  0  0  0  0  0  0
  -25.2248    4.7753   27.5086 O   0  0  0  0  0  0  0  0  0  0  0  0
  -27.1003    5.4691   28.3370 O   0  0  0  0  0  0  0  0  0  0  0  0
  -24.8473   -1.6086   29.3006 C   0  0  0  0  0  0  0  0  0  0  0  0
  -23.7788   -2.1038   29.7468 C   0  0  0  0  0  0  0  0  0  0  0  0
  -26.0896   -2.2814   29.8673 C   0  0  0  0  0  0  0  0  0  0  0  0
  -28.5737    0.3552   31.9399 C   0  0  0  0  0  0  0  0  0  0  0  0
  -29.1037    0.2288   33.0125 C   0  0  0  0  0  0  0  0  0  0  0  0
  -28.7380    0.4909   34.4114 C   0  0  0  0  0  0  0  0  0  0  0  0
  -27.4612    0.9542   34.6168 C   0  0  0  0  0  0  0  0  0  0  0  0
  -26.6495    1.1553   33.5268 C   0  0  0  0  0  0  0  0  0  0  0  0
  1  2  2  0
  2  3  1  0
  2  4  1  0
  4 10  1  0
  4 11  1  0
 15 17  1  0
 17 18  2  0
 17 19  1  0
  6 20  1  0
 20 21  2  0
 20 22  1  0
 10 23  2  3
 23 24  1  0
 24 25  1  0
 25 26  2  3
 26 27  1  0
 11 12  2  0
 12 13  1  0
 13 14  2  0
 14 15  1  0
 15 16  2  0
 16 11  1  0
  3  5  2  0
  5  7  1  0
  7  9  2  0
  9  8  1  0
  8  6  2  0
  6  3  1  0
M  END

$$$$
