No_4044-gen_results/8p0m/2024-11-26-14-13-15/
     RDKit          3D

 29 31  0  0  0  0  0  0  0  0999 V2000
  -28.0162   -0.8135   28.8779 C   0  0  0  0  0  0  0  0  0  0  0  0
  -28.4690   -0.7850   29.8287 C   0  0  0  0  0  0  0  0  0  0  0  0
  -26.5455   -0.8762   28.8500 C   0  0  0  0  0  0  0  0  0  0  0  0
  -25.6825   -0.7773   27.6829 C   0  0  0  0  0  0  0  0  0  0  0  0
  -27.9181   -1.0034   31.1877 C   0  0  0  0  0  0  0  0  0  0  0  0
  -26.5308   -1.0794   31.2463 C   0  0  0  0  0  0  0  0  0  0  0  0
  -25.7867   -1.0660   30.1501 C   0  0  0  0  0  0  0  0  0  0  0  0
  -25.2280    0.5795   27.3390 C   0  0  0  0  0  0  0  0  0  0  0  0
  -23.9756    0.8712   27.7671 C   0  0  0  0  0  0  0  0  0  0  0  0
  -23.3895    2.1068   27.3553 C   0  0  0  0  0  0  0  0  0  0  0  0
  -25.9562    1.4639   26.5828 C   0  0  0  0  0  0  0  0  0  0  0  0
  -25.4500    2.6491   26.1671 C   0  0  0  0  0  0  0  0  0  0  0  0
  -24.0912    3.0041   26.5797 C   0  0  0  0  0  0  0  0  0  0  0  0
  -30.0521   -0.7008   29.8924 C   0  0  0  0  0  0  0  0  0  0  0  0
  -30.5819    0.2949   30.4707 O   0  0  0  0  0  0  0  0  0  0  0  0
  -30.6942   -1.5191   29.2421 O   0  0  0  0  0  0  0  0  0  0  0  0
  -23.1005   -0.0014   28.6069 C   0  0  0  0  0  0  0  0  0  0  0  0
  -22.5525    0.4728   29.8572 C   0  0  0  0  0  0  0  0  0  0  0  0
  -23.3031    0.4065   30.7404 F   0  0  0  0  0  0  0  0  0  0  0  0
  -21.4642   -0.3031   30.0504 F   0  0  0  0  0  0  0  0  0  0  0  0
  -22.0311    1.6850   29.6897 F   0  0  0  0  0  0  0  0  0  0  0  0
  -27.2932    1.1422   26.0919 C   0  0  0  0  0  0  0  0  0  0  0  0
  -28.2571    2.1238   26.0274 C   0  0  0  0  0  0  0  0  0  0  0  0
  -28.1920    3.0955   26.8537 C   0  0  0  0  0  0  0  0  0  0  0  0
  -29.2829    4.1239   26.8597 C   0  0  0  0  0  0  0  0  0  0  0  0
  -30.2057    3.9977   25.8094 C   0  0  0  0  0  0  0  0  0  0  0  0
  -30.1877    3.0163   24.9006 C   0  0  0  0  0  0  0  0  0  0  0  0
  -29.1894    2.0579   24.9907 C   0  0  0  0  0  0  0  0  0  0  0  0
  -27.1854    0.4646   24.8951 F   0  0  0  0  0  0  0  0  0  0  0  0
  3  4  1  0
  4  8  1  0
  2 14  1  0
 14 15  2  0
 14 16  1  0
  9 17  1  0
 17 18  1  0
 18 19  1  0
 18 20  1  0
 18 21  1  0
 11 22  1  0
 22 29  1  0
 22 23  1  0
 23 24  2  0
 24 25  1  0
 25 26  2  0
 26 27  1  0
 27 28  2  0
 28 23  1  0
  8  9  2  0
  9 10  1  0
 10 13  2  0
 13 12  1  0
 12 11  2  0
 11  8  1  0
  1  2  2  0
  2  5  1  0
  5  6  2  0
  6  7  1  0
  7  3  2  0
  3  1  1  0
M  END

$$$$
