No_4059-gen_results/8p0m/2024-11-26-14-13-15/
     RDKit          3D

 17 19  0  0  0  0  0  0  0  0999 V2000
  -28.1229   -1.3353   28.4874 O   0  0  0  0  0  0  0  0  0  0  0  0
  -27.0637   -0.8242   28.8687 C   0  0  0  0  0  0  0  0  0  0  0  0
  -26.4017   -0.0623   28.6224 C   0  0  0  0  0  0  0  0  0  0  0  0
  -26.5721   -1.5844   30.1172 N   0  0  0  0  0  0  0  0  0  0  0  0
  -26.6982    0.9644   27.6453 C   0  0  0  0  0  0  0  0  0  0  0  0
  -27.5862    1.2950   27.2709 C   0  0  0  0  0  0  0  0  0  0  0  0
  -27.8083    2.2940   26.1148 C   0  0  0  0  0  0  0  0  0  0  0  0
  -26.6186    2.8245   25.6006 C   0  0  0  0  0  0  0  0  0  0  0  0
  -25.3849    2.4175   26.0392 C   0  0  0  0  0  0  0  0  0  0  0  0
  -25.2984    1.5515   27.0697 C   0  0  0  0  0  0  0  0  0  0  0  0
  -25.3669   -1.4476   30.6407 C   0  0  0  0  0  0  0  0  0  0  0  0
  -24.5546   -0.4929   30.1975 C   0  0  0  0  0  0  0  0  0  0  0  0
  -24.9313    0.2843   29.2509 C   0  0  0  0  0  0  0  0  0  0  0  0
  -24.1106    1.1797   27.7918 C   0  0  0  0  0  0  0  0  0  0  0  0
  -22.8281    1.4547   27.9845 C   0  0  0  0  0  0  0  0  0  0  0  0
  -22.3918    2.3932   27.2832 O   0  0  0  0  0  0  0  0  0  0  0  0
  -22.0657    0.9249   28.9164 O   0  0  0  0  0  0  0  0  0  0  0  0
  1  2  2  0
  2  3  1  0
  2  4  1  0
  3  5  1  0
 11 12  1  0
  3 13  1  0
 10 14  1  0
 13 14  1  0
 14 15  1  0
 15 16  2  0
 15 17  1  0
 13 12  1  0
 11  4  1  0
  5  6  2  0
  6  7  1  0
  7  8  2  0
  8  9  1  0
  9 10  2  0
 10  5  1  0
M  END

$$$$
