No_4069-gen_results/8p0m/2024-11-26-14-13-15/
     RDKit          3D

 18 19  0  0  0  0  0  0  0  0999 V2000
  -28.0162   -0.8135   28.8779 C   0  0  0  0  0  0  0  0  0  0  0  0
  -27.0636   -0.1189   28.6079 C   0  0  0  0  0  0  0  0  0  0  0  0
  -26.9287    1.1713   29.0083 C   0  0  0  0  0  0  0  0  0  0  0  0
  -25.7702    2.0341   28.6884 C   0  0  0  0  0  0  0  0  0  0  0  0
  -24.7141    1.4431   27.9188 C   0  0  0  0  0  0  0  0  0  0  0  0
  -24.8590    0.0783   27.5836 C   0  0  0  0  0  0  0  0  0  0  0  0
  -25.9647   -0.6606   27.9164 C   0  0  0  0  0  0  0  0  0  0  0  0
  -28.6510   -0.6086   30.2543 C   0  0  0  0  0  0  0  0  0  0  0  0
  -28.9359    0.6863   30.5312 C   0  0  0  0  0  0  0  0  0  0  0  0
  -27.8080    1.6040   30.1303 C   0  0  0  0  0  0  0  0  0  0  0  0
  -23.5671    2.1807   27.4594 C   0  0  0  0  0  0  0  0  0  0  0  0
  -22.8898    2.7068   28.1103 O   0  0  0  0  0  0  0  0  0  0  0  0
  -23.4859    2.2657   26.1056 O   0  0  0  0  0  0  0  0  0  0  0  0
  -25.6414    3.4197   29.0895 C   0  0  0  0  0  0  0  0  0  0  0  0
  -25.2709    3.7348   30.4006 C   0  0  0  0  0  0  0  0  0  0  0  0
  -26.1776    4.3820   28.2477 C   0  0  0  0  0  0  0  0  0  0  0  0
  -24.9711    2.7866   31.4341 C   0  0  0  0  0  0  0  0  0  0  0  0
  -24.8489    3.3181   32.6469 N   0  0  0  0  0  0  0  0  0  0  0  0
  5 11  1  0
 11 12  2  0
 11 13  1  0
  4 14  1  0
 14 15  2  3
 14 16  1  0
 15 17  1  0
 17 18  2  0
  3  4  1  0
  4  5  2  0
  5  6  1  0
  6  7  2  0
  7  2  1  0
  1  2  2  0
  2  3  1  0
  3 10  2  0
 10  9  1  0
  9  8  2  0
  8  1  1  0
M  END

$$$$
