No_477-gen_results/8p0m/2024-11-26-14-13-15/
     RDKit          3D

 14 16  0  0  0  0  0  0  0  0999 V2000
  -28.0162   -0.8135   28.8779 C   0  0  0  0  0  0  0  0  0  0  0  0
  -27.0636   -0.1189   28.6079 C   0  0  0  0  0  0  0  0  0  0  0  0
  -27.0010    0.6913   27.4910 C   0  0  0  0  0  0  0  0  0  0  0  0
  -25.8548    1.4825   27.0830 C   0  0  0  0  0  0  0  0  0  0  0  0
  -25.8227    2.3296   25.9941 C   0  0  0  0  0  0  0  0  0  0  0  0
  -27.9874   -1.6326   30.1036 C   0  0  0  0  0  0  0  0  0  0  0  0
  -27.0438   -1.9038   30.5336 C   0  0  0  0  0  0  0  0  0  0  0  0
  -25.7148   -1.4337   30.2468 C   0  0  0  0  0  0  0  0  0  0  0  0
  -25.7489   -0.5194   29.1527 C   0  0  0  0  0  0  0  0  0  0  0  0
  -24.6608    3.1246   25.8109 C   0  0  0  0  0  0  0  0  0  0  0  0
  -23.4985    2.9016   26.5500 C   0  0  0  0  0  0  0  0  0  0  0  0
  -23.5136    1.9604   27.5494 C   0  0  0  0  0  0  0  0  0  0  0  0
  -24.6466    1.2336   27.8409 C   0  0  0  0  0  0  0  0  0  0  0  0
  -24.5619    0.2484   28.7292 C   0  0  0  0  0  0  0  0  0  0  0  0
  2  3  1  0
  3  4  2  0
 13 14  2  0
 14  9  1  0
  4  5  1  0
  5 10  2  0
 10 11  1  0
 11 12  2  0
 12 13  1  0
 13  4  1  0
  1  2  2  0
  2  9  1  0
  9  8  2  0
  8  7  1  0
  7  6  2  0
  6  1  1  0
M  END

$$$$
