No_4150-gen_results/8p0m/2024-11-26-14-13-15/
     RDKit          3D

 16 17  0  0  0  0  0  0  0  0999 V2000
  -28.0162   -0.8135   28.8779 C   0  0  0  0  0  0  0  0  0  0  0  0
  -28.4690   -0.7850   29.8287 C   0  0  0  0  0  0  0  0  0  0  0  0
  -26.5042   -0.7777   28.8766 C   0  0  0  0  0  0  0  0  0  0  0  0
  -25.8103   -0.8531   30.1028 C   0  0  0  0  0  0  0  0  0  0  0  0
  -27.9906   -0.8916   31.2257 C   0  0  0  0  0  0  0  0  0  0  0  0
  -26.6042   -0.8676   31.2652 C   0  0  0  0  0  0  0  0  0  0  0  0
  -29.9808   -0.8491   30.0372 N   0  0  0  0  0  0  0  0  0  0  0  0
  -30.7032   -0.0242   29.3095 C   0  0  0  0  0  0  0  0  0  0  0  0
  -32.0990   -0.2262   29.3020 C   0  0  0  0  0  0  0  0  0  0  0  0
  -30.6225   -1.8687   30.7084 C   0  0  0  0  0  0  0  0  0  0  0  0
  -31.9859   -2.0387   30.7091 C   0  0  0  0  0  0  0  0  0  0  0  0
  -32.7110   -1.1650   29.9987 C   0  0  0  0  0  0  0  0  0  0  0  0
  -24.4154   -0.9209   30.3101 C   0  0  0  0  0  0  0  0  0  0  0  0
  -23.8566    0.0203   31.2196 C   0  0  0  0  0  0  0  0  0  0  0  0
  -23.5541   -1.7137   29.5406 C   0  0  0  0  0  0  0  0  0  0  0  0
  -22.2957   -1.3464   29.4401 N   0  0  0  0  0  0  0  0  0  0  0  0
  2  7  1  0
  7  8  1  0
  7 10  1  0
  9 12  1  0
 11 12  1  0
  4 13  1  0
 13 14  1  0
 13 15  1  0
 15 16  1  0
  8  9  1  0
 11 10  1  0
  1  2  2  0
  2  5  1  0
  5  6  2  0
  6  4  1  0
  4  3  2  0
  3  1  1  0
M  END

$$$$
