No_4549-gen_results/8p0m/2024-11-26-14-13-15/
     RDKit          3D

 12 13  0  0  0  0  0  0  0  0999 V2000
  -28.0544   -1.0498   28.7246 N   0  0  0  0  0  0  0  0  0  0  0  0
  -28.6544   -0.5669   29.5076 C   0  0  0  0  0  0  0  0  0  0  0  0
  -26.6945   -1.3221   29.0236 C   0  0  0  0  0  0  0  0  0  0  0  0
  -26.2777   -1.0466   30.3588 C   0  0  0  0  0  0  0  0  0  0  0  0
  -28.4647   -0.2194   30.8657 C   0  0  0  0  0  0  0  0  0  0  0  0
  -27.1473   -0.4500   31.2550 C   0  0  0  0  0  0  0  0  0  0  0  0
  -30.0736   -0.2908   29.2323 N   0  0  0  0  0  0  0  0  0  0  0  0
  -31.0388   -0.2596   29.9930 C   0  0  0  0  0  0  0  0  0  0  0  0
  -32.2694    0.1115   29.5212 C   0  0  0  0  0  0  0  0  0  0  0  0
  -30.3786   -0.1031   27.8501 C   0  0  0  0  0  0  0  0  0  0  0  0
  -31.6111    0.1600   27.3547 C   0  0  0  0  0  0  0  0  0  0  0  0
  -32.5830    0.2808   28.2665 C   0  0  0  0  0  0  0  0  0  0  0  0
  2  7  1  0
  7  8  1  0
  7 10  1  0
  9 12  1  0
 11 12  1  0
  8  9  1  0
 11 10  1  0
  1  2  2  0
  2  5  1  0
  5  6  2  0
  6  4  1  0
  4  3  2  0
  3  1  1  0
M  END

$$$$
