No_4056-gen_results/8p0m/2024-11-26-14-13-15/
     RDKit          3D

 19 19  0  0  0  0  0  0  0  0999 V2000
  -28.0162   -0.8135   28.8779 C   0  0  0  0  0  0  0  0  0  0  0  0
  -27.0636   -0.1189   28.6079 C   0  0  0  0  0  0  0  0  0  0  0  0
  -26.9287    1.1713   29.0083 C   0  0  0  0  0  0  0  0  0  0  0  0
  -25.7702    2.0341   28.6884 C   0  0  0  0  0  0  0  0  0  0  0  0
  -24.7141    1.4431   27.9188 C   0  0  0  0  0  0  0  0  0  0  0  0
  -24.8590    0.0783   27.5836 C   0  0  0  0  0  0  0  0  0  0  0  0
  -25.9647   -0.6606   27.9164 C   0  0  0  0  0  0  0  0  0  0  0  0
  -27.9926   -1.6899   29.9797 O   0  0  0  0  0  0  0  0  0  0  0  0
  -29.2141   -0.3637   28.6591 O   0  0  0  0  0  0  0  0  0  0  0  0
  -23.5322    2.1513   27.5604 C   0  0  0  0  0  0  0  0  0  0  0  0
  -22.3389    2.0677   28.2302 C   0  0  0  0  0  0  0  0  0  0  0  0
  -23.5962    2.8058   26.2602 C   0  0  0  0  0  0  0  0  0  0  0  0
  -22.2484    1.1924   29.3262 C   0  0  0  0  0  0  0  0  0  0  0  0
  -25.6400    3.4203   29.0744 C   0  0  0  0  0  0  0  0  0  0  0  0
  -26.8165    4.0248   29.3043 O   0  0  0  0  0  0  0  0  0  0  0  0
  -27.0863    5.1673   29.2479 C   0  0  0  0  0  0  0  0  0  0  0  0
  -23.0202    1.3272   30.2831 O   0  0  0  0  0  0  0  0  0  0  0  0
  -21.5287    0.1119   29.2689 O   0  0  0  0  0  0  0  0  0  0  0  0
  -28.3056    5.7061   29.4686 C   0  0  0  0  0  0  0  0  0  0  0  0
  1  2  1  0
  1  8  2  0
  1  9  1  0
  5 10  1  0
 10 11  2  3
 10 12  1  0
 11 13  1  0
  4 14  1  0
 14 15  1  0
 15 16  1  0
 13 17  2  0
 13 18  1  0
 16 19  2  0
  2  3  2  0
  3  4  1  0
  4  5  2  0
  5  6  1  0
  6  7  2  0
  7  2  1  0
M  END

$$$$
