No_4255-gen_results/8p0m/2024-11-26-14-13-15/
     RDKit          3D

 35 38  0  0  0  0  0  0  0  0999 V2000
  -28.0162   -0.8135   28.8779 C   0  0  0  0  0  0  0  0  0  0  0  0
  -27.0636   -0.1189   28.6079 C   0  0  0  0  0  0  0  0  0  0  0  0
  -26.9287    1.1713   29.0083 C   0  0  0  0  0  0  0  0  0  0  0  0
  -27.9560    1.7411   29.7840 C   0  0  0  0  0  0  0  0  0  0  0  0
  -29.0569   -0.3271   29.7466 C   0  0  0  0  0  0  0  0  0  0  0  0
  -28.9828    0.9722   30.1516 C   0  0  0  0  0  0  0  0  0  0  0  0
  -25.9911   -0.6119   27.8566 O   0  0  0  0  0  0  0  0  0  0  0  0
  -24.9038   -1.1483   28.5775 C   0  0  0  0  0  0  0  0  0  0  0  0
  -23.7733   -0.9238   28.7488 C   0  0  0  0  0  0  0  0  0  0  0  0
  -25.2670   -2.5528   29.1249 C   0  0  0  0  0  0  0  0  0  0  0  0
  -22.7926   -1.5184   29.4729 C   0  0  0  0  0  0  0  0  0  0  0  0
  -24.3844   -3.2811   29.7863 C   0  0  0  0  0  0  0  0  0  0  0  0
  -23.1235   -2.7642   30.0154 C   0  0  0  0  0  0  0  0  0  0  0  0
  -30.2154   -1.4866   30.2046 Cl  0  0  0  0  0  0  0  0  0  0  0  0
  -23.2797    0.4785   28.1338 C   0  0  0  0  0  0  0  0  0  0  0  0
  -22.9425    1.4741   28.5904 N   0  0  0  0  0  0  0  0  0  0  0  0
  -23.5941    0.6390   26.7615 N   0  0  0  0  0  0  0  0  0  0  0  0
  -23.2929    1.9057   26.4315 C   0  0  0  0  0  0  0  0  0  0  0  0
  -22.8216    2.4374   27.6526 C   0  0  0  0  0  0  0  0  0  0  0  0
  -30.0413    1.4417   30.9394 O   0  0  0  0  0  0  0  0  0  0  0  0
  -23.3956    2.4419   25.2815 N   0  0  0  0  0  0  0  0  0  0  0  0
  -29.9841    1.4047   32.2112 C   0  0  0  0  0  0  0  0  0  0  0  0
  -31.0189    0.9400   32.8748 C   0  0  0  0  0  0  0  0  0  0  0  0
  -30.9734    0.8680   34.3465 C   0  0  0  0  0  0  0  0  0  0  0  0
  -28.8428    1.8248   32.9707 C   0  0  0  0  0  0  0  0  0  0  0  0
  -28.7588    1.7882   34.3385 C   0  0  0  0  0  0  0  0  0  0  0  0
  -29.8544    1.3262   35.0506 C   0  0  0  0  0  0  0  0  0  0  0  0
  -32.0875    0.4476   35.0204 O   0  0  0  0  0  0  0  0  0  0  0  0
  -32.5707    1.0279   36.0353 C   0  0  0  0  0  0  0  0  0  0  0  0
  -33.2633    2.1197   35.9233 C   0  0  0  0  0  0  0  0  0  0  0  0
  -33.9933    2.4537   34.8673 C   0  0  0  0  0  0  0  0  0  0  0  0
  -34.6840    3.6985   34.7130 C   0  0  0  0  0  0  0  0  0  0  0  0
  -35.3768    4.0919   33.5506 C   0  0  0  0  0  0  0  0  0  0  0  0
  -34.5558    4.6372   35.8952 C   0  0  0  0  0  0  0  0  0  0  0  0
  -33.8540    4.2732   36.9816 C   0  0  0  0  0  0  0  0  0  0  0  0
  2  7  1  0
  7  8  1  0
  5 14  1  0
  9 15  1  0
 15 16  2  0
 15 17  1  0
 17 18  1  0
 16 19  1  0
 18 19  2  0
  6 20  1  0
 18 21  1  0
 20 22  1  0
 24 28  1  0
 28 29  1  0
 29 30  1  0
 30 31  2  3
 31 32  1  0
 32 33  2  0
 32 34  1  0
 34 35  2  0
  8  9  2  0
  9 11  1  0
 11 13  2  0
 13 12  1  0
 12 10  2  0
 10  8  1  0
  1  2  2  0
  2  3  1  0
  3  4  2  0
  4  6  1  0
  6  5  2  0
  5  1  1  0
 22 23  2  0
 23 24  1  0
 24 27  2  0
 27 26  1  0
 26 25  2  0
 25 22  1  0
M  END

$$$$
