No_4943-gen_results/8p0m/2024-11-26-14-13-15/
     RDKit          3D

 31 33  0  0  0  0  0  0  0  0999 V2000
  -28.1146   -0.6256   29.0813 Br  0  0  0  0  0  0  0  0  0  0  0  0
  -26.9268    0.4545   28.6846 C   0  0  0  0  0  0  0  0  0  0  0  0
  -25.8457    0.7043   29.3312 C   0  0  0  0  0  0  0  0  0  0  0  0
  -24.8514    1.6413   28.9474 C   0  0  0  0  0  0  0  0  0  0  0  0
  -25.0097    2.3205   27.7273 C   0  0  0  0  0  0  0  0  0  0  0  0
  -26.1307    2.0369   26.9913 C   0  0  0  0  0  0  0  0  0  0  0  0
  -27.0265    1.1434   27.3985 C   0  0  0  0  0  0  0  0  0  0  0  0
  -24.0333    3.2226   27.3329 N   0  0  0  0  0  0  0  0  0  0  0  0
  -28.1140    0.8945   26.6363 O   0  0  0  0  0  0  0  0  0  0  0  0
  -29.1818    0.6985   26.8288 C   0  0  0  0  0  0  0  0  0  0  0  0
  -30.0881    1.6642   26.4166 C   0  0  0  0  0  0  0  0  0  0  0  0
  -29.8228    2.7122   25.9682 C   0  0  0  0  0  0  0  0  0  0  0  0
  -28.5005    3.1997   25.9688 C   0  0  0  0  0  0  0  0  0  0  0  0
  -27.2159    2.6761   26.2746 C   0  0  0  0  0  0  0  0  0  0  0  0
  -26.3554    3.1309   25.1870 O   0  0  0  0  0  0  0  0  0  0  0  0
  -31.5508    1.2906   26.4138 C   0  0  0  0  0  0  0  0  0  0  0  0
  -31.9495    0.2774   27.0202 N   0  0  0  0  0  0  0  0  0  0  0  0
  -32.9911   -0.4172   26.8182 C   0  0  0  0  0  0  0  0  0  0  0  0
  -33.7911   -0.2046   25.9998 C   0  0  0  0  0  0  0  0  0  0  0  0
  -33.5046    0.9915   25.1390 C   0  0  0  0  0  0  0  0  0  0  0  0
  -32.3121    1.6646   25.2918 C   0  0  0  0  0  0  0  0  0  0  0  0
  -33.2591   -1.5280   27.7286 N   0  0  0  0  0  0  0  0  0  0  0  0
  -32.5184   -1.6097   28.8790 C   0  0  0  0  0  0  0  0  0  0  0  0
  -33.1859   -1.8154   30.1161 C   0  0  0  0  0  0  0  0  0  0  0  0
  -34.2440   -2.2603   30.1386 F   0  0  0  0  0  0  0  0  0  0  0  0
  -33.3452   -0.5402   30.7222 F   0  0  0  0  0  0  0  0  0  0  0  0
  -32.4332   -2.3268   31.1445 F   0  0  0  0  0  0  0  0  0  0  0  0
  -33.2750   -2.8397   27.0117 C   0  0  0  0  0  0  0  0  0  0  0  0
  -34.2721   -3.6888   27.3231 C   0  0  0  0  0  0  0  0  0  0  0  0
  -32.2708   -3.1311   26.1219 C   0  0  0  0  0  0  0  0  0  0  0  0
  -31.4185   -2.3732   25.6150 O   0  0  0  0  0  0  0  0  0  0  0  0
  1  2  1  0
  5  8  1  0
  7  9  1  0
  9 10  1  0
 10 11  2  3
 11 12  1  0
 12 13  2  3
  6 14  1  0
 13 14  1  0
 14 15  2  0
 11 16  1  0
 18 22  1  0
 22 23  1  0
 23 24  1  0
 24 25  1  0
 24 26  1  0
 24 27  1  0
 22 28  1  0
 28 29  1  0
 28 30  1  0
 30 31  2  0
  2  3  2  0
  3  4  1  0
  4  5  2  0
  5  6  1  0
  6  7  2  0
  7  2  1  0
 16 17  2  0
 17 18  1  0
 18 19  2  0
 19 20  1  0
 20 21  2  0
 21 16  1  0
M  END

$$$$
