No_4873-gen_results/8p0m/2024-11-26-14-13-15/
     RDKit          3D

 35 38  0  0  0  0  0  0  0  0999 V2000
  -28.0162   -0.8135   28.8779 C   0  0  0  0  0  0  0  0  0  0  0  0
  -27.0636   -0.1189   28.6079 C   0  0  0  0  0  0  0  0  0  0  0  0
  -27.0010    0.6913   27.4910 C   0  0  0  0  0  0  0  0  0  0  0  0
  -25.8548    1.4825   27.0830 C   0  0  0  0  0  0  0  0  0  0  0  0
  -25.8227    2.3296   25.9941 C   0  0  0  0  0  0  0  0  0  0  0  0
  -27.9874   -1.6326   30.1036 C   0  0  0  0  0  0  0  0  0  0  0  0
  -26.7767   -1.8328   30.7473 C   0  0  0  0  0  0  0  0  0  0  0  0
  -25.6300   -1.2164   30.3057 C   0  0  0  0  0  0  0  0  0  0  0  0
  -25.7324   -0.3480   29.1642 C   0  0  0  0  0  0  0  0  0  0  0  0
  -26.9473    2.3496   25.1604 C   0  0  0  0  0  0  0  0  0  0  0  0
  -28.0269    1.5715   25.3671 C   0  0  0  0  0  0  0  0  0  0  0  0
  -28.0603    0.7622   26.4991 C   0  0  0  0  0  0  0  0  0  0  0  0
  -29.1706   -2.3707   30.5933 C   0  0  0  0  0  0  0  0  0  0  0  0
  -30.1601   -2.0035   30.5717 O   0  0  0  0  0  0  0  0  0  0  0  0
  -28.9247   -3.6527   31.0013 O   0  0  0  0  0  0  0  0  0  0  0  0
  -29.1587    1.6482   24.4789 C   0  0  0  0  0  0  0  0  0  0  0  0
  -29.9830    2.6907   24.4358 C   0  0  0  0  0  0  0  0  0  0  0  0
  -31.1470    2.7452   23.6359 C   0  0  0  0  0  0  0  0  0  0  0  0
  -31.4132    1.5952   22.8944 C   0  0  0  0  0  0  0  0  0  0  0  0
  -30.6609    0.4849   22.9838 C   0  0  0  0  0  0  0  0  0  0  0  0
  -29.5399    0.4578   23.8364 C   0  0  0  0  0  0  0  0  0  0  0  0
  -32.6837    1.7477   22.1041 C   0  0  0  0  0  0  0  0  0  0  0  0
  -33.6964    2.0305   22.5152 C   0  0  0  0  0  0  0  0  0  0  0  0
  -34.8253    2.3668   21.6256 C   0  0  0  0  0  0  0  0  0  0  0  0
  -34.6716    2.0640   20.2747 C   0  0  0  0  0  0  0  0  0  0  0  0
  -33.4681    1.6273   19.7529 C   0  0  0  0  0  0  0  0  0  0  0  0
  -32.4301    1.5344   20.5820 C   0  0  0  0  0  0  0  0  0  0  0  0
  -28.7710   -0.7340   23.9356 C   0  0  0  0  0  0  0  0  0  0  0  0
  -24.3430   -1.3550   30.9364 C   0  0  0  0  0  0  0  0  0  0  0  0
  -23.2514   -1.4365   30.1776 C   0  0  0  0  0  0  0  0  0  0  0  0
  -22.2378   -0.3351   30.2231 C   0  0  0  0  0  0  0  0  0  0  0  0
  -21.5252   -0.1328   28.9993 C   0  0  0  0  0  0  0  0  0  0  0  0
  -23.1810   -2.2863   29.0403 C   0  0  0  0  0  0  0  0  0  0  0  0
  -24.0416   -3.2742   29.0417 N   0  0  0  0  0  0  0  0  0  0  0  0
  -21.8211    0.8714   28.0834 C   0  0  0  0  0  0  0  0  0  0  0  0
  6 13  1  0
 13 14  2  0
 13 15  1  0
 11 16  1  0
 19 22  1  0
 21 28  1  0
  8 29  1  0
 29 30  2  3
 30 31  1  0
 31 32  2  3
 30 33  1  0
 33 34  1  0
 32 35  1  0
  2  3  1  0
  3  4  2  0
  4  5  1  0
  5 10  2  0
 10 11  1  0
 11 12  2  0
 12  3  1  0
 22 23  2  0
 23 24  1  0
 24 25  2  0
 25 26  1  0
 26 27  2  0
 27 22  1  0
  1  2  2  0
  2  9  1  0
  9  8  2  0
  8  7  1  0
  7  6  2  0
  6  1  1  0
 16 17  2  0
 17 18  1  0
 18 19  2  0
 19 20  1  0
 20 21  2  0
 21 16  1  0
M  END

$$$$
