No_4646-gen_results/8p0m/2024-11-26-14-13-15/
     RDKit          3D

 19 21  0  0  0  0  0  0  0  0999 V2000
  -28.0162   -0.8135   28.8779 C   0  0  0  0  0  0  0  0  0  0  0  0
  -27.0636   -0.1189   28.6079 C   0  0  0  0  0  0  0  0  0  0  0  0
  -26.9287    1.1713   29.0083 C   0  0  0  0  0  0  0  0  0  0  0  0
  -27.9560    1.7411   29.7840 C   0  0  0  0  0  0  0  0  0  0  0  0
  -29.0569   -0.3271   29.7466 C   0  0  0  0  0  0  0  0  0  0  0  0
  -28.9828    0.9722   30.1516 C   0  0  0  0  0  0  0  0  0  0  0  0
  -25.7352   -0.7297   27.6631 Cl  0  0  0  0  0  0  0  0  0  0  0  0
  -30.0810    1.5109   31.0108 C   0  0  0  0  0  0  0  0  0  0  0  0
  -31.0974    1.1272   31.1365 C   0  0  0  0  0  0  0  0  0  0  0  0
  -32.1663    1.6750   32.0138 C   0  0  0  0  0  0  0  0  0  0  0  0
  -31.8208    2.8627   32.6999 C   0  0  0  0  0  0  0  0  0  0  0  0
  -30.5746    3.3716   32.5479 C   0  0  0  0  0  0  0  0  0  0  0  0
  -29.6237    2.7680   31.7489 C   0  0  0  0  0  0  0  0  0  0  0  0
  -32.8194    3.4915   33.5537 C   0  0  0  0  0  0  0  0  0  0  0  0
  -33.8685    3.8353   33.4796 C   0  0  0  0  0  0  0  0  0  0  0  0
  -34.7134    4.4691   34.4575 C   0  0  0  0  0  0  0  0  0  0  0  0
  -32.1873    3.7740   34.9449 C   0  0  0  0  0  0  0  0  0  0  0  0
  -32.9198    4.3716   35.9159 C   0  0  0  0  0  0  0  0  0  0  0  0
  -34.1871    4.7294   35.6784 C   0  0  0  0  0  0  0  0  0  0  0  0
  2  7  1  0
  6  8  1  0
 11 14  1  0
  1  2  2  0
  2  3  1  0
  3  4  2  0
  4  6  1  0
  6  5  2  0
  5  1  1  0
  8  9  2  0
  9 10  1  0
 10 11  2  0
 11 12  1  0
 12 13  2  0
 13  8  1  0
 14 15  2  0
 15 16  1  0
 16 19  2  0
 19 18  1  0
 18 17  2  0
 17 14  1  0
M  END

$$$$
