No_4652-gen_results/8p0m/2024-11-26-14-13-15/
     RDKit          3D

 15 17  0  0  0  0  0  0  0  0999 V2000
  -28.1229   -1.3353   28.4874 O   0  0  0  0  0  0  0  0  0  0  0  0
  -27.0637   -0.8242   28.8687 C   0  0  0  0  0  0  0  0  0  0  0  0
  -25.9464   -1.0396   28.8492 C   0  0  0  0  0  0  0  0  0  0  0  0
  -24.7602   -0.1562   29.1644 C   0  0  0  0  0  0  0  0  0  0  0  0
  -25.0917    1.0791   29.6490 C   0  0  0  0  0  0  0  0  0  0  0  0
  -26.4090    1.4383   29.7067 C   0  0  0  0  0  0  0  0  0  0  0  0
  -27.3694    0.6586   29.4148 C   0  0  0  0  0  0  0  0  0  0  0  0
  -23.3561   -0.5638   29.1206 C   0  0  0  0  0  0  0  0  0  0  0  0
  -22.7539   -1.5222   29.9050 C   0  0  0  0  0  0  0  0  0  0  0  0
  -22.5067    0.3051   28.2984 C   0  0  0  0  0  0  0  0  0  0  0  0
  -22.9220    1.3839   27.5398 C   0  0  0  0  0  0  0  0  0  0  0  0
  -23.9404    2.2578   27.9389 C   0  0  0  0  0  0  0  0  0  0  0  0
  -24.6028    2.1259   28.7409 C   0  0  0  0  0  0  0  0  0  0  0  0
  -26.7674    2.8497   30.0966 C   0  0  0  0  0  0  0  0  0  0  0  0
  -25.4387    3.5299   29.2384 C   0  0  0  0  0  0  0  0  0  0  0  0
  1  2  2  0
  2  3  1  0
  3  4  1  0
  4  5  1  0
  5  6  1  0
  2  7  1  0
  6  7  1  0
  4  8  1  0
  8  9  1  0
  8 10  1  0
 10 11  1  0
 11 12  2  0
  5 13  1  0
 12 13  1  0
  6 14  1  0
 13 15  1  0
 14 15  2  0
M  END

$$$$
