No_4611-gen_results/8p0m/2024-11-26-14-13-15/
     RDKit          3D

 16 17  0  0  0  0  0  0  0  0999 V2000
  -28.0162   -0.8135   28.8779 C   0  0  0  0  0  0  0  0  0  0  0  0
  -27.0636   -0.1190   28.6079 C   0  0  0  0  0  0  0  0  0  0  0  0
  -27.0010    0.6913   27.4910 C   0  0  0  0  0  0  0  0  0  0  0  0
  -28.1373    0.7363   26.6350 C   0  0  0  0  0  0  0  0  0  0  0  0
  -29.2360    0.0765   27.0690 C   0  0  0  0  0  0  0  0  0  0  0  0
  -29.2177   -0.6429   28.1747 C   0  0  0  0  0  0  0  0  0  0  0  0
  -28.2275   -1.6261   30.1018 C   0  0  0  0  0  0  0  0  0  0  0  0
  -29.0376   -2.4759   30.2659 O   0  0  0  0  0  0  0  0  0  0  0  0
  -26.9324   -1.8393   30.8275 N   0  0  0  0  0  0  0  0  0  0  0  0
  -30.3516    0.1597   26.2292 N   0  0  0  0  0  0  0  0  0  0  0  0
  -31.4657   -0.3658   26.5964 C   0  0  0  0  0  0  0  0  0  0  0  0
  -30.3009    0.7031   24.8970 C   0  0  0  0  0  0  0  0  0  0  0  0
  -32.4394   -0.7338   25.6840 C   0  0  0  0  0  0  0  0  0  0  0  0
  -32.5126    0.0089   24.5044 C   0  0  0  0  0  0  0  0  0  0  0  0
  -31.3516    0.5736   24.0254 C   0  0  0  0  0  0  0  0  0  0  0  0
  -29.2151    1.2991   24.4959 O   0  0  0  0  0  0  0  0  0  0  0  0
  1  7  1  0
  7  8  2  0
  7  9  1  0
  5 10  1  0
 10 11  1  0
 10 12  1  0
 13 14  1  0
 12 15  1  0
 12 16  2  0
 11 13  1  0
 14 15  1  0
  1  2  2  0
  2  3  1  0
  3  4  2  0
  4  5  1  0
  5  6  2  0
  6  1  1  0
M  END

$$$$
