No_4807-gen_results/8p0m/2024-11-26-14-13-15/
     RDKit          3D

 19 20  0  0  0  0  0  0  0  0999 V2000
  -28.0162   -0.8135   28.8779 C   0  0  0  0  0  0  0  0  0  0  0  0
  -28.4690   -0.7850   29.8287 C   0  0  0  0  0  0  0  0  0  0  0  0
  -26.5042   -0.7777   28.8766 C   0  0  0  0  0  0  0  0  0  0  0  0
  -25.6540   -0.6597   27.7191 C   0  0  0  0  0  0  0  0  0  0  0  0
  -27.9180   -0.9374   31.1824 C   0  0  0  0  0  0  0  0  0  0  0  0
  -26.5423   -0.9399   31.2606 C   0  0  0  0  0  0  0  0  0  0  0  0
  -25.7832   -0.8935   30.1201 C   0  0  0  0  0  0  0  0  0  0  0  0
  -24.3096   -0.3015   27.8531 C   0  0  0  0  0  0  0  0  0  0  0  0
  -23.8453    0.0829   28.8629 C   0  0  0  0  0  0  0  0  0  0  0  0
  -22.4111    0.5409   29.0484 C   0  0  0  0  0  0  0  0  0  0  0  0
  -24.4763   -0.2605   30.2936 C   0  0  0  0  0  0  0  0  0  0  0  0
  -21.5392   -0.0746   29.5277 O   0  0  0  0  0  0  0  0  0  0  0  0
  -22.2101    1.7539   28.4361 O   0  0  0  0  0  0  0  0  0  0  0  0
  -30.0623   -0.9852   29.8596 C   0  0  0  0  0  0  0  0  0  0  0  0
  -30.7358   -0.1848   30.5959 O   0  0  0  0  0  0  0  0  0  0  0  0
  -30.5968   -1.7571   29.1011 O   0  0  0  0  0  0  0  0  0  0  0  0
  -23.7518   -0.1487   31.5036 C   0  0  0  0  0  0  0  0  0  0  0  0
  -23.6929    0.9447   32.0776 O   0  0  0  0  0  0  0  0  0  0  0  0
  -23.3243   -1.2526   32.0590 O   0  0  0  0  0  0  0  0  0  0  0  0
  9 10  1  0
 10 12  2  0
 10 13  1  0
  2 14  1  0
 14 15  2  0
 14 16  1  0
 11 17  1  0
 17 18  1  0
 17 19  2  0
  3  4  2  0
  4  8  1  0
  8  9  2  0
  9 11  1  0
 11  7  2  0
  1  2  2  0
  2  5  1  0
  5  6  2  0
  6  7  1  0
  7  3  1  0
  3  1  1  0
M  END

$$$$
