No_4838-gen_results/8p0m/2024-11-26-14-13-15/
     RDKit          3D

 19 20  0  0  0  0  0  0  0  0999 V2000
  -28.1229   -1.3353   28.4874 O   0  0  0  0  0  0  0  0  0  0  0  0
  -27.0637   -0.8242   28.8687 C   0  0  0  0  0  0  0  0  0  0  0  0
  -26.9592    0.0926   29.7582 C   0  0  0  0  0  0  0  0  0  0  0  0
  -25.8012   -1.3566   28.3971 N   0  0  0  0  0  0  0  0  0  0  0  0
  -27.8641    0.8180   30.2806 C   0  0  0  0  0  0  0  0  0  0  0  0
  -24.5359   -0.9360   28.7790 C   0  0  0  0  0  0  0  0  0  0  0  0
  -24.4578    0.1103   29.6230 C   0  0  0  0  0  0  0  0  0  0  0  0
  -25.5652    0.6747   30.1471 C   0  0  0  0  0  0  0  0  0  0  0  0
  -28.8130    1.3484   29.6187 C   0  0  0  0  0  0  0  0  0  0  0  0
  -29.9484    2.0060   30.1316 C   0  0  0  0  0  0  0  0  0  0  0  0
  -28.0605    0.7848   31.7499 C   0  0  0  0  0  0  0  0  0  0  0  0
  -29.1505    1.4338   32.3831 C   0  0  0  0  0  0  0  0  0  0  0  0
  -30.0688    2.0643   31.5391 C   0  0  0  0  0  0  0  0  0  0  0  0
  -23.0487    0.5247   30.0066 C   0  0  0  0  0  0  0  0  0  0  0  0
  -22.0037   -0.0390   29.6418 O   0  0  0  0  0  0  0  0  0  0  0  0
  -22.9583    1.5912   30.8857 O   0  0  0  0  0  0  0  0  0  0  0  0
  -31.2222    2.7824   32.1357 C   0  0  0  0  0  0  0  0  0  0  0  0
  -31.0445    3.6401   32.9054 O   0  0  0  0  0  0  0  0  0  0  0  0
  -32.3564    2.1629   31.9515 O   0  0  0  0  0  0  0  0  0  0  0  0
  1  2  2  0
  2  3  1  0
  2  4  1  0
  3  5  1  0
  6  7  1  0
  3  8  1  0
  7  8  1  0
  7 14  1  0
 14 15  2  0
 14 16  1  0
 13 17  1  0
 17 18  2  0
 17 19  1  0
  6  4  1  0
  5  9  2  0
  9 10  1  0
 10 13  2  0
 13 12  1  0
 12 11  2  0
 11  5  1  0
M  END

$$$$
