No_4725-gen_results/8p0m/2024-11-26-14-13-15/
     RDKit          3D

 15 15  0  0  0  0  0  0  0  0999 V2000
  -28.0162   -0.8135   28.8779 C   0  0  0  0  0  0  0  0  0  0  0  0
  -27.0636   -0.1189   28.6079 C   0  0  0  0  0  0  0  0  0  0  0  0
  -25.8837   -0.5253   28.7834 F   0  0  0  0  0  0  0  0  0  0  0  0
  -27.0741    0.4865   27.1626 C   0  0  0  0  0  0  0  0  0  0  0  0
  -29.3190   -0.0592   29.0344 C   0  0  0  0  0  0  0  0  0  0  0  0
  -29.6865    0.5327   27.7849 C   0  0  0  0  0  0  0  0  0  0  0  0
  -28.5374    1.2642   27.1224 C   0  0  0  0  0  0  0  0  0  0  0  0
  -26.8413    1.0472   29.4272 F   0  0  0  0  0  0  0  0  0  0  0  0
  -30.7256    1.4192   27.8389 O   0  0  0  0  0  0  0  0  0  0  0  0
  -30.4046   -0.9308   29.4712 O   0  0  0  0  0  0  0  0  0  0  0  0
  -28.7390    1.6646   25.7207 O   0  0  0  0  0  0  0  0  0  0  0  0
  -26.0103    1.2458   26.7949 O   0  0  0  0  0  0  0  0  0  0  0  0
  -27.7250   -1.4658   30.1902 O   0  0  0  0  0  0  0  0  0  0  0  0
  -31.8859    1.3020   27.3219 C   0  0  0  0  0  0  0  0  0  0  0  0
  -32.7145    1.9136   27.4680 C   0  0  0  0  0  0  0  0  0  0  0  0
  1  2  1  0
  2  3  1  0
  2  4  1  0
  1  5  1  0
  5  6  1  0
  4  7  1  0
  6  7  1  0
  2  8  1  0
  6  9  1  0
  5 10  1  0
  7 11  1  0
  4 12  1  0
  1 13  1  0
  9 14  1  0
 14 15  2  0
M  END

$$$$
