No_498-gen_results/8p0m/2024-11-26-14-13-15/
     RDKit          3D

 31 34  0  0  0  0  0  0  0  0999 V2000
  -28.0162   -0.8135   28.8779 C   0  0  0  0  0  0  0  0  0  0  0  0
  -27.0636   -0.1190   28.6079 C   0  0  0  0  0  0  0  0  0  0  0  0
  -26.9716    0.7139   27.5060 C   0  0  0  0  0  0  0  0  0  0  0  0
  -28.1053    0.7744   26.6421 C   0  0  0  0  0  0  0  0  0  0  0  0
  -29.2008    0.1044   27.0527 C   0  0  0  0  0  0  0  0  0  0  0  0
  -29.2096   -0.6029   28.1853 C   0  0  0  0  0  0  0  0  0  0  0  0
  -30.3702    0.2264   26.1604 C   0  0  0  0  0  0  0  0  0  0  0  0
  -30.3387    0.2161   24.9661 O   0  0  0  0  0  0  0  0  0  0  0  0
  -31.5729    0.5319   26.7640 N   0  0  0  0  0  0  0  0  0  0  0  0
  -31.7703    0.6994   28.1565 C   0  0  0  0  0  0  0  0  0  0  0  0
  -31.5055    1.9407   28.5544 C   0  0  0  0  0  0  0  0  0  0  0  0
  -32.0844    2.5417   29.2466 C   0  0  0  0  0  0  0  0  0  0  0  0
  -31.8362    3.9601   29.6635 C   0  0  0  0  0  0  0  0  0  0  0  0
  -30.6639    4.5639   29.1588 C   0  0  0  0  0  0  0  0  0  0  0  0
  -30.2579    2.7033   28.0202 C   0  0  0  0  0  0  0  0  0  0  0  0
  -29.9193    3.9377   28.3362 C   0  0  0  0  0  0  0  0  0  0  0  0
  -28.0743   -1.6684   30.1354 C   0  0  0  0  0  0  0  0  0  0  0  0
  -28.7947   -1.5764   31.0310 N   0  0  0  0  0  0  0  0  0  0  0  0
  -26.9907   -2.4247   30.2637 O   0  0  0  0  0  0  0  0  0  0  0  0
  -29.1690   -2.2137   31.8981 C   0  0  0  0  0  0  0  0  0  0  0  0
  -32.7514    0.5810   25.9299 C   0  0  0  0  0  0  0  0  0  0  0  0
  -29.9279   -3.3084   31.7355 C   0  0  0  0  0  0  0  0  0  0  0  0
  -30.5489   -3.4796   30.5636 C   0  0  0  0  0  0  0  0  0  0  0  0
  -31.3058   -4.6752   30.2154 C   0  0  0  0  0  0  0  0  0  0  0  0
  -31.3150   -5.6646   31.2240 C   0  0  0  0  0  0  0  0  0  0  0  0
  -30.6794   -5.5548   32.4437 C   0  0  0  0  0  0  0  0  0  0  0  0
  -29.9624   -4.4169   32.7263 C   0  0  0  0  0  0  0  0  0  0  0  0
  -32.0087   -4.8391   28.9739 C   0  0  0  0  0  0  0  0  0  0  0  0
  -31.8212   -5.9085   28.2729 C   0  0  0  0  0  0  0  0  0  0  0  0
  -30.9508   -6.9428   28.7280 C   0  0  0  0  0  0  0  0  0  0  0  0
  -30.9897   -7.1070   30.2595 C   0  0  0  0  0  0  0  0  0  0  0  0
  5  7  1  0
  7  8  2  0
  7  9  1  0
  9 10  1  0
 10 11  1  0
  1 17  1  0
 17 18  1  0
 17 19  2  0
 18 20  1  0
  9 21  1  0
 20 22  1  0
  1  2  2  0
  2  3  1  0
  3  4  2  0
  4  5  1  0
  5  6  2  0
  6  1  1  0
 22 23  2  0
 23 24  1  0
 25 26  1  0
 26 27  2  0
 27 22  1  0
 11 12  2  0
 12 13  1  0
 13 14  2  0
 14 16  1  0
 16 15  2  0
 15 11  1  0
 24 25  2  0
 25 31  1  0
 31 30  2  0
 30 29  1  0
 29 28  2  0
 28 24  1  0
M  END

$$$$
