No_4456-gen_results/8p0m/2024-11-26-14-13-15/
     RDKit          3D

 11 11  0  0  0  0  0  0  0  0999 V2000
  -28.0162   -0.8135   28.8779 C   0  0  0  0  0  0  0  0  0  0  0  0
  -27.0636   -0.1190   28.6079 C   0  0  0  0  0  0  0  0  0  0  0  0
  -25.7647   -0.3897   29.0360 C   0  0  0  0  0  0  0  0  0  0  0  0
  -25.5296   -1.5302   29.9014 C   0  0  0  0  0  0  0  0  0  0  0  0
  -26.6577   -2.2915   30.2035 C   0  0  0  0  0  0  0  0  0  0  0  0
  -27.8548   -1.9555   29.7630 C   0  0  0  0  0  0  0  0  0  0  0  0
  -24.5349    0.4128   28.7431 C   0  0  0  0  0  0  0  0  0  0  0  0
  -24.4835    1.2431   27.7398 C   0  0  0  0  0  0  0  0  0  0  0  0
  -23.3130    1.8552   27.3514 C   0  0  0  0  0  0  0  0  0  0  0  0
  -23.2550    2.8121   26.2799 C   0  0  0  0  0  0  0  0  0  0  0  0
  -23.5808    0.7453   29.8242 C   0  0  0  0  0  0  0  0  0  0  0  0
  3  7  1  0
  7  8  1  0
  8  9  2  3
  9 10  1  0
  7 11  1  0
  1  2  2  0
  2  3  1  0
  3  4  2  0
  4  5  1  0
  5  6  2  0
  6  1  1  0
M  END

$$$$
