No_4208-gen_results/8p0m/2024-11-26-14-13-15/
     RDKit          3D

 11 11  0  0  0  0  0  0  0  0999 V2000
  -28.0162   -0.8135   28.8779 C   0  0  0  0  0  0  0  0  0  0  0  0
  -28.4690   -0.7850   29.8287 C   0  0  0  0  0  0  0  0  0  0  0  0
  -26.5042   -0.7777   28.8766 C   0  0  0  0  0  0  0  0  0  0  0  0
  -25.9500    0.1157   29.4052 C   0  0  0  0  0  0  0  0  0  0  0  0
  -28.1019   -0.1961   30.8907 C   0  0  0  0  0  0  0  0  0  0  0  0
  -26.6922    0.3239   30.8776 C   0  0  0  0  0  0  0  0  0  0  0  0
  -30.1913   -1.2775   29.9847 Cl  0  0  0  0  0  0  0  0  0  0  0  0
  -24.5631    0.4345   29.5240 C   0  0  0  0  0  0  0  0  0  0  0  0
  -24.0921    1.2557   28.4357 C   0  0  0  0  0  0  0  0  0  0  0  0
  -24.5004    2.4976   28.3494 C   0  0  0  0  0  0  0  0  0  0  0  0
  -24.3183    3.1250   27.1257 N   0  0  0  0  0  0  0  0  0  0  0  0
  2  7  1  0
  4  8  1  0
  8  9  1  0
  9 10  1  0
 10 11  2  0
  1  2  2  0
  2  5  1  0
  5  6  2  0
  6  4  1  0
  4  3  2  0
  3  1  1  0
M  END

$$$$
