No_439-gen_results/8p0m/2024-11-26-14-13-15/
     RDKit          3D

 30 35  0  0  0  0  0  0  0  0999 V2000
  -28.0162   -0.8135   28.8779 C   0  0  0  0  0  0  0  0  0  0  0  0
  -28.4690   -0.7850   29.8287 C   0  0  0  0  0  0  0  0  0  0  0  0
  -26.5455   -0.8762   28.8500 C   0  0  0  0  0  0  0  0  0  0  0  0
  -25.8041   -1.0324   30.0571 C   0  0  0  0  0  0  0  0  0  0  0  0
  -27.9437   -0.9869   31.2075 C   0  0  0  0  0  0  0  0  0  0  0  0
  -26.5825   -1.0386   31.2231 C   0  0  0  0  0  0  0  0  0  0  0  0
  -30.0606   -0.7371   29.9024 C   0  0  0  0  0  0  0  0  0  0  0  0
  -30.5524   -0.2769   29.0111 O   0  0  0  0  0  0  0  0  0  0  0  0
  -30.7429   -1.2889   30.9939 N   0  0  0  0  0  0  0  0  0  0  0  0
  -32.1712   -1.2600   30.9749 C   0  0  0  0  0  0  0  0  0  0  0  0
  -24.3688   -1.0881   30.0880 C   0  0  0  0  0  0  0  0  0  0  0  0
  -23.5808   -0.7799   29.0756 C   0  0  0  0  0  0  0  0  0  0  0  0
  -22.1319   -0.6858   29.1927 C   0  0  0  0  0  0  0  0  0  0  0  0
  -21.5243    0.4649   28.8594 C   0  0  0  0  0  0  0  0  0  0  0  0
  -22.1013    1.3790   27.9077 C   0  0  0  0  0  0  0  0  0  0  0  0
  -23.5220    1.2647   27.6913 C   0  0  0  0  0  0  0  0  0  0  0  0
  -24.2105    0.2887   28.2588 C   0  0  0  0  0  0  0  0  0  0  0  0
  -24.1555    2.2820   26.8502 C   0  0  0  0  0  0  0  0  0  0  0  0
  -23.7809    3.3463   26.6278 C   0  0  0  0  0  0  0  0  0  0  0  0
  -25.4501    1.7570   26.3273 C   0  0  0  0  0  0  0  0  0  0  0  0
  -26.4196    2.5978   25.9205 C   0  0  0  0  0  0  0  0  0  0  0  0
  -24.6668    4.3769   26.0059 C   0  0  0  0  0  0  0  0  0  0  0  0
  -25.9217    3.9421   25.5887 C   0  0  0  0  0  0  0  0  0  0  0  0
  -32.7043   -2.0956   31.6940 C   0  0  0  0  0  0  0  0  0  0  0  0
  -32.0018   -2.8924   32.7071 C   0  0  0  0  0  0  0  0  0  0  0  0
  -30.5929   -2.8978   32.6666 C   0  0  0  0  0  0  0  0  0  0  0  0
  -29.9775   -2.2039   31.7629 C   0  0  0  0  0  0  0  0  0  0  0  0
  -28.5600   -2.0165   31.9171 C   0  0  0  0  0  0  0  0  0  0  0  0
  -25.6351   -0.2480   27.8003 C   0  0  0  0  0  0  0  0  0  0  0  0
  -25.4783   -1.2918   26.6807 C   0  0  0  0  0  0  0  0  0  0  0  0
  2  7  1  0
  7  8  2  0
  7  9  1  0
  9 10  1  0
 16 18  1  0
 24 25  1  0
  9 27  1  0
 26 27  1  0
  5 28  1  0
 27 28  1  0
 29 30  1  0
 10 24  1  0
 25 26  1  0
 12 13  2  0
 13 14  1  0
 14 15  2  0
 15 16  1  0
 16 17  2  0
  4 11  2  0
 11 12  1  0
 12 17  1  0
 17 29  1  0
 29  3  2  0
 18 19  2  0
 19 22  1  0
 22 23  2  0
 23 21  1  0
 21 20  2  0
 20 18  1  0
  1  2  2  0
  2  5  1  0
  5  6  2  0
  6  4  1  0
  4  3  1  0
  3  1  1  0
M  END

$$$$
