No_4371-gen_results/8p0m/2024-11-26-14-13-15/
     RDKit          3D

 26 28  0  0  0  0  0  0  0  0999 V2000
  -28.0162   -0.8135   28.8779 C   0  0  0  0  0  0  0  0  0  0  0  0
  -27.0636   -0.1189   28.6079 C   0  0  0  0  0  0  0  0  0  0  0  0
  -25.7923   -0.4302   29.0761 C   0  0  0  0  0  0  0  0  0  0  0  0
  -24.5456    0.3494   28.8225 C   0  0  0  0  0  0  0  0  0  0  0  0
  -24.6586    1.4196   27.8878 C   0  0  0  0  0  0  0  0  0  0  0  0
  -23.5403    2.1791   27.5500 C   0  0  0  0  0  0  0  0  0  0  0  0
  -22.2925    1.7428   28.0473 C   0  0  0  0  0  0  0  0  0  0  0  0
  -22.1712    0.7079   28.9284 C   0  0  0  0  0  0  0  0  0  0  0  0
  -23.3345   -0.0624   29.3081 C   0  0  0  0  0  0  0  0  0  0  0  0
  -27.9466   -1.8823   29.8708 C   0  0  0  0  0  0  0  0  0  0  0  0
  -26.7159   -2.3287   30.3060 C   0  0  0  0  0  0  0  0  0  0  0  0
  -25.5921   -1.5643   29.9672 C   0  0  0  0  0  0  0  0  0  0  0  0
  -29.1228   -2.6879   30.2451 C   0  0  0  0  0  0  0  0  0  0  0  0
  -29.0387   -3.8965   30.3107 O   0  0  0  0  0  0  0  0  0  0  0  0
  -30.1014   -2.0451   30.9437 N   0  0  0  0  0  0  0  0  0  0  0  0
  -31.2619   -2.8058   31.4487 C   0  0  0  0  0  0  0  0  0  0  0  0
  -32.3640   -2.3525   31.0743 C   0  0  0  0  0  0  0  0  0  0  0  0
  -32.9859   -2.4944   30.3001 C   0  0  0  0  0  0  0  0  0  0  0  0
  -33.7746   -2.1024   29.5999 C   0  0  0  0  0  0  0  0  0  0  0  0
  -34.4943   -0.8960   30.1784 C   0  0  0  0  0  0  0  0  0  0  0  0
  -34.0211   -0.4802   31.3420 C   0  0  0  0  0  0  0  0  0  0  0  0
  -32.8818   -1.1085   31.8643 C   0  0  0  0  0  0  0  0  0  0  0  0
  -35.7094   -0.3177   29.5140 C   0  0  0  0  0  0  0  0  0  0  0  0
  -36.3765    0.4343   30.1757 F   0  0  0  0  0  0  0  0  0  0  0  0
  -36.4831   -1.3413   29.0444 F   0  0  0  0  0  0  0  0  0  0  0  0
  -35.2132    0.3435   28.4066 F   0  0  0  0  0  0  0  0  0  0  0  0
  3  4  1  0
 10 13  1  0
 13 14  2  0
 13 15  1  0
 15 16  1  0
 16 17  1  0
 20 23  1  0
 23 24  1  0
 23 25  1  0
 23 26  1  0
 17 18  2  0
 18 19  1  0
 19 20  2  0
 20 21  1  0
 21 22  2  0
 22 17  1  0
  1  2  2  0
  2  3  1  0
  3 12  2  0
 12 11  1  0
 11 10  2  0
 10  1  1  0
  4  5  2  0
  5  6  1  0
  6  7  2  0
  7  8  1  0
  8  9  2  0
  9  4  1  0
M  END

$$$$
