No_4836-gen_results/8p0m/2024-11-26-14-13-15/
     RDKit          3D

 17 18  0  0  0  0  0  0  0  0999 V2000
  -28.0162   -0.8135   28.8779 C   0  0  0  0  0  0  0  0  0  0  0  0
  -27.0636   -0.1189   28.6079 C   0  0  0  0  0  0  0  0  0  0  0  0
  -26.8756    1.1325   28.9134 C   0  0  0  0  0  0  0  0  0  0  0  0
  -27.9014    1.8066   29.6436 C   0  0  0  0  0  0  0  0  0  0  0  0
  -29.0458   -0.2316   29.7181 C   0  0  0  0  0  0  0  0  0  0  0  0
  -28.9402    1.0517   30.0597 C   0  0  0  0  0  0  0  0  0  0  0  0
  -25.6771   -0.6845   27.6168 Cl  0  0  0  0  0  0  0  0  0  0  0  0
  -29.9376    1.6015   30.8383 O   0  0  0  0  0  0  0  0  0  0  0  0
  -31.0124    1.3822   30.9283 C   0  0  0  0  0  0  0  0  0  0  0  0
  -32.0703    2.4300   30.9340 C   0  0  0  0  0  0  0  0  0  0  0  0
  -33.4181    2.1332   30.9284 C   0  0  0  0  0  0  0  0  0  0  0  0
  -31.6264    0.0885   31.0242 C   0  0  0  0  0  0  0  0  0  0  0  0
  -32.9766   -0.2059   31.0577 C   0  0  0  0  0  0  0  0  0  0  0  0
  -33.8603    0.8544   31.0627 C   0  0  0  0  0  0  0  0  0  0  0  0
  -35.2828    0.5348   31.1284 C   0  0  0  0  0  0  0  0  0  0  0  0
  -35.9861    1.0080   32.2045 C   0  0  0  0  0  0  0  0  0  0  0  0
  -37.3920    0.7387   32.3062 C   0  0  0  0  0  0  0  0  0  0  0  0
  2  7  1  0
  6  8  1  0
  8  9  1  0
 14 15  1  0
 15 16  2  3
 16 17  1  0
  9 10  2  0
 10 11  1  0
 11 14  2  0
 14 13  1  0
 13 12  2  0
 12  9  1  0
  1  2  2  0
  2  3  1  0
  3  4  2  0
  4  6  1  0
  6  5  2  0
  5  1  1  0
M  END

$$$$
