No_502-gen_results/8p0m/2024-11-26-14-13-15/
     RDKit          3D

 13 14  0  0  0  0  0  0  0  0999 V2000
  -28.0162   -0.8135   28.8779 C   0  0  0  0  0  0  0  0  0  0  0  0
  -28.4690   -0.7850   29.8287 C   0  0  0  0  0  0  0  0  0  0  0  0
  -27.1356    0.2359   28.5352 C   0  0  0  0  0  0  0  0  0  0  0  0
  -26.8745    1.2825   29.3982 C   0  0  0  0  0  0  0  0  0  0  0  0
  -27.5070    1.2380   30.6295 C   0  0  0  0  0  0  0  0  0  0  0  0
  -28.3293    0.1745   30.9350 C   0  0  0  0  0  0  0  0  0  0  0  0
  -26.3848    0.5209   27.2533 C   0  0  0  0  0  0  0  0  0  0  0  0
  -25.1527    0.6094   27.2133 C   0  0  0  0  0  0  0  0  0  0  0  0
  -24.5102    1.3909   28.2868 C   0  0  0  0  0  0  0  0  0  0  0  0
  -23.1059    1.7432   28.2856 C   0  0  0  0  0  0  0  0  0  0  0  0
  -25.3788    1.6540   29.5075 C   0  0  0  0  0  0  0  0  0  0  0  0
  -22.4210    1.7762   29.2690 O   0  0  0  0  0  0  0  0  0  0  0  0
  -22.5614    2.0764   27.1087 O   0  0  0  0  0  0  0  0  0  0  0  0
  9 10  1  0
 10 12  1  0
 10 13  2  0
  1  2  2  0
  2  6  1  0
  6  5  2  0
  5  4  1  0
  3  1  1  0
  3  4  2  0
  4 11  1  0
 11  9  2  0
  9  8  1  0
  8  7  2  0
  7  3  1  0
M  END

$$$$
