No_527-gen_results/8p0m/2024-11-26-14-13-15/
     RDKit          3D

 18 19  0  0  0  0  0  0  0  0999 V2000
  -28.0162   -0.8135   28.8779 C   0  0  0  0  0  0  0  0  0  0  0  0
  -27.0636   -0.1189   28.6079 C   0  0  0  0  0  0  0  0  0  0  0  0
  -27.0010    0.6913   27.4910 C   0  0  0  0  0  0  0  0  0  0  0  0
  -25.8548    1.4825   27.0830 C   0  0  0  0  0  0  0  0  0  0  0  0
  -24.6901    1.4526   27.8807 C   0  0  0  0  0  0  0  0  0  0  0  0
  -24.7379    0.6010   29.0416 C   0  0  0  0  0  0  0  0  0  0  0  0
  -25.8234   -0.1688   29.3887 C   0  0  0  0  0  0  0  0  0  0  0  0
  -28.7350   -0.4637   30.1419 C   0  0  0  0  0  0  0  0  0  0  0  0
  -29.8111   -1.3049   30.6008 C   0  0  0  0  0  0  0  0  0  0  0  0
  -23.6598    2.1375   27.5843 F   0  0  0  0  0  0  0  0  0  0  0  0
  -30.9016   -1.0668   30.6484 C   0  0  0  0  0  0  0  0  0  0  0  0
  -31.9631   -2.0340   31.0953 C   0  0  0  0  0  0  0  0  0  0  0  0
  -31.5211   -3.3235   31.3875 C   0  0  0  0  0  0  0  0  0  0  0  0
  -30.1961   -3.6888   31.2873 C   0  0  0  0  0  0  0  0  0  0  0  0
  -29.2445   -2.7044   30.8793 C   0  0  0  0  0  0  0  0  0  0  0  0
  -28.4941    0.7647   30.8660 C   0  0  0  0  0  0  0  0  0  0  0  0
  -29.1421    1.9262   30.5096 C   0  0  0  0  0  0  0  0  0  0  0  0
  -29.0230    2.9571   31.0473 C   0  0  0  0  0  0  0  0  0  0  0  0
  1  2  1  0
  1  8  1  0
  8  9  1  0
  5 10  1  0
  8 16  1  0
 16 17  2  3
 17 18  1  0
  2  3  2  0
  3  4  1  0
  4  5  2  0
  5  6  1  0
  6  7  2  0
  7  2  1  0
  9 11  2  0
 11 12  1  0
 12 13  2  0
 13 14  1  0
 14 15  2  0
 15  9  1  0
M  END

$$$$
