No_520-gen_results/8p0m/2024-11-26-14-13-15/
     RDKit          3D

 27 29  0  0  0  0  0  0  0  0999 V2000
  -28.0162   -0.8135   28.8779 C   0  0  0  0  0  0  0  0  0  0  0  0
  -27.0636   -0.1189   28.6079 C   0  0  0  0  0  0  0  0  0  0  0  0
  -26.8756    1.1325   28.9134 C   0  0  0  0  0  0  0  0  0  0  0  0
  -27.9014    1.8066   29.6436 C   0  0  0  0  0  0  0  0  0  0  0  0
  -29.0458   -0.2316   29.7181 C   0  0  0  0  0  0  0  0  0  0  0  0
  -28.9402    1.0517   30.0597 C   0  0  0  0  0  0  0  0  0  0  0  0
  -26.0208   -0.6774   27.8774 F   0  0  0  0  0  0  0  0  0  0  0  0
  -30.1852    1.7778   31.0049 Cl  0  0  0  0  0  0  0  0  0  0  0  0
  -25.6743    1.9341   28.4458 C   0  0  0  0  0  0  0  0  0  0  0  0
  -24.5397    1.7071   29.1762 C   0  0  0  0  0  0  0  0  0  0  0  0
  -24.3027    1.6298   30.4285 C   0  0  0  0  0  0  0  0  0  0  0  0
  -25.4655    1.6674   31.3025 C   0  0  0  0  0  0  0  0  0  0  0  0
  -25.3469    2.9455   32.1678 C   0  0  0  0  0  0  0  0  0  0  0  0
  -26.4215    3.1143   33.1294 C   0  0  0  0  0  0  0  0  0  0  0  0
  -26.6042    4.4059   33.6475 C   0  0  0  0  0  0  0  0  0  0  0  0
  -25.6277    5.4161   33.4004 C   0  0  0  0  0  0  0  0  0  0  0  0
  -24.5997    5.1869   32.5231 C   0  0  0  0  0  0  0  0  0  0  0  0
  -24.4890    3.9753   31.8652 C   0  0  0  0  0  0  0  0  0  0  0  0
  -23.3284    1.7170   28.2055 C   0  0  0  0  0  0  0  0  0  0  0  0
  -23.2922    2.4106   27.2394 O   0  0  0  0  0  0  0  0  0  0  0  0
  -22.2861    0.8491   28.4779 O   0  0  0  0  0  0  0  0  0  0  0  0
  -25.3746    0.5060   32.3795 C   0  0  0  0  0  0  0  0  0  0  0  0
  -24.2419    0.0039   32.6746 C   0  0  0  0  0  0  0  0  0  0  0  0
  -26.5045   -0.5656   32.0193 C   0  0  0  0  0  0  0  0  0  0  0  0
  -25.9497    1.0635   33.8398 C   0  0  0  0  0  0  0  0  0  0  0  0
  -26.3013    2.1744   34.1909 N   0  0  0  0  0  0  0  0  0  0  0  0
  -26.1586    0.0619   34.8174 N   0  0  0  0  0  0  0  0  0  0  0  0
  2  7  1  0
  6  8  1  0
  3  9  1  0
  9 10  1  0
 10 11  2  3
 11 12  1  0
 10 19  1  0
 19 20  2  0
 19 21  1  0
 12 22  1  0
 22 23  1  0
 22 24  1  0
 22 25  1  0
 14 26  1  0
 25 26  1  0
 25 27  1  0
 12 13  1  0
 13 14  1  0
 14 15  2  0
 15 16  1  0
 16 17  2  0
 17 18  1  0
 18 13  2  0
  1  2  2  0
  2  3  1  0
  3  4  2  0
  4  6  1  0
  6  5  2  0
  5  1  1  0
M  END

$$$$
