No_566-gen_results/8p0m/2024-11-26-14-13-15/
     RDKit          3D

 35 37  0  0  0  0  0  0  0  0999 V2000
  -28.0162   -0.8135   28.8779 C   0  0  0  0  0  0  0  0  0  0  0  0
  -27.0636   -0.1190   28.6079 C   0  0  0  0  0  0  0  0  0  0  0  0
  -25.7647   -0.3897   29.0360 C   0  0  0  0  0  0  0  0  0  0  0  0
  -25.5296   -1.5302   29.9014 C   0  0  0  0  0  0  0  0  0  0  0  0
  -26.6888   -2.2893   30.1810 C   0  0  0  0  0  0  0  0  0  0  0  0
  -27.8727   -1.9508   29.7373 C   0  0  0  0  0  0  0  0  0  0  0  0
  -24.5491    0.4100   28.7341 C   0  0  0  0  0  0  0  0  0  0  0  0
  -24.0931    1.3779   29.5761 C   0  0  0  0  0  0  0  0  0  0  0  0
  -22.9754    2.1437   29.2395 C   0  0  0  0  0  0  0  0  0  0  0  0
  -22.2571    1.9096   28.0218 C   0  0  0  0  0  0  0  0  0  0  0  0
  -23.7980    0.2733   27.5521 C   0  0  0  0  0  0  0  0  0  0  0  0
  -22.7107    1.0013   27.2291 C   0  0  0  0  0  0  0  0  0  0  0  0
  -29.0291   -2.7933   30.1645 C   0  0  0  0  0  0  0  0  0  0  0  0
  -30.1935   -2.3218   30.1814 N   0  0  0  0  0  0  0  0  0  0  0  0
  -28.8123   -3.9797   30.5759 O   0  0  0  0  0  0  0  0  0  0  0  0
  -31.3772   -3.1181   30.5530 C   0  0  0  0  0  0  0  0  0  0  0  0
  -31.5010   -3.9874   31.1531 C   0  0  0  0  0  0  0  0  0  0  0  0
  -32.3014   -2.9469   29.3473 C   0  0  0  0  0  0  0  0  0  0  0  0
  -32.3795   -1.9121   28.6849 O   0  0  0  0  0  0  0  0  0  0  0  0
  -33.1400   -3.8965   29.0637 O   0  0  0  0  0  0  0  0  0  0  0  0
  -24.7378    1.6331   30.9017 C   0  0  0  0  0  0  0  0  0  0  0  0
  -24.8617    0.8086   31.8330 N   0  0  0  0  0  0  0  0  0  0  0  0
  -25.6450    1.0616   32.9654 C   0  0  0  0  0  0  0  0  0  0  0  0
  -25.2928    2.9539   31.0731 C   0  0  0  0  0  0  0  0  0  0  0  0
  -25.9503    3.3097   32.1945 C   0  0  0  0  0  0  0  0  0  0  0  0
  -25.8160    0.0215   33.9762 C   0  0  0  0  0  0  0  0  0  0  0  0
  -26.1272    2.3377   33.1833 C   0  0  0  0  0  0  0  0  0  0  0  0
  -26.9471   -0.7904   33.6623 C   0  0  0  0  0  0  0  0  0  0  0  0
  -27.9591   -0.8586   34.7225 C   0  0  0  0  0  0  0  0  0  0  0  0
  -28.3434    0.1516   35.0162 C   0  0  0  0  0  0  0  0  0  0  0  0
  -29.2504    0.9135   34.2065 C   0  0  0  0  0  0  0  0  0  0  0  0
  -30.4233    0.8986   34.4649 C   0  0  0  0  0  0  0  0  0  0  0  0
  -31.4116    1.5342   33.5250 C   0  0  0  0  0  0  0  0  0  0  0  0
  -30.9000    2.0796   32.3563 C   0  0  0  0  0  0  0  0  0  0  0  0
  -29.5707    2.0698   32.0783 C   0  0  0  0  0  0  0  0  0  0  0  0
  3  7  1  0
  6 13  1  0
 13 14  1  0
 13 15  2  0
 14 16  1  0
 16 17  1  0
 16 18  1  0
 18 19  1  0
 18 20  2  0
  8 21  1  0
 23 26  1  0
 26 28  1  0
 28 29  1  0
 29 30  1  0
 30 31  1  0
 31 32  2  3
 32 33  1  0
 33 34  2  3
 34 35  1  0
  7  8  1  0
  8  9  2  0
  9 10  1  0
 10 12  2  0
 12 11  1  0
 11  7  2  0
  1  2  2  0
  2  3  1  0
  3  4  2  0
  4  5  1  0
  5  6  2  0
  6  1  1  0
 21 22  2  0
 22 23  1  0
 23 27  2  0
 27 25  1  0
 25 24  2  0
 24 21  1  0
M  END

$$$$
