No_551-gen_results/8p0m/2024-11-26-14-13-15/
     RDKit          3D

  7  7  0  0  0  0  0  0  0  0999 V2000
  -28.0162   -0.8135   28.8779 C   0  0  0  0  0  0  0  0  0  0  0  0
  -27.0636   -0.1189   28.6079 C   0  0  0  0  0  0  0  0  0  0  0  0
  -26.7751    0.5580   27.4144 C   0  0  0  0  0  0  0  0  0  0  0  0
  -27.8572    0.5591   26.4738 C   0  0  0  0  0  0  0  0  0  0  0  0
  -29.0489    0.0816   26.8831 C   0  0  0  0  0  0  0  0  0  0  0  0
  -29.1631   -0.5648   28.0490 C   0  0  0  0  0  0  0  0  0  0  0  0
  -25.6454    1.1380   27.0938 F   0  0  0  0  0  0  0  0  0  0  0  0
  3  7  1  0
  1  2  2  0
  2  3  1  0
  3  4  2  0
  4  5  1  0
  5  6  2  0
  6  1  1  0
M  END

$$$$
