No_585-gen_results/8p0m/2024-11-26-14-13-15/
     RDKit          3D

 15 16  0  0  0  0  0  0  0  0999 V2000
  -28.0162   -0.8135   28.8779 C   0  0  0  0  0  0  0  0  0  0  0  0
  -27.0636   -0.1189   28.6079 C   0  0  0  0  0  0  0  0  0  0  0  0
  -25.7923   -0.4302   29.0761 C   0  0  0  0  0  0  0  0  0  0  0  0
  -25.5756   -1.5654   29.9363 C   0  0  0  0  0  0  0  0  0  0  0  0
  -26.7354   -2.3004   30.2173 C   0  0  0  0  0  0  0  0  0  0  0  0
  -27.9184   -1.9537   29.7629 C   0  0  0  0  0  0  0  0  0  0  0  0
  -27.1059    1.0338   27.8185 N   0  0  0  0  0  0  0  0  0  0  0  0
  -26.2610    1.3293   26.9037 C   0  0  0  0  0  0  0  0  0  0  0  0
  -26.3173    2.4686   26.1228 C   0  0  0  0  0  0  0  0  0  0  0  0
  -25.2580    0.6015   26.7799 F   0  0  0  0  0  0  0  0  0  0  0  0
  -25.2552    3.1505   25.5856 C   0  0  0  0  0  0  0  0  0  0  0  0
  -27.5777    2.9928   25.6533 C   0  0  0  0  0  0  0  0  0  0  0  0
  -24.9752    4.5068   25.9070 C   0  0  0  0  0  0  0  0  0  0  0  0
  -26.1081    5.3035   26.2713 C   0  0  0  0  0  0  0  0  0  0  0  0
  -27.4242    4.5794   26.1396 C   0  0  0  0  0  0  0  0  0  0  0  0
  2  7  1  0
  7  8  2  3
  8  9  1  0
  8 10  1  0
  1  2  2  0
  2  3  1  0
  3  4  2  0
  4  5  1  0
  5  6  2  0
  6  1  1  0
  9 11  2  0
 11 13  1  0
 13 14  2  0
 14 15  1  0
 15 12  2  0
 12  9  1  0
M  END

$$$$
