No_506-gen_results/8p0m/2024-11-26-14-13-15/
     RDKit          3D

 21 22  0  0  0  0  0  0  0  0999 V2000
  -28.0727   -1.2542   28.5316 F   0  0  0  0  0  0  0  0  0  0  0  0
  -27.3591   -0.3792   28.7224 C   0  0  0  0  0  0  0  0  0  0  0  0
  -26.3323   -0.6441   29.4520 C   0  0  0  0  0  0  0  0  0  0  0  0
  -25.2562    0.3203   29.7818 C   0  0  0  0  0  0  0  0  0  0  0  0
  -25.4242    1.6275   29.2026 C   0  0  0  0  0  0  0  0  0  0  0  0
  -26.5263    1.8254   28.4032 C   0  0  0  0  0  0  0  0  0  0  0  0
  -27.4513    0.8601   28.1355 C   0  0  0  0  0  0  0  0  0  0  0  0
  -28.5362    1.1997   27.2520 C   0  0  0  0  0  0  0  0  0  0  0  0
  -28.3742    1.8466   26.1533 C   0  0  0  0  0  0  0  0  0  0  0  0
  -29.4528    2.1733   25.1922 C   0  0  0  0  0  0  0  0  0  0  0  0
  -30.6813    1.6095   25.4510 C   0  0  0  0  0  0  0  0  0  0  0  0
  -30.8316    0.8133   26.5788 C   0  0  0  0  0  0  0  0  0  0  0  0
  -29.8103    0.5919   27.4511 C   0  0  0  0  0  0  0  0  0  0  0  0
  -24.4314    2.6340   29.5104 C   0  0  0  0  0  0  0  0  0  0  0  0
  -24.1663    3.5850   28.7938 O   0  0  0  0  0  0  0  0  0  0  0  0
  -23.6847    2.4501   30.6198 O   0  0  0  0  0  0  0  0  0  0  0  0
  -32.1700    0.2318   26.8349 C   0  0  0  0  0  0  0  0  0  0  0  0
  -32.8521    0.4115   27.7886 F   0  0  0  0  0  0  0  0  0  0  0  0
  -31.9536   -1.1488   26.7479 F   0  0  0  0  0  0  0  0  0  0  0  0
  -32.9524    0.3942   25.7357 F   0  0  0  0  0  0  0  0  0  0  0  0
  -26.0623   -1.8164   30.0411 F   0  0  0  0  0  0  0  0  0  0  0  0
  1  2  1  0
  7  8  1  0
  5 14  1  0
 14 15  2  0
 14 16  1  0
 12 17  1  0
 17 18  1  0
 17 19  1  0
 17 20  1  0
  3 21  1  0
  2  3  2  0
  3  4  1  0
  4  5  2  0
  5  6  1  0
  6  7  2  0
  7  2  1  0
  8  9  2  0
  9 10  1  0
 10 11  2  0
 11 12  1  0
 12 13  2  0
 13  8  1  0
M  END

$$$$
