No_589-gen_results/8p0m/2024-11-26-14-13-15/
     RDKit          3D

 21 21  0  0  0  0  0  0  0  0999 V2000
  -28.0162   -0.8135   28.8779 C   0  0  0  0  0  0  0  0  0  0  0  0
  -27.0636   -0.1190   28.6079 C   0  0  0  0  0  0  0  0  0  0  0  0
  -26.9287    1.1713   29.0083 C   0  0  0  0  0  0  0  0  0  0  0  0
  -25.7702    2.0341   28.6884 C   0  0  0  0  0  0  0  0  0  0  0  0
  -24.7141    1.4431   27.9188 C   0  0  0  0  0  0  0  0  0  0  0  0
  -24.8590    0.0783   27.5836 C   0  0  0  0  0  0  0  0  0  0  0  0
  -25.9647   -0.6606   27.9164 C   0  0  0  0  0  0  0  0  0  0  0  0
  -28.6995   -0.6441   30.0766 N   0  0  0  0  0  0  0  0  0  0  0  0
  -29.8035   -1.3645   30.5061 C   0  0  0  0  0  0  0  0  0  0  0  0
  -30.3751   -2.1790   29.7448 C   0  0  0  0  0  0  0  0  0  0  0  0
  -30.4580   -3.5170   30.2214 C   0  0  0  0  0  0  0  0  0  0  0  0
  -31.0295   -4.4147   29.4314 O   0  0  0  0  0  0  0  0  0  0  0  0
  -23.5376    2.1658   27.5638 C   0  0  0  0  0  0  0  0  0  0  0  0
  -22.6773    1.6394   27.1623 F   0  0  0  0  0  0  0  0  0  0  0  0
  -23.0905    2.8938   28.6759 F   0  0  0  0  0  0  0  0  0  0  0  0
  -23.9402    3.2116   26.7277 F   0  0  0  0  0  0  0  0  0  0  0  0
  -29.5319   -4.0475   31.0633 O   0  0  0  0  0  0  0  0  0  0  0  0
  -31.6700   -1.7818   29.5004 O   0  0  0  0  0  0  0  0  0  0  0  0
  -31.7996   -0.6424   28.7449 C   0  0  0  0  0  0  0  0  0  0  0  0
  -32.0817   -0.8307   27.4751 C   0  0  0  0  0  0  0  0  0  0  0  0
  -32.5399   -1.8152   27.1059 O   0  0  0  0  0  0  0  0  0  0  0  0
  1  2  1  0
  1  8  1  0
  8  9  1  0
  9 10  1  0
 10 11  1  0
 11 12  2  0
  5 13  1  0
 13 14  1  0
 13 15  1  0
 13 16  1  0
 11 17  1  0
 10 18  1  0
 18 19  1  0
 19 20  2  0
 20 21  2  0
  2  3  2  0
  3  4  1  0
  4  5  2  0
  5  6  1  0
  6  7  2  0
  7  2  1  0
M  END

$$$$
