No_542-gen_results/8p0m/2024-11-26-14-13-15/
     RDKit          3D

 20 21  0  0  0  0  0  0  0  0999 V2000
  -28.0162   -0.8135   28.8779 C   0  0  0  0  0  0  0  0  0  0  0  0
  -28.4690   -0.7850   29.8287 C   0  0  0  0  0  0  0  0  0  0  0  0
  -28.1960    0.3478   28.0550 C   0  0  0  0  0  0  0  0  0  0  0  0
  -29.0191    1.3501   28.3782 C   0  0  0  0  0  0  0  0  0  0  0  0
  -29.6249    1.2683   29.6012 C   0  0  0  0  0  0  0  0  0  0  0  0
  -29.3791    0.1469   30.3923 C   0  0  0  0  0  0  0  0  0  0  0  0
  -27.4551    0.3822   26.7102 C   0  0  0  0  0  0  0  0  0  0  0  0
  -27.1166    1.6790   26.4968 F   0  0  0  0  0  0  0  0  0  0  0  0
  -28.1803    0.0118   25.6866 F   0  0  0  0  0  0  0  0  0  0  0  0
  -26.2724   -0.2519   26.6896 F   0  0  0  0  0  0  0  0  0  0  0  0
  -30.5468    2.3058   30.0733 C   0  0  0  0  0  0  0  0  0  0  0  0
  -30.1315    3.0271   30.9641 N   0  0  0  0  0  0  0  0  0  0  0  0
  -29.1570    3.0207   31.6250 C   0  0  0  0  0  0  0  0  0  0  0  0
  -28.3399    3.7080   32.1497 C   0  0  0  0  0  0  0  0  0  0  0  0
  -27.2068    3.9858   32.1004 C   0  0  0  0  0  0  0  0  0  0  0  0
  -26.4210    5.1357   32.6082 C   0  0  0  0  0  0  0  0  0  0  0  0
  -25.0061    5.3320   32.3409 C   0  0  0  0  0  0  0  0  0  0  0  0
  -24.3415    4.2504   31.7577 C   0  0  0  0  0  0  0  0  0  0  0  0
  -24.9231    3.0783   31.4506 C   0  0  0  0  0  0  0  0  0  0  0  0
  -26.2320    2.9571   31.6124 C   0  0  0  0  0  0  0  0  0  0  0  0
  3  7  1  0
  7  8  1  0
  7  9  1  0
  7 10  1  0
  5 11  1  0
 11 12  2  3
 12 13  1  0
 13 14  2  3
 14 15  1  0
 15 16  2  0
 16 17  1  0
 17 18  2  0
 18 19  1  0
 19 20  2  0
 20 15  1  0
  1  2  2  0
  2  6  1  0
  6  5  2  0
  5  4  1  0
  4  3  2  0
  3  1  1  0
M  END

$$$$
