No_547-gen_results/8p0m/2024-11-26-14-13-15/
     RDKit          3D

 18 19  0  0  0  0  0  0  0  0999 V2000
  -28.0162   -0.8135   28.8779 C   0  0  0  0  0  0  0  0  0  0  0  0
  -27.0636   -0.1189   28.6079 C   0  0  0  0  0  0  0  0  0  0  0  0
  -27.0010    0.6913   27.4910 C   0  0  0  0  0  0  0  0  0  0  0  0
  -25.8548    1.4825   27.0830 C   0  0  0  0  0  0  0  0  0  0  0  0
  -24.6901    1.4526   27.8807 C   0  0  0  0  0  0  0  0  0  0  0  0
  -24.7379    0.6010   29.0416 C   0  0  0  0  0  0  0  0  0  0  0  0
  -25.8234   -0.1688   29.3887 C   0  0  0  0  0  0  0  0  0  0  0  0
  -28.7300   -0.5298   30.0429 N   0  0  0  0  0  0  0  0  0  0  0  0
  -28.9322    0.3227   30.5381 C   0  0  0  0  0  0  0  0  0  0  0  0
  -28.7806    1.5592   30.0480 N   0  0  0  0  0  0  0  0  0  0  0  0
  -29.0410    1.8705   28.9883 C   0  0  0  0  0  0  0  0  0  0  0  0
  -29.3636    3.3724   28.7851 C   0  0  0  0  0  0  0  0  0  0  0  0
  -28.2171    2.6360   30.9667 C   0  0  0  0  0  0  0  0  0  0  0  0
  -28.4972    3.9330   30.8560 C   0  0  0  0  0  0  0  0  0  0  0  0
  -28.8877    4.3502   29.5896 C   0  0  0  0  0  0  0  0  0  0  0  0
  -23.4565    0.5128   29.8409 C   0  0  0  0  0  0  0  0  0  0  0  0
  -23.4965    0.5531   31.1086 N   0  0  0  0  0  0  0  0  0  0  0  0
  -22.3294    0.4045   29.2393 O   0  0  0  0  0  0  0  0  0  0  0  0
  1  2  1  0
  1  8  1  0
  8  9  2  3
  9 10  1  0
 10 11  1  0
 10 13  1  0
 12 15  1  0
 14 15  1  0
  6 16  1  0
 16 17  1  0
 16 18  2  0
 11 12  1  0
 14 13  1  0
  2  3  2  0
  3  4  1  0
  4  5  2  0
  5  6  1  0
  6  7  2  0
  7  2  1  0
M  END

$$$$
