No_567-gen_results/8p0m/2024-11-26-14-13-15/
     RDKit          3D

 19 20  0  0  0  0  0  0  0  0999 V2000
  -28.0162   -0.8135   28.8779 C   0  0  0  0  0  0  0  0  0  0  0  0
  -27.0636   -0.1190   28.6079 C   0  0  0  0  0  0  0  0  0  0  0  0
  -25.7923   -0.4302   29.0761 C   0  0  0  0  0  0  0  0  0  0  0  0
  -25.5756   -1.5654   29.9363 C   0  0  0  0  0  0  0  0  0  0  0  0
  -26.7354   -2.3004   30.2173 C   0  0  0  0  0  0  0  0  0  0  0  0
  -27.9184   -1.9537   29.7629 C   0  0  0  0  0  0  0  0  0  0  0  0
  -27.1057    1.1023   27.7593 C   0  0  0  0  0  0  0  0  0  0  0  0
  -27.0311    2.0658   28.1483 O   0  0  0  0  0  0  0  0  0  0  0  0
  -26.9296    0.7145   26.4704 O   0  0  0  0  0  0  0  0  0  0  0  0
  -29.0481   -2.7860   30.2175 C   0  0  0  0  0  0  0  0  0  0  0  0
  -30.1830   -2.3112   30.2550 N   0  0  0  0  0  0  0  0  0  0  0  0
  -28.8600   -3.9963   30.5790 O   0  0  0  0  0  0  0  0  0  0  0  0
  -31.4252   -3.0236   30.6308 C   0  0  0  0  0  0  0  0  0  0  0  0
  -32.4377   -2.7634   29.9935 C   0  0  0  0  0  0  0  0  0  0  0  0
  -33.0196   -3.6528   29.2723 C   0  0  0  0  0  0  0  0  0  0  0  0
  -32.7411   -5.0979   29.4961 C   0  0  0  0  0  0  0  0  0  0  0  0
  -31.6285   -5.3566   30.3326 C   0  0  0  0  0  0  0  0  0  0  0  0
  -31.2331   -6.6666   30.6477 C   0  0  0  0  0  0  0  0  0  0  0  0
  -30.9345   -4.2487   30.8816 C   0  0  0  0  0  0  0  0  0  0  0  0
  2  7  1  0
  7  8  2  0
  7  9  1  0
  6 10  1  0
 10 11  1  0
 10 12  2  0
 11 13  1  0
 17 18  1  0
  1  2  2  0
  2  3  1  0
  3  4  2  0
  4  5  1  0
  5  6  2  0
  6  1  1  0
 13 14  2  0
 14 15  1  0
 15 16  2  0
 16 17  1  0
 17 19  2  0
 19 13  1  0
M  END

$$$$
