No_524-gen_results/8p0m/2024-11-26-14-13-15/
     RDKit          3D

 32 34  0  0  0  0  0  0  0  0999 V2000
  -28.1229   -1.3353   28.4874 O   0  0  0  0  0  0  0  0  0  0  0  0
  -28.5208   -0.4363   29.0779 C   0  0  0  0  0  0  0  0  0  0  0  0
  -28.5894    0.5916   28.9464 C   0  0  0  0  0  0  0  0  0  0  0  0
  -29.1246   -0.9399   30.4266 N   0  0  0  0  0  0  0  0  0  0  0  0
  -29.2480    1.5666   29.4340 N   0  0  0  0  0  0  0  0  0  0  0  0
  -27.7661    1.1451   27.6818 C   0  0  0  0  0  0  0  0  0  0  0  0
  -26.7037    0.8708   27.3818 C   0  0  0  0  0  0  0  0  0  0  0  0
  -25.6766    1.0761   27.3509 C   0  0  0  0  0  0  0  0  0  0  0  0
  -24.3773    1.0282   27.5791 C   0  0  0  0  0  0  0  0  0  0  0  0
  -23.1506    1.3523   27.7383 C   0  0  0  0  0  0  0  0  0  0  0  0
  -21.7575    1.4086   28.0455 C   0  0  0  0  0  0  0  0  0  0  0  0
  -29.8045   -0.0857   31.2343 C   0  0  0  0  0  0  0  0  0  0  0  0
  -29.8578    1.2257   30.7489 C   0  0  0  0  0  0  0  0  0  0  0  0
  -28.9244   -2.3702   30.8301 C   0  0  0  0  0  0  0  0  0  0  0  0
  -29.6658   -2.7809   31.7266 C   0  0  0  0  0  0  0  0  0  0  0  0
  -29.6241   -4.2393   31.9353 C   0  0  0  0  0  0  0  0  0  0  0  0
  -28.8273   -5.0472   31.1389 C   0  0  0  0  0  0  0  0  0  0  0  0
  -28.0114   -4.4637   30.1942 C   0  0  0  0  0  0  0  0  0  0  0  0
  -28.0716   -3.1379   30.0030 C   0  0  0  0  0  0  0  0  0  0  0  0
  -30.5075    2.1399   31.4018 F   0  0  0  0  0  0  0  0  0  0  0  0
  -21.0755    1.9297   27.2302 O   0  0  0  0  0  0  0  0  0  0  0  0
  -21.3962    0.8747   29.1802 O   0  0  0  0  0  0  0  0  0  0  0  0
  -28.6175    2.0637   26.8547 C   0  0  0  0  0  0  0  0  0  0  0  0
  -30.4693   -4.9710   32.9825 C   0  0  0  0  0  0  0  0  0  0  0  0
  -30.5745   -5.9685   33.1721 O   0  0  0  0  0  0  0  0  0  0  0  0
  -30.8041   -4.0551   33.9783 O   0  0  0  0  0  0  0  0  0  0  0  0
  -31.6633   -4.2528   34.7780 C   0  0  0  0  0  0  0  0  0  0  0  0
  -31.4558   -4.4170   36.1041 C   0  0  0  0  0  0  0  0  0  0  0  0
  -32.4565   -4.6830   36.9849 C   0  0  0  0  0  0  0  0  0  0  0  0
  -33.7703   -4.7238   36.4686 C   0  0  0  0  0  0  0  0  0  0  0  0
  -34.0013   -4.5498   35.1443 C   0  0  0  0  0  0  0  0  0  0  0  0
  -32.9670   -4.2869   34.2344 C   0  0  0  0  0  0  0  0  0  0  0  0
  1  2  2  0
  2  3  1  0
  2  4  1  0
  3  6  1  0
  6  7  1  0
  7  8  3  0
  8  9  1  0
  9 10  3  0
 10 11  1  0
  4 12  1  0
  5 13  1  0
  4 14  1  0
 13 20  1  0
 11 21  2  0
 11 22  1  0
  6 23  1  0
 16 24  1  0
 24 25  2  0
 24 26  1  0
 26 27  1  0
  3  5  1  0
 13 12  1  0
 14 15  2  0
 15 16  1  0
 16 17  2  0
 17 18  1  0
 18 19  2  0
 19 14  1  0
 27 28  2  0
 28 29  1  0
 29 30  2  0
 30 31  1  0
 31 32  2  0
 32 27  1  0
M  END

$$$$
