No_555-gen_results/8p0m/2024-11-26-14-13-15/
     RDKit          3D

 19 21  0  0  0  0  0  0  0  0999 V2000
  -28.0162   -0.8135   28.8779 C   0  0  0  0  0  0  0  0  0  0  0  0
  -28.4690   -0.7850   29.8287 C   0  0  0  0  0  0  0  0  0  0  0  0
  -28.1960    0.3478   28.0550 C   0  0  0  0  0  0  0  0  0  0  0  0
  -27.4421    0.5100   26.7946 C   0  0  0  0  0  0  0  0  0  0  0  0
  -27.8427    1.3330   25.8056 C   0  0  0  0  0  0  0  0  0  0  0  0
  -28.2558   -1.9271   30.8901 C   0  0  0  0  0  0  0  0  0  0  0  0
  -27.4492   -2.9641   30.4317 C   0  0  0  0  0  0  0  0  0  0  0  0
  -26.6412   -2.8044   29.3509 C   0  0  0  0  0  0  0  0  0  0  0  0
  -26.7826   -1.6363   28.6124 C   0  0  0  0  0  0  0  0  0  0  0  0
  -29.6824    0.4347   27.5665 C   0  0  0  0  0  0  0  0  0  0  0  0
  -27.7853    1.7221   28.7699 C   0  0  0  0  0  0  0  0  0  0  0  0
  -30.0762    1.2739   26.5395 C   0  0  0  0  0  0  0  0  0  0  0  0
  -26.8305    1.6053   24.7345 C   0  0  0  0  0  0  0  0  0  0  0  0
  -29.1765    1.7766   25.6005 C   0  0  0  0  0  0  0  0  0  0  0  0
  -28.6725    2.5075   29.1522 C   0  0  0  0  0  0  0  0  0  0  0  0
  -28.2199    3.5976   29.9506 C   0  0  0  0  0  0  0  0  0  0  0  0
  -26.4503    1.8622   29.1659 C   0  0  0  0  0  0  0  0  0  0  0  0
  -25.9685    2.9276   29.9013 C   0  0  0  0  0  0  0  0  0  0  0  0
  -26.9287    3.8614   30.2880 C   0  0  0  0  0  0  0  0  0  0  0  0
  1  3  1  0
  3  4  1  0
  4  5  1  0
  3 10  1  0
  3 11  1  0
  5 13  1  0
  5 14  1  0
 12 14  1  0
 12 10  1  0
 11 15  2  0
 15 16  1  0
 16 19  2  0
 19 18  1  0
 18 17  2  0
 17 11  1  0
  1  2  2  0
  2  6  1  0
  6  7  2  0
  7  8  1  0
  8  9  2  0
  9  1  1  0
M  END

$$$$
