No_554-gen_results/8p0m/2024-11-26-14-13-15/
     RDKit          3D

 24 27  0  0  0  0  0  0  0  0999 V2000
  -28.1229   -1.3353   28.4874 O   0  0  0  0  0  0  0  0  0  0  0  0
  -28.5208   -0.4363   29.0779 C   0  0  0  0  0  0  0  0  0  0  0  0
  -27.6655    0.1129   30.0346 C   0  0  0  0  0  0  0  0  0  0  0  0
  -29.7419    0.1102   28.8873 N   0  0  0  0  0  0  0  0  0  0  0  0
  -26.5482   -0.3758   30.3091 C   0  0  0  0  0  0  0  0  0  0  0  0
  -30.5631   -0.4460   27.9246 C   0  0  0  0  0  0  0  0  0  0  0  0
  -25.3312    0.4416   30.0672 C   0  0  0  0  0  0  0  0  0  0  0  0
  -24.0582   -0.1343   29.9613 C   0  0  0  0  0  0  0  0  0  0  0  0
  -22.9419    0.6655   29.6360 C   0  0  0  0  0  0  0  0  0  0  0  0
  -23.1878    1.9548   29.1259 C   0  0  0  0  0  0  0  0  0  0  0  0
  -24.4674    2.5026   29.1302 C   0  0  0  0  0  0  0  0  0  0  0  0
  -25.5449    1.7755   29.5930 C   0  0  0  0  0  0  0  0  0  0  0  0
  -30.2762    1.2383   29.6513 C   0  0  0  0  0  0  0  0  0  0  0  0
  -29.4836    1.7146   30.6387 C   0  0  0  0  0  0  0  0  0  0  0  0
  -28.2014    1.2332   30.9257 C   0  0  0  0  0  0  0  0  0  0  0  0
  -31.7206   -0.8541   28.1449 C   0  0  0  0  0  0  0  0  0  0  0  0
  -32.5094   -1.4668   27.1578 C   0  0  0  0  0  0  0  0  0  0  0  0
  -32.0009   -1.5241   25.8138 C   0  0  0  0  0  0  0  0  0  0  0  0
  -30.7203   -0.9568   25.5756 C   0  0  0  0  0  0  0  0  0  0  0  0
  -30.0044   -0.3512   26.5525 C   0  0  0  0  0  0  0  0  0  0  0  0
  -30.1762   -0.9679   24.1994 C   0  0  0  0  0  0  0  0  0  0  0  0
  -28.9193   -0.2609   24.0877 C   0  0  0  0  0  0  0  0  0  0  0  0
  -28.6180    0.6570   25.0011 C   0  0  0  0  0  0  0  0  0  0  0  0
  -28.9179    0.5267   26.2721 C   0  0  0  0  0  0  0  0  0  0  0  0
  1  2  2  0
  2  3  1  0
  2  4  1  0
  3  5  1  0
  4  6  1  0
  4 13  1  0
  3 15  1  0
 14 15  1  0
  5  7  1  0
 14 13  1  0
  6 16  2  0
 16 17  1  0
 17 18  2  0
 18 19  1  0
 20  6  1  0
 19 20  2  0
 20 24  1  0
 24 23  2  0
 23 22  1  0
 22 21  2  0
 21 19  1  0
  7  8  2  0
  8  9  1  0
  9 10  2  0
 10 11  1  0
 11 12  2  0
 12  7  1  0
M  END

$$$$
