No_582-gen_results/8p0m/2024-11-26-14-13-15/
     RDKit          3D

 16 17  0  0  0  0  0  0  0  0999 V2000
  -28.0162   -0.8135   28.8779 C   0  0  0  0  0  0  0  0  0  0  0  0
  -27.0636   -0.1189   28.6079 C   0  0  0  0  0  0  0  0  0  0  0  0
  -26.9716    0.7139   27.5060 C   0  0  0  0  0  0  0  0  0  0  0  0
  -25.8205    1.4909   27.1160 C   0  0  0  0  0  0  0  0  0  0  0  0
  -24.8579    1.3421   27.6008 C   0  0  0  0  0  0  0  0  0  0  0  0
  -24.6224    0.5295   28.8144 C   0  0  0  0  0  0  0  0  0  0  0  0
  -25.7344   -0.1811   29.1908 C   0  0  0  0  0  0  0  0  0  0  0  0
  -27.9844   -1.3975   30.2842 C   0  0  0  0  0  0  0  0  0  0  0  0
  -26.7573   -1.7892   30.8293 C   0  0  0  0  0  0  0  0  0  0  0  0
  -25.6455   -1.0425   30.4219 C   0  0  0  0  0  0  0  0  0  0  0  0
  -28.2197    0.8435   26.6277 C   0  0  0  0  0  0  0  0  0  0  0  0
  -28.1997    0.9816   25.4460 O   0  0  0  0  0  0  0  0  0  0  0  0
  -29.3441    0.7149   27.2019 O   0  0  0  0  0  0  0  0  0  0  0  0
  -23.4202    0.4357   29.4928 N   0  0  0  0  0  0  0  0  0  0  0  0
  -22.1718    0.3868   28.7895 C   0  0  0  0  0  0  0  0  0  0  0  0
  -23.3207    0.6276   30.8708 C   0  0  0  0  0  0  0  0  0  0  0  0
  2  3  1  0
  3  4  1  0
  4  5  1  0
  5  6  1  0
  6  7  1  0
  3 11  1  0
 11 12  2  0
 11 13  1  0
  6 14  1  0
 14 15  1  0
 14 16  1  0
  1  2  2  0
  2  7  1  0
  7 10  2  0
 10  9  1  0
  9  8  2  0
  8  1  1  0
M  END

$$$$
