No_576-gen_results/8p0m/2024-11-26-14-13-15/
     RDKit          3D

 35 37  0  0  0  0  0  0  0  0999 V2000
  -28.0162   -0.8135   28.8779 C   0  0  0  0  0  0  0  0  0  0  0  0
  -27.0636   -0.1190   28.6079 C   0  0  0  0  0  0  0  0  0  0  0  0
  -26.9716    0.7139   27.5060 C   0  0  0  0  0  0  0  0  0  0  0  0
  -28.1053    0.7744   26.6421 C   0  0  0  0  0  0  0  0  0  0  0  0
  -29.2041    0.1179   27.0477 C   0  0  0  0  0  0  0  0  0  0  0  0
  -29.2127   -0.6088   28.1281 C   0  0  0  0  0  0  0  0  0  0  0  0
  -25.7106    1.4518   27.1380 C   0  0  0  0  0  0  0  0  0  0  0  0
  -24.6052    0.9253   27.6902 C   0  0  0  0  0  0  0  0  0  0  0  0
  -23.3087    1.6018   27.4923 C   0  0  0  0  0  0  0  0  0  0  0  0
  -23.2169    2.4959   26.4391 C   0  0  0  0  0  0  0  0  0  0  0  0
  -25.2940    2.1630   26.0166 C   0  0  0  0  0  0  0  0  0  0  0  0
  -24.2459    2.8667   25.7470 C   0  0  0  0  0  0  0  0  0  0  0  0
  -22.1211    1.1339   28.2986 C   0  0  0  0  0  0  0  0  0  0  0  0
  -21.0175    1.7141   28.1581 N   0  0  0  0  0  0  0  0  0  0  0  0
  -22.2656    0.2839   29.2088 O   0  0  0  0  0  0  0  0  0  0  0  0
  -30.4102    0.2223   26.1812 C   0  0  0  0  0  0  0  0  0  0  0  0
  -30.3535    0.1922   24.9991 N   0  0  0  0  0  0  0  0  0  0  0  0
  -31.5556    0.1782   26.7355 O   0  0  0  0  0  0  0  0  0  0  0  0
  -28.0655   -1.7812   30.3169 Cl  0  0  0  0  0  0  0  0  0  0  0  0
  -29.0898    0.2007   24.1901 C   0  0  0  0  0  0  0  0  0  0  0  0
  -31.4962    0.2605   24.0843 C   0  0  0  0  0  0  0  0  0  0  0  0
  -31.6861    1.2993   23.2694 C   0  0  0  0  0  0  0  0  0  0  0  0
  -30.8443    2.3300   23.4407 C   0  0  0  0  0  0  0  0  0  0  0  0
  -29.4221    2.0218   23.5684 C   0  0  0  0  0  0  0  0  0  0  0  0
  -28.3707    1.5788   23.8300 C   0  0  0  0  0  0  0  0  0  0  0  0
  -29.0412    3.1439   23.6069 O   0  0  0  0  0  0  0  0  0  0  0  0
  -28.2824    3.6738   24.6496 C   0  0  0  0  0  0  0  0  0  0  0  0
  -29.2841   -0.5822   23.0798 F   0  0  0  0  0  0  0  0  0  0  0  0
  -28.8450    4.9793   25.2239 C   0  0  0  0  0  0  0  0  0  0  0  0
  -30.1681    4.7948   25.7054 C   0  0  0  0  0  0  0  0  0  0  0  0
  -30.3795    4.6602   27.0659 N   0  0  0  0  0  0  0  0  0  0  0  0
  -31.3318    5.2656   27.6742 C   0  0  0  0  0  0  0  0  0  0  0  0
  -29.6576    3.6403   27.7504 C   0  0  0  0  0  0  0  0  0  0  0  0
  -30.1712    3.2327   29.0604 C   0  0  0  0  0  0  0  0  0  0  0  0
  -31.8004    4.8321   29.0010 C   0  0  0  0  0  0  0  0  0  0  0  0
  3  7  1  0
  9 13  1  0
 13 14  1  0
 13 15  2  0
  5 16  1  0
 16 17  1  0
 16 18  2  0
  1 19  1  0
 17 20  1  0
 17 21  1  0
 21 22  2  0
 22 23  1  0
 23 24  2  0
 20 25  1  0
 24 25  1  0
 24 26  1  0
 26 27  1  0
 20 28  1  0
 27 29  1  0
 29 30  1  0
 30 31  1  0
 31 32  1  0
 31 33  1  0
 33 34  2  0
 32 35  2  0
  7  8  2  0
  8  9  1  0
  9 10  2  0
 10 12  1  0
 12 11  2  0
 11  7  1  0
  1  2  2  0
  2  3  1  0
  3  4  2  0
  4  5  1  0
  5  6  2  0
  6  1  1  0
M  END

$$$$
