No_539-gen_results/8p0m/2024-11-26-14-13-15/
     RDKit          3D

 15 16  0  0  0  0  0  0  0  0999 V2000
  -28.0162   -0.8135   28.8779 C   0  0  0  0  0  0  0  0  0  0  0  0
  -28.4690   -0.7850   29.8287 C   0  0  0  0  0  0  0  0  0  0  0  0
  -27.1356    0.2359   28.5352 C   0  0  0  0  0  0  0  0  0  0  0  0
  -26.8745    1.2825   29.3982 C   0  0  0  0  0  0  0  0  0  0  0  0
  -28.3613    0.1987   30.9244 C   0  0  0  0  0  0  0  0  0  0  0  0
  -27.5277    1.2234   30.6356 C   0  0  0  0  0  0  0  0  0  0  0  0
  -26.3987    0.2949   27.2279 C   0  0  0  0  0  0  0  0  0  0  0  0
  -26.9022    0.7280   26.2134 C   0  0  0  0  0  0  0  0  0  0  0  0
  -26.2011    0.5879   24.9593 C   0  0  0  0  0  0  0  0  0  0  0  0
  -24.9987    0.2112   27.2470 C   0  0  0  0  0  0  0  0  0  0  0  0
  -24.2022    0.2613   26.1908 C   0  0  0  0  0  0  0  0  0  0  0  0
  -24.8457    0.4956   24.9596 C   0  0  0  0  0  0  0  0  0  0  0  0
  -24.2853   -0.0742   28.6009 C   0  0  0  0  0  0  0  0  0  0  0  0
  -23.9175    0.5964   29.4523 C   0  0  0  0  0  0  0  0  0  0  0  0
  -23.1899    0.2625   30.6058 C   0  0  0  0  0  0  0  0  0  0  0  0
  3  7  1  0
 10 13  1  0
 13 14  2  3
 14 15  1  0
  1  2  2  0
  2  5  1  0
  5  6  2  0
  6  4  1  0
  4  3  2  0
  3  1  1  0
  7  8  2  0
  8  9  1  0
  9 12  2  0
 12 11  1  0
 11 10  2  0
 10  7  1  0
M  END

$$$$
