No_552-gen_results/8p0m/2024-11-26-14-13-15/
     RDKit          3D

 23 25  0  0  0  0  0  0  0  0999 V2000
  -28.0162   -0.8135   28.8779 C   0  0  0  0  0  0  0  0  0  0  0  0
  -28.4690   -0.7850   29.8287 C   0  0  0  0  0  0  0  0  0  0  0  0
  -26.5455   -0.8762   28.8500 C   0  0  0  0  0  0  0  0  0  0  0  0
  -25.8974   -0.8267   29.8894 C   0  0  0  0  0  0  0  0  0  0  0  0
  -27.9129   -0.8385   31.1942 C   0  0  0  0  0  0  0  0  0  0  0  0
  -26.5519   -0.8324   31.1775 C   0  0  0  0  0  0  0  0  0  0  0  0
  -30.3056   -0.8795   30.0283 Cl  0  0  0  0  0  0  0  0  0  0  0  0
  -24.3728   -0.8415   29.9244 C   0  0  0  0  0  0  0  0  0  0  0  0
  -23.7584    0.4902   30.1184 C   0  0  0  0  0  0  0  0  0  0  0  0
  -24.1694    1.4634   30.5608 C   0  0  0  0  0  0  0  0  0  0  0  0
  -25.5001    1.5878   31.0863 C   0  0  0  0  0  0  0  0  0  0  0  0
  -25.8163    2.9959   31.5880 C   0  0  0  0  0  0  0  0  0  0  0  0
  -27.0060    3.2222   32.2858 C   0  0  0  0  0  0  0  0  0  0  0  0
  -27.5806    4.4522   32.2190 C   0  0  0  0  0  0  0  0  0  0  0  0
  -26.8743    5.5690   31.7465 C   0  0  0  0  0  0  0  0  0  0  0  0
  -25.6783    5.3726   31.1316 C   0  0  0  0  0  0  0  0  0  0  0  0
  -25.1492    4.1012   30.9896 C   0  0  0  0  0  0  0  0  0  0  0  0
  -23.7543   -1.9928   29.5086 C   0  0  0  0  0  0  0  0  0  0  0  0
  -22.2810    0.1150   29.9673 C   0  0  0  0  0  0  0  0  0  0  0  0
  -21.6743   -0.8989   29.5054 N   0  0  0  0  0  0  0  0  0  0  0  0
  -22.4201   -1.9649   29.2733 C   0  0  0  0  0  0  0  0  0  0  0  0
  -24.3871   -3.0819   29.2267 O   0  0  0  0  0  0  0  0  0  0  0  0
  -24.3626   -3.8456   28.1387 C   0  0  0  0  0  0  0  0  0  0  0  0
  2  7  1  0
  4  8  1  0
 10 11  1  0
 18 22  1  0
 22 23  1  0
 10  9  1  0
 11 12  1  0
 12 13  2  0
 13 14  1  0
 14 15  2  0
 15 16  1  0
 16 17  2  0
 17 12  1  0
  8  9  2  0
  9 19  1  0
 19 20  2  0
 20 21  1  0
 21 18  2  0
 18  8  1  0
  1  2  2  0
  2  5  1  0
  5  6  2  0
  6  4  1  0
  4  3  2  0
  3  1  1  0
M  END

$$$$
