No_536-gen_results/8p0m/2024-11-26-14-13-15/
     RDKit          3D

 15 16  0  0  0  0  0  0  0  0999 V2000
  -28.0162   -0.8135   28.8779 C   0  0  0  0  0  0  0  0  0  0  0  0
  -28.4690   -0.7850   29.8287 C   0  0  0  0  0  0  0  0  0  0  0  0
  -27.0871    0.2903   28.6377 C   0  0  0  0  0  0  0  0  0  0  0  0
  -26.8317    1.2487   29.5869 C   0  0  0  0  0  0  0  0  0  0  0  0
  -28.3914    0.0801   31.0065 C   0  0  0  0  0  0  0  0  0  0  0  0
  -27.4940    1.1521   30.7841 C   0  0  0  0  0  0  0  0  0  0  0  0
  -26.3109    0.3918   27.3640 C   0  0  0  0  0  0  0  0  0  0  0  0
  -26.7768    0.8323   26.3762 N   0  0  0  0  0  0  0  0  0  0  0  0
  -25.0506   -0.0001   27.3762 O   0  0  0  0  0  0  0  0  0  0  0  0
  -28.1412    1.3153   26.1970 C   0  0  0  0  0  0  0  0  0  0  0  0
  -28.1841    2.4764   26.2626 C   0  0  0  0  0  0  0  0  0  0  0  0
  -29.1145    0.4384   25.7767 C   0  0  0  0  0  0  0  0  0  0  0  0
  -30.4311    0.8494   25.6513 C   0  0  0  0  0  0  0  0  0  0  0  0
  -29.5592    3.1480   26.0640 C   0  0  0  0  0  0  0  0  0  0  0  0
  -30.5858    2.2786   25.7471 C   0  0  0  0  0  0  0  0  0  0  0  0
  3  7  1  0
  7  8  2  3
  7  9  1  0
  8 10  1  0
 10 11  2  0
 11 14  1  0
 14 15  2  0
 15 13  1  0
 13 12  2  0
 12 10  1  0
  1  2  2  0
  2  5  1  0
  5  6  2  0
  6  4  1  0
  4  3  2  0
  3  1  1  0
M  END

$$$$
