No_586-gen_results/8p0m/2024-11-26-14-13-15/
     RDKit          3D

 35 39  0  0  0  0  0  0  0  0999 V2000
  -28.0162   -0.8135   28.8779 C   0  0  0  0  0  0  0  0  0  0  0  0
  -28.4690   -0.7850   29.8287 C   0  0  0  0  0  0  0  0  0  0  0  0
  -27.0871    0.2903   28.6377 C   0  0  0  0  0  0  0  0  0  0  0  0
  -26.2516    0.4114   27.4222 C   0  0  0  0  0  0  0  0  0  0  0  0
  -29.4309   -1.9307   30.2714 C   0  0  0  0  0  0  0  0  0  0  0  0
  -25.1465    1.2405   27.3564 C   0  0  0  0  0  0  0  0  0  0  0  0
  -24.7814    1.9840   28.5026 C   0  0  0  0  0  0  0  0  0  0  0  0
  -25.4736    1.8471   29.6355 C   0  0  0  0  0  0  0  0  0  0  0  0
  -26.5034    1.0016   29.7688 C   0  0  0  0  0  0  0  0  0  0  0  0
  -30.2094   -1.9271   31.3829 C   0  0  0  0  0  0  0  0  0  0  0  0
  -29.9966   -0.8758   32.3192 C   0  0  0  0  0  0  0  0  0  0  0  0
  -29.1561    0.1225   32.0746 C   0  0  0  0  0  0  0  0  0  0  0  0
  -28.4668    0.1976   30.9561 C   0  0  0  0  0  0  0  0  0  0  0  0
  -27.3608    1.0778   30.7354 C   0  0  0  0  0  0  0  0  0  0  0  0
  -24.2381    1.3771   25.8966 Cl  0  0  0  0  0  0  0  0  0  0  0  0
  -24.9625    2.7041   30.8016 C   0  0  0  0  0  0  0  0  0  0  0  0
  -25.2929    3.8193   30.8891 O   0  0  0  0  0  0  0  0  0  0  0  0
  -24.0885    2.0085   31.6322 O   0  0  0  0  0  0  0  0  0  0  0  0
  -25.1359    4.5200   32.1520 C   0  0  0  0  0  0  0  0  0  0  0  0
  -24.6717    5.8638   31.9653 C   0  0  0  0  0  0  0  0  0  0  0  0
  -25.0646    6.3957   30.9270 O   0  0  0  0  0  0  0  0  0  0  0  0
  -23.5425    6.3340   32.6507 N   0  0  0  0  0  0  0  0  0  0  0  0
  -22.9729    5.7542   33.7903 C   0  0  0  0  0  0  0  0  0  0  0  0
  -23.6593    7.8333   32.7710 C   0  0  0  0  0  0  0  0  0  0  0  0
  -22.4160    8.3629   32.8157 C   0  0  0  0  0  0  0  0  0  0  0  0
  -21.7263    8.1142   34.1532 C   0  0  0  0  0  0  0  0  0  0  0  0
  -21.6657    6.5006   34.2552 C   0  0  0  0  0  0  0  0  0  0  0  0
  -20.4017    8.6219   34.3468 N   0  0  0  0  0  0  0  0  0  0  0  0
  -20.1966    9.8606   34.6795 C   0  0  0  0  0  0  0  0  0  0  0  0
  -21.1990   10.7748   34.8963 C   0  0  0  0  0  0  0  0  0  0  0  0
  -20.8987   12.1056   35.2580 C   0  0  0  0  0  0  0  0  0  0  0  0
  -19.0375   10.5374   33.9191 C   0  0  0  0  0  0  0  0  0  0  0  0
  -17.8906    9.7737   33.6895 C   0  0  0  0  0  0  0  0  0  0  0  0
  -19.8615   12.6966   34.4751 C   0  0  0  0  0  0  0  0  0  0  0  0
  -18.6561   11.8988   34.4881 C   0  0  0  0  0  0  0  0  0  0  0  0
  6 15  1  0
  8 16  1  0
 16 17  1  0
 16 18  2  0
 17 19  1  0
 19 20  1  0
 20 21  2  0
 20 22  1  0
 22 23  1  0
 22 24  1  0
 24 25  1  0
 25 26  1  0
 23 27  1  0
 26 27  1  0
 26 28  1  0
 28 29  1  0
 32 33  1  0
  3  4  2  0
  4  6  1  0
  6  7  2  0
  7  8  1  0
  8  9  2  0
  2  5  1  0
  5 10  2  0
 10 11  1  0
 11 12  2  0
 12 13  1  0
 29 30  2  0
 30 31  1  0
 31 34  2  0
 34 35  1  0
 35 32  2  0
 32 29  1  0
  1  2  2  0
  2 13  1  0
 13 14  2  0
 14  9  1  0
  9  3  1  0
  3  1  1  0
M  END

$$$$
