No_503-gen_results/8p0m/2024-11-26-14-13-15/
     RDKit          3D

 20 22  0  0  0  0  0  0  0  0999 V2000
  -28.0162   -0.8135   28.8779 C   0  0  0  0  0  0  0  0  0  0  0  0
  -28.4690   -0.7850   29.8287 C   0  0  0  0  0  0  0  0  0  0  0  0
  -28.1816    0.4277   28.1134 C   0  0  0  0  0  0  0  0  0  0  0  0
  -27.4498    0.6435   26.8500 C   0  0  0  0  0  0  0  0  0  0  0  0
  -27.8596    1.4573   25.9076 C   0  0  0  0  0  0  0  0  0  0  0  0
  -29.4263    0.1097   30.4178 C   0  0  0  0  0  0  0  0  0  0  0  0
  -29.6233    1.2198   29.7351 C   0  0  0  0  0  0  0  0  0  0  0  0
  -28.9609    1.4529   28.5513 C   0  0  0  0  0  0  0  0  0  0  0  0
  -28.7869    2.5467   26.3167 C   0  0  0  0  0  0  0  0  0  0  0  0
  -29.4265    2.4288   27.5639 C   0  0  0  0  0  0  0  0  0  0  0  0
  -26.4613   -0.6296   26.3303 Cl  0  0  0  0  0  0  0  0  0  0  0  0
  -28.2380   -2.0054   30.7282 O   0  0  0  0  0  0  0  0  0  0  0  0
  -27.8395   -3.1007   30.4424 C   0  0  0  0  0  0  0  0  0  0  0  0
  -26.5921   -3.2814   29.9063 C   0  0  0  0  0  0  0  0  0  0  0  0
  -26.0493   -4.5206   29.4338 C   0  0  0  0  0  0  0  0  0  0  0  0
  -24.8306   -4.5920   28.8329 C   0  0  0  0  0  0  0  0  0  0  0  0
  -24.0816   -3.3891   28.6496 C   0  0  0  0  0  0  0  0  0  0  0  0
  -25.5491   -2.2834   29.5860 C   0  0  0  0  0  0  0  0  0  0  0  0
  -24.4334   -2.2580   29.1062 C   0  0  0  0  0  0  0  0  0  0  0  0
  -28.5250   -4.1187   30.6912 O   0  0  0  0  0  0  0  0  0  0  0  0
  4 11  1  0
  2 12  1  0
 12 13  1  0
 13 14  1  0
 13 20  2  0
 14 15  2  0
 15 16  1  0
 16 17  2  0
 17 19  1  0
 19 18  2  0
 18 14  1  0
  3  4  2  0
  4  5  1  0
  5  9  2  0
  9 10  1  0
 10  8  2  0
  1  2  2  0
  2  6  1  0
  6  7  2  0
  7  8  1  0
  8  3  1  0
  3  1  1  0
M  END

$$$$
