No_571-gen_results/8p0m/2024-11-26-14-13-15/
     RDKit          3D

  7  6  0  0  0  0  0  0  0  0999 V2000
  -28.0162   -0.8135   28.8779 C   0  0  0  0  0  0  0  0  0  0  0  0
  -28.4690   -0.7850   29.8287 C   0  0  0  0  0  0  0  0  0  0  0  0
  -27.0143   -1.6184   28.6838 F   0  0  0  0  0  0  0  0  0  0  0  0
  -28.0844   -1.6138   31.0991 C   0  0  0  0  0  0  0  0  0  0  0  0
  -26.9810   -2.4532   30.7387 C   0  0  0  0  0  0  0  0  0  0  0  0
  -26.4084   -2.4349   29.5242 C   0  0  0  0  0  0  0  0  0  0  0  0
  -25.4367   -3.2117   29.2008 F   0  0  0  0  0  0  0  0  0  0  0  0
  1  2  2  3
  1  3  1  0
  2  4  1  0
  4  5  2  3
  5  6  1  0
  6  7  1  0
M  END

$$$$
