No_534-gen_results/8p0m/2024-11-26-14-13-15/
     RDKit          3D

 17 17  0  0  0  0  0  0  0  0999 V2000
  -28.0162   -0.8135   28.8779 C   0  0  0  0  0  0  0  0  0  0  0  0
  -28.4690   -0.7850   29.8287 C   0  0  0  0  0  0  0  0  0  0  0  0
  -28.1960    0.3478   28.0550 C   0  0  0  0  0  0  0  0  0  0  0  0
  -29.0191    1.3501   28.3782 C   0  0  0  0  0  0  0  0  0  0  0  0
  -29.4107    0.1803   30.3782 C   0  0  0  0  0  0  0  0  0  0  0  0
  -29.6059    1.2495   29.6193 C   0  0  0  0  0  0  0  0  0  0  0  0
  -27.4478    0.3799   26.7122 C   0  0  0  0  0  0  0  0  0  0  0  0
  -25.9806    0.2548   26.7837 C   0  0  0  0  0  0  0  0  0  0  0  0
  -25.2376    1.2324   27.4671 C   0  0  0  0  0  0  0  0  0  0  0  0
  -24.4098    1.0416   28.3664 C   0  0  0  0  0  0  0  0  0  0  0  0
  -24.3436    0.0695   29.1691 C   0  0  0  0  0  0  0  0  0  0  0  0
  -23.3988    0.0586   30.2360 C   0  0  0  0  0  0  0  0  0  0  0  0
  -23.4948    2.2168   28.7286 C   0  0  0  0  0  0  0  0  0  0  0  0
  -23.5133    3.2076   27.8959 O   0  0  0  0  0  0  0  0  0  0  0  0
  -23.4265   -1.0873   31.0591 C   0  0  0  0  0  0  0  0  0  0  0  0
  -24.2454   -2.1363   30.7833 C   0  0  0  0  0  0  0  0  0  0  0  0
  -24.9964   -2.1976   29.6299 C   0  0  0  0  0  0  0  0  0  0  0  0
  3  7  1  0
  7  8  1  0
  8  9  1  0
  9 10  1  0
 10 11  2  3
 11 12  1  0
 10 13  1  0
 13 14  2  0
 12 15  2  3
 15 16  1  0
 16 17  2  0
  1  2  2  0
  2  5  1  0
  5  6  2  0
  6  4  1  0
  4  3  2  0
  3  1  1  0
M  END

$$$$
