No_514-gen_results/8p0m/2024-11-26-14-13-15/
     RDKit          3D

 24 27  0  0  0  0  0  0  0  0999 V2000
  -28.0162   -0.8135   28.8779 C   0  0  0  0  0  0  0  0  0  0  0  0
  -28.4690   -0.7850   29.8287 C   0  0  0  0  0  0  0  0  0  0  0  0
  -27.0871    0.2903   28.6377 C   0  0  0  0  0  0  0  0  0  0  0  0
  -26.0238    0.3644   29.2526 C   0  0  0  0  0  0  0  0  0  0  0  0
  -27.5370   -0.6187   31.0883 C   0  0  0  0  0  0  0  0  0  0  0  0
  -26.3844    0.1834   30.8012 C   0  0  0  0  0  0  0  0  0  0  0  0
  -29.6173   -1.6885   30.3080 C   0  0  0  0  0  0  0  0  0  0  0  0
  -29.5590   -2.7581   30.5861 O   0  0  0  0  0  0  0  0  0  0  0  0
  -30.8543   -1.0256   30.2357 N   0  0  0  0  0  0  0  0  0  0  0  0
  -31.9290   -1.3243   30.2101 C   0  0  0  0  0  0  0  0  0  0  0  0
  -32.8507   -1.1248   29.6014 C   0  0  0  0  0  0  0  0  0  0  0  0
  -32.6519   -0.0862   28.5579 C   0  0  0  0  0  0  0  0  0  0  0  0
  -33.6308    0.3550   27.6732 C   0  0  0  0  0  0  0  0  0  0  0  0
  -33.3058    1.3903   26.7677 C   0  0  0  0  0  0  0  0  0  0  0  0
  -31.9983    1.9270   26.7485 C   0  0  0  0  0  0  0  0  0  0  0  0
  -31.0315    1.4464   27.6269 C   0  0  0  0  0  0  0  0  0  0  0  0
  -31.3541    0.5078   28.4818 C   0  0  0  0  0  0  0  0  0  0  0  0
  -30.6155    0.2083   29.4021 C   0  0  0  0  0  0  0  0  0  0  0  0
  -26.9802    0.9017   27.2121 C   0  0  0  0  0  0  0  0  0  0  0  0
  -27.6708    1.9977   27.0505 C   0  0  0  0  0  0  0  0  0  0  0  0
  -26.3601    0.2200   26.2141 C   0  0  0  0  0  0  0  0  0  0  0  0
  -27.6353    2.6094   25.7583 C   0  0  0  0  0  0  0  0  0  0  0  0
  -26.3071    0.7383   24.9224 C   0  0  0  0  0  0  0  0  0  0  0  0
  -26.9431    1.9294   24.6669 C   0  0  0  0  0  0  0  0  0  0  0  0
  2  7  1  0
  7  8  2  0
  7  9  1  0
  9 10  1  0
 11 12  1  0
  9 18  1  0
 17 18  1  0
  3 19  1  0
 10 11  1  0
 12 13  2  0
 13 14  1  0
 14 15  2  0
 15 16  1  0
 16 17  2  0
 17 12  1  0
 19 20  2  0
 20 22  1  0
 22 24  2  0
 24 23  1  0
 23 21  2  0
 21 19  1  0
  1  2  2  0
  2  5  1  0
  5  6  2  0
  6  4  1  0
  4  3  2  0
  3  1  1  0
M  END

$$$$
