No_597-gen_results/8p0m/2024-11-26-14-13-15/
     RDKit          3D

 35 40  0  0  0  0  0  0  0  0999 V2000
  -28.0162   -0.8135   28.8779 C   0  0  0  0  0  0  0  0  0  0  0  0
  -28.4690   -0.7850   29.8287 C   0  0  0  0  0  0  0  0  0  0  0  0
  -26.5042   -0.7777   28.8766 C   0  0  0  0  0  0  0  0  0  0  0  0
  -25.8305   -1.6807   29.6849 C   0  0  0  0  0  0  0  0  0  0  0  0
  -28.1490   -1.8854   30.9031 C   0  0  0  0  0  0  0  0  0  0  0  0
  -26.6460   -1.9561   31.0330 C   0  0  0  0  0  0  0  0  0  0  0  0
  -28.6274   -1.7308   32.1858 O   0  0  0  0  0  0  0  0  0  0  0  0
  -30.0168   -0.9269   29.8771 O   0  0  0  0  0  0  0  0  0  0  0  0
  -24.6534   -2.3030   29.3807 C   0  0  0  0  0  0  0  0  0  0  0  0
  -23.4721   -1.5067   29.2502 C   0  0  0  0  0  0  0  0  0  0  0  0
  -23.3950   -0.1928   29.8406 C   0  0  0  0  0  0  0  0  0  0  0  0
  -23.6717    0.9190   29.0091 C   0  0  0  0  0  0  0  0  0  0  0  0
  -22.6290    1.2862   28.1271 C   0  0  0  0  0  0  0  0  0  0  0  0
  -22.9550    2.0263   26.9068 C   0  0  0  0  0  0  0  0  0  0  0  0
  -24.2101    2.5883   26.8165 C   0  0  0  0  0  0  0  0  0  0  0  0
  -25.0036    1.0250   28.3631 C   0  0  0  0  0  0  0  0  0  0  0  0
  -25.2139    2.3139   27.6678 C   0  0  0  0  0  0  0  0  0  0  0  0
  -25.9353    0.2460   28.9063 O   0  0  0  0  0  0  0  0  0  0  0  0
  -26.6106    2.3733   27.0765 C   0  0  0  0  0  0  0  0  0  0  0  0
  -25.1210    3.5113   28.8041 C   0  0  0  0  0  0  0  0  0  0  0  0
  -26.0055    3.7005   29.7613 C   0  0  0  0  0  0  0  0  0  0  0  0
  -25.7071    4.2226   30.9306 C   0  0  0  0  0  0  0  0  0  0  0  0
  -26.6818    4.5429   31.8631 C   0  0  0  0  0  0  0  0  0  0  0  0
  -27.9805    4.1666   31.6581 C   0  0  0  0  0  0  0  0  0  0  0  0
  -28.3093    3.6093   30.3838 C   0  0  0  0  0  0  0  0  0  0  0  0
  -27.3744    3.3965   29.4926 C   0  0  0  0  0  0  0  0  0  0  0  0
  -27.7068    2.7467   28.1678 C   0  0  0  0  0  0  0  0  0  0  0  0
  -26.7094    3.3971   26.0257 C   0  0  0  0  0  0  0  0  0  0  0  0
  -27.0064    1.0699   26.4698 C   0  0  0  0  0  0  0  0  0  0  0  0
  -27.5187    1.2555   25.1669 C   0  0  0  0  0  0  0  0  0  0  0  0
  -29.0612    2.6802   27.7421 C   0  0  0  0  0  0  0  0  0  0  0  0
  -29.7459    3.8406   27.5216 C   0  0  0  0  0  0  0  0  0  0  0  0
  -31.1217    3.7628   27.2201 C   0  0  0  0  0  0  0  0  0  0  0  0
  -27.4358    2.6956   24.9674 C   0  0  0  0  0  0  0  0  0  0  0  0
  -31.6553    2.5023   26.9906 C   0  0  0  0  0  0  0  0  0  0  0  0
  1  2  1  0
  1  3  1  0
  3  4  1  0
  2  5  1  0
  4  6  1  0
  5  6  1  0
  5  7  1  0
  2  8  1  0
  4  9  1  0
  9 10  1  0
 10 11  1  0
 11 12  1  0
 12 13  1  0
 14 15  1  0
 12 16  1  0
 15 17  1  0
 16 17  1  0
  3 18  1  0
 16 18  1  0
 17 19  1  0
 17 20  1  0
 20 21  1  0
 19 27  1  0
 26 27  1  0
 19 28  1  0
 19 29  1  0
 29 30  2  0
 27 31  1  0
 31 32  2  3
 32 33  1  0
 28 34  2  0
 30 34  1  0
 33 35  2  0
 14 13  1  0
 21 22  2  0
 22 23  1  0
 23 24  2  0
 24 25  1  0
 25 26  2  0
 26 21  1  0
M  END

$$$$
