No_54-gen_results/8p0m/2024-11-26-14-13-15/
     RDKit          3D

  8  7  0  0  0  0  0  0  0  0999 V2000
  -28.1493   -0.8198   28.9079 Cl  0  0  0  0  0  0  0  0  0  0  0  0
  -27.8339    0.4961   29.0598 C   0  0  0  0  0  0  0  0  0  0  0  0
  -27.8833    1.0376   30.1944 F   0  0  0  0  0  0  0  0  0  0  0  0
  -26.3797    0.7729   28.5385 C   0  0  0  0  0  0  0  0  0  0  0  0
  -28.6112    1.2493   28.2241 F   0  0  0  0  0  0  0  0  0  0  0  0
  -25.4126    0.2715   29.2941 C   0  0  0  0  0  0  0  0  0  0  0  0
  -25.1365    0.9041   30.4743 C   0  0  0  0  0  0  0  0  0  0  0  0
  -26.1915    1.3552   31.4262 C   0  0  0  0  0  0  0  0  0  0  0  0
  1  2  1  0
  2  3  1  0
  2  4  1  0
  2  5  1  0
  4  6  2  3
  6  7  1  0
  7  8  2  0
M  END

$$$$
