No_559-gen_results/8p0m/2024-11-26-14-13-15/
     RDKit          3D

 16 17  0  0  0  0  0  0  0  0999 V2000
  -28.0162   -0.8135   28.8779 C   0  0  0  0  0  0  0  0  0  0  0  0
  -28.4690   -0.7850   29.8287 C   0  0  0  0  0  0  0  0  0  0  0  0
  -27.1356    0.2359   28.5352 C   0  0  0  0  0  0  0  0  0  0  0  0
  -26.8050    1.0509   29.2763 C   0  0  0  0  0  0  0  0  0  0  0  0
  -28.2372    0.1503   30.9300 C   0  0  0  0  0  0  0  0  0  0  0  0
  -27.3522    1.1239   30.6071 C   0  0  0  0  0  0  0  0  0  0  0  0
  -26.3827    0.1705   26.9252 Cl  0  0  0  0  0  0  0  0  0  0  0  0
  -29.5890   -2.1037   30.3896 Cl  0  0  0  0  0  0  0  0  0  0  0  0
  -25.8928    2.1183   28.9608 O   0  0  0  0  0  0  0  0  0  0  0  0
  -24.7214    2.0407   28.7549 C   0  0  0  0  0  0  0  0  0  0  0  0
  -23.7911    1.5310   29.6408 C   0  0  0  0  0  0  0  0  0  0  0  0
  -22.4718    1.1741   29.3743 C   0  0  0  0  0  0  0  0  0  0  0  0
  -22.0098    1.5121   28.0620 C   0  0  0  0  0  0  0  0  0  0  0  0
  -24.1628    2.3473   27.4340 C   0  0  0  0  0  0  0  0  0  0  0  0
  -22.8119    2.1135   27.1461 C   0  0  0  0  0  0  0  0  0  0  0  0
  -24.9042    3.0020   26.5596 O   0  0  0  0  0  0  0  0  0  0  0  0
  3  7  1  0
  2  8  1  0
  4  9  1  0
  9 10  1  0
 14 16  1  0
 10 11  2  0
 11 12  1  0
 12 13  2  0
 13 15  1  0
 15 14  2  0
 14 10  1  0
  1  2  2  0
  2  5  1  0
  5  6  2  0
  6  4  1  0
  4  3  2  0
  3  1  1  0
M  END

$$$$
