No_504-gen_results/8p0m/2024-11-26-14-13-15/
     RDKit          3D

 32 35  0  0  0  0  0  0  0  0999 V2000
  -28.0162   -0.8135   28.8779 C   0  0  0  0  0  0  0  0  0  0  0  0
  -28.4690   -0.7850   29.8287 C   0  0  0  0  0  0  0  0  0  0  0  0
  -27.0871    0.2903   28.6377 C   0  0  0  0  0  0  0  0  0  0  0  0
  -26.0238    0.3644   29.2526 C   0  0  0  0  0  0  0  0  0  0  0  0
  -27.5370   -0.6187   31.0883 C   0  0  0  0  0  0  0  0  0  0  0  0
  -26.3844    0.1834   30.8012 C   0  0  0  0  0  0  0  0  0  0  0  0
  -29.5100   -1.6195   30.2653 O   0  0  0  0  0  0  0  0  0  0  0  0
  -30.4605   -1.1092   31.0702 C   0  0  0  0  0  0  0  0  0  0  0  0
  -30.8147   -0.1051   31.1543 C   0  0  0  0  0  0  0  0  0  0  0  0
  -31.8694    0.3989   31.9958 C   0  0  0  0  0  0  0  0  0  0  0  0
  -32.5186   -0.5929   32.7638 C   0  0  0  0  0  0  0  0  0  0  0  0
  -31.0836   -2.2522   31.9469 C   0  0  0  0  0  0  0  0  0  0  0  0
  -32.0867   -1.8768   32.7514 C   0  0  0  0  0  0  0  0  0  0  0  0
  -24.8585    1.2628   29.0734 C   0  0  0  0  0  0  0  0  0  0  0  0
  -24.1512    1.0960   27.9803 C   0  0  0  0  0  0  0  0  0  0  0  0
  -24.3522    1.2734   26.9039 C   0  0  0  0  0  0  0  0  0  0  0  0
  -23.3462    1.2611   25.8066 C   0  0  0  0  0  0  0  0  0  0  0  0
  -22.6664    0.7835   28.3110 C   0  0  0  0  0  0  0  0  0  0  0  0
  -22.2323    0.1278   29.4783 C   0  0  0  0  0  0  0  0  0  0  0  0
  -22.0682    1.5694   26.0851 C   0  0  0  0  0  0  0  0  0  0  0  0
  -21.6444    1.1154   27.3606 C   0  0  0  0  0  0  0  0  0  0  0  0
  -29.3284    0.4552   30.0118 C   0  0  0  0  0  0  0  0  0  0  0  0
  -31.2144    0.4345   29.9018 Cl  0  0  0  0  0  0  0  0  0  0  0  0
  -28.9717    1.4942   29.0181 C   0  0  0  0  0  0  0  0  0  0  0  0
  -29.1522    1.5410   31.3219 C   0  0  0  0  0  0  0  0  0  0  0  0
  -29.5752    1.5311   29.8330 F   0  0  0  0  0  0  0  0  0  0  0  0
  -28.9444    2.8991   28.9840 C   0  0  0  0  0  0  0  0  0  0  0  0
  -28.5699    2.9064   31.1830 C   0  0  0  0  0  0  0  0  0  0  0  0
  -29.1684    3.8817   27.6717 Cl  0  0  0  0  0  0  0  0  0  0  0  0
  -28.5652    3.6016   30.1581 C   0  0  0  0  0  0  0  0  0  0  0  0
  -28.6313    1.1143   27.8431 O   0  0  0  0  0  0  0  0  0  0  0  0
  -26.6784    0.3566   27.2376 F   0  0  0  0  0  0  0  0  0  0  0  0
  1  2  1  0
  1  3  1  0
  2  5  1  0
  4  6  1  0
  2  7  1  0
  7  8  1  0
  4 14  1  0
 14 15  1  0
 18 19  1  0
  2 22  1  0
  9 23  1  0
 22 24  1  0
 22 25  1  0
 22 26  1  0
 24 27  1  0
 27 29  1  0
 27 30  1  0
 28 30  1  0
 24 31  2  0
  3 32  1  0
  3  4  1  0
  6  5  1  0
 25 28  1  0
 15 16  2  0
 16 17  1  0
 17 20  2  0
 20 21  1  0
 21 18  2  0
 18 15  1  0
  8  9  2  0
  9 10  1  0
 10 11  2  0
 11 13  1  0
 13 12  2  0
 12  8  1  0
M  END

$$$$
