No_50-gen_results/8p0m/2024-11-26-14-13-15/
     RDKit          3D

 35 38  0  0  0  0  0  0  0  0999 V2000
  -28.1493   -0.8198   28.9079 Cl  0  0  0  0  0  0  0  0  0  0  0  0
  -26.9116   -0.0797   28.9452 C   0  0  0  0  0  0  0  0  0  0  0  0
  -26.7384    1.0439   29.2535 C   0  0  0  0  0  0  0  0  0  0  0  0
  -25.4392    1.7115   29.2755 C   0  0  0  0  0  0  0  0  0  0  0  0
  -24.2812    0.9888   28.8542 C   0  0  0  0  0  0  0  0  0  0  0  0
  -24.4869   -0.3041   28.4957 C   0  0  0  0  0  0  0  0  0  0  0  0
  -25.7046   -0.8667   28.5244 C   0  0  0  0  0  0  0  0  0  0  0  0
  -22.9690    1.6346   28.7977 C   0  0  0  0  0  0  0  0  0  0  0  0
  -22.2916    1.7090   27.7663 N   0  0  0  0  0  0  0  0  0  0  0  0
  -22.2536    1.6231   29.8685 O   0  0  0  0  0  0  0  0  0  0  0  0
  -27.8265    1.9621   29.7355 C   0  0  0  0  0  0  0  0  0  0  0  0
  -28.4433    1.8004   30.7999 C   0  0  0  0  0  0  0  0  0  0  0  0
  -29.5280    2.6267   31.2018 C   0  0  0  0  0  0  0  0  0  0  0  0
  -28.4677    2.7388   28.6718 C   0  0  0  0  0  0  0  0  0  0  0  0
  -29.5388    3.5686   28.9905 C   0  0  0  0  0  0  0  0  0  0  0  0
  -30.0691    3.5075   30.2817 C   0  0  0  0  0  0  0  0  0  0  0  0
  -31.2161    4.3711   30.6259 C   0  0  0  0  0  0  0  0  0  0  0  0
  -31.2133    4.8981   31.7206 N   0  0  0  0  0  0  0  0  0  0  0  0
  -32.2612    4.2301   29.9430 O   0  0  0  0  0  0  0  0  0  0  0  0
  -31.9409    5.7509   32.2241 C   0  0  0  0  0  0  0  0  0  0  0  0
  -32.5461    6.6783   31.8384 C   0  0  0  0  0  0  0  0  0  0  0  0
  -33.4314    7.5889   32.5248 C   0  0  0  0  0  0  0  0  0  0  0  0
  -33.5810    7.3696   33.9004 C   0  0  0  0  0  0  0  0  0  0  0  0
  -32.9246    6.3181   34.4927 C   0  0  0  0  0  0  0  0  0  0  0  0
  -32.0640    5.4992   33.7893 C   0  0  0  0  0  0  0  0  0  0  0  0
  -34.4625    8.2751   34.6586 C   0  0  0  0  0  0  0  0  0  0  0  0
  -35.4664    8.6111   34.7704 C   0  0  0  0  0  0  0  0  0  0  0  0
  -36.0962    9.5373   35.6507 C   0  0  0  0  0  0  0  0  0  0  0  0
  -33.5726    8.9505   35.7636 C   0  0  0  0  0  0  0  0  0  0  0  0
  -34.0434    9.7982   36.6455 C   0  0  0  0  0  0  0  0  0  0  0  0
  -35.3472   10.1306   36.6124 C   0  0  0  0  0  0  0  0  0  0  0  0
  -35.9658   11.0878   37.5628 C   0  0  0  0  0  0  0  0  0  0  0  0
  -35.2326   11.6292   38.4016 N   0  0  0  0  0  0  0  0  0  0  0  0
  -37.1158   11.4802   37.3026 O   0  0  0  0  0  0  0  0  0  0  0  0
  -35.7439   12.5872   39.3711 C   0  0  0  0  0  0  0  0  0  0  0  0
  1  2  1  0
  5  8  1  0
  8  9  1  0
  8 10  2  0
  3 11  1  0
 16 17  1  0
 17 18  1  0
 17 19  2  0
 18 20  1  0
 23 26  1  0
 31 32  1  0
 32 33  1  0
 32 34  2  0
 33 35  1  0
 20 21  2  0
 21 22  1  0
 22 23  2  0
 23 24  1  0
 24 25  2  0
 25 20  1  0
  2  3  2  0
  3  4  1  0
  4  5  2  0
  5  6  1  0
  6  7  2  0
  7  2  1  0
 26 27  2  0
 27 28  1  0
 28 31  2  0
 31 30  1  0
 30 29  2  0
 29 26  1  0
 11 12  2  0
 12 13  1  0
 13 16  2  0
 16 15  1  0
 15 14  2  0
 14 11  1  0
M  END

$$$$
