No_543-gen_results/8p0m/2024-11-26-14-13-15/
     RDKit          3D

 22 24  0  0  0  0  0  0  0  0999 V2000
  -28.0162   -0.8135   28.8779 C   0  0  0  0  0  0  0  0  0  0  0  0
  -28.4690   -0.7850   29.8287 C   0  0  0  0  0  0  0  0  0  0  0  0
  -26.5042   -0.7777   28.8766 C   0  0  0  0  0  0  0  0  0  0  0  0
  -25.8103   -0.8531   30.1028 C   0  0  0  0  0  0  0  0  0  0  0  0
  -27.9906   -0.8916   31.2257 C   0  0  0  0  0  0  0  0  0  0  0  0
  -26.6042   -0.8676   31.2652 C   0  0  0  0  0  0  0  0  0  0  0  0
  -29.9203   -0.8331   29.8239 F   0  0  0  0  0  0  0  0  0  0  0  0
  -24.3796   -0.8022   30.1424 C   0  0  0  0  0  0  0  0  0  0  0  0
  -23.6323   -0.3170   29.1196 C   0  0  0  0  0  0  0  0  0  0  0  0
  -22.1884   -0.2415   29.2461 C   0  0  0  0  0  0  0  0  0  0  0  0
  -21.4465    0.3223   28.1882 C   0  0  0  0  0  0  0  0  0  0  0  0
  -22.1232    1.2260   27.3046 C   0  0  0  0  0  0  0  0  0  0  0  0
  -23.5021    1.3684   27.3406 C   0  0  0  0  0  0  0  0  0  0  0  0
  -24.2580    0.6956   28.2849 C   0  0  0  0  0  0  0  0  0  0  0  0
  -24.0701    2.3357   26.4087 C   0  0  0  0  0  0  0  0  0  0  0  0
  -25.3290    2.0119   25.8748 C   0  0  0  0  0  0  0  0  0  0  0  0
  -26.4817    2.7665   26.0584 C   0  0  0  0  0  0  0  0  0  0  0  0
  -27.6915    2.4175   25.4176 C   0  0  0  0  0  0  0  0  0  0  0  0
  -27.7150    1.2261   24.6999 C   0  0  0  0  0  0  0  0  0  0  0  0
  -26.6616    0.3979   24.6137 C   0  0  0  0  0  0  0  0  0  0  0  0
  -25.4350    0.7455   25.2179 C   0  0  0  0  0  0  0  0  0  0  0  0
  -23.5222    3.4132   26.1200 O   0  0  0  0  0  0  0  0  0  0  0  0
  2  7  1  0
  4  8  1  0
 13 15  1  0
 15 16  1  0
 15 22  2  0
  8  9  1  0
  9 10  2  0
 10 11  1  0
 11 12  2  0
 12 13  1  0
 13 14  2  0
 14  9  1  0
  1  2  2  0
  2  5  1  0
  5  6  2  0
  6  4  1  0
  4  3  2  0
  3  1  1  0
 16 17  2  0
 17 18  1  0
 18 19  2  0
 19 20  1  0
 20 21  2  0
 21 16  1  0
M  END

$$$$
