No_563-gen_results/8p0m/2024-11-26-14-13-15/
     RDKit          3D

 35 38  0  0  0  0  0  0  0  0999 V2000
  -28.0162   -0.8135   28.8779 C   0  0  0  0  0  0  0  0  0  0  0  0
  -27.0636   -0.1189   28.6079 C   0  0  0  0  0  0  0  0  0  0  0  0
  -25.7923   -0.4302   29.0761 C   0  0  0  0  0  0  0  0  0  0  0  0
  -24.5456    0.3494   28.8225 C   0  0  0  0  0  0  0  0  0  0  0  0
  -24.6586    1.4196   27.8878 C   0  0  0  0  0  0  0  0  0  0  0  0
  -25.9471    1.6811   27.3792 C   0  0  0  0  0  0  0  0  0  0  0  0
  -27.0439    0.9739   27.6871 C   0  0  0  0  0  0  0  0  0  0  0  0
  -29.1797   -0.1202   29.1288 N   0  0  0  0  0  0  0  0  0  0  0  0
  -29.5842    0.1318   30.4036 C   0  0  0  0  0  0  0  0  0  0  0  0
  -30.2803   -0.5752   28.2364 C   0  0  0  0  0  0  0  0  0  0  0  0
  -23.3719    1.8319   27.5507 C   0  0  0  0  0  0  0  0  0  0  0  0
  -22.2178    1.5193   28.1318 N   0  0  0  0  0  0  0  0  0  0  0  0
  -23.2489    2.6755   26.4030 N   0  0  0  0  0  0  0  0  0  0  0  0
  -30.6802    0.3860   27.2825 C   0  0  0  0  0  0  0  0  0  0  0  0
  -31.6491    0.8136   27.5098 O   0  0  0  0  0  0  0  0  0  0  0  0
  -29.9522    0.4854   26.1276 N   0  0  0  0  0  0  0  0  0  0  0  0
  -30.3471    1.4249   25.0861 C   0  0  0  0  0  0  0  0  0  0  0  0
  -29.2066    1.4200   30.9136 C   0  0  0  0  0  0  0  0  0  0  0  0
  -29.0741    1.5212   32.1238 C   0  0  0  0  0  0  0  0  0  0  0  0
  -29.5895    0.6024   33.0714 C   0  0  0  0  0  0  0  0  0  0  0  0
  -30.0007   -0.8505   31.2303 C   0  0  0  0  0  0  0  0  0  0  0  0
  -29.9622   -0.6667   32.6219 C   0  0  0  0  0  0  0  0  0  0  0  0
  -27.9277   -1.9517   29.3797 O   0  0  0  0  0  0  0  0  0  0  0  0
  -22.0889    0.7183   29.1181 C   0  0  0  0  0  0  0  0  0  0  0  0
  -23.3059   -0.0588   29.4524 C   0  0  0  0  0  0  0  0  0  0  0  0
  -26.0451    2.8276   26.4136 C   0  0  0  0  0  0  0  0  0  0  0  0
  -24.5740    3.3261   26.0542 C   0  0  0  0  0  0  0  0  0  0  0  0
  -29.5526    0.8017   34.4034 F   0  0  0  0  0  0  0  0  0  0  0  0
  -23.2048   -1.0606   30.4883 C   0  0  0  0  0  0  0  0  0  0  0  0
  -22.5232   -0.7093   31.5013 F   0  0  0  0  0  0  0  0  0  0  0  0
  -24.4241   -1.4657   30.8808 F   0  0  0  0  0  0  0  0  0  0  0  0
  -22.5092   -2.0595   29.8873 F   0  0  0  0  0  0  0  0  0  0  0  0
  -22.8793   -1.0256   28.6952 Cl  0  0  0  0  0  0  0  0  0  0  0  0
  -28.8055    2.5576   30.0315 C   0  0  0  0  0  0  0  0  0  0  0  0
  -29.7621    3.5014   29.6610 C   0  0  0  0  0  0  0  0  0  0  0  0
  1  2  1  0
  2  3  2  0
  3  4  1  0
  4  5  2  0
  5  6  1  0
  2  7  1  0
  6  7  1  0
  1  8  1  0
  8  9  1  0
  8 10  1  0
  5 11  1  0
 11 12  2  0
 11 13  1  0
 10 14  1  0
 14 15  2  0
 14 16  1  0
 16 17  1  0
  9 18  1  0
 18 19  2  0
 19 20  1  0
  9 21  1  0
 20 22  1  0
 21 22  2  0
  1 23  2  0
 12 24  1  0
  4 25  1  0
 24 25  1  0
  6 26  1  0
 13 27  2  0
 26 27  2  0
 20 28  1  0
 25 29  1  0
 29 30  1  0
 29 31  1  0
 29 32  1  0
 25 33  1  0
 18 34  1  0
 34 35  1  0
M  END

$$$$
