No_508-gen_results/8p0m/2024-11-26-14-13-15/
     RDKit          3D

 35 38  0  0  0  0  0  0  0  0999 V2000
  -28.1229   -1.3353   28.4874 O   0  0  0  0  0  0  0  0  0  0  0  0
  -27.4806   -0.4044   28.7094 C   0  0  0  0  0  0  0  0  0  0  0  0
  -27.1904    0.2460   29.5268 C   0  0  0  0  0  0  0  0  0  0  0  0
  -26.6871   -0.0001   27.4423 N   0  0  0  0  0  0  0  0  0  0  0  0
  -27.6511    0.1259   30.8798 C   0  0  0  0  0  0  0  0  0  0  0  0
  -25.7508    1.0047   27.4342 C   0  0  0  0  0  0  0  0  0  0  0  0
  -25.5610    1.6907   28.6120 C   0  0  0  0  0  0  0  0  0  0  0  0
  -26.1559    1.3682   29.6808 C   0  0  0  0  0  0  0  0  0  0  0  0
  -28.6339    0.6373   31.3488 C   0  0  0  0  0  0  0  0  0  0  0  0
  -29.2794    1.7223   30.5881 C   0  0  0  0  0  0  0  0  0  0  0  0
  -30.4139    2.3959   31.1933 C   0  0  0  0  0  0  0  0  0  0  0  0
  -31.0573    3.4220   30.5118 C   0  0  0  0  0  0  0  0  0  0  0  0
  -30.5835    3.7567   29.1950 C   0  0  0  0  0  0  0  0  0  0  0  0
  -29.5204    3.0690   28.6229 C   0  0  0  0  0  0  0  0  0  0  0  0
  -28.9065    2.1131   29.3057 C   0  0  0  0  0  0  0  0  0  0  0  0
  -28.9997    0.9518   28.4889 F   0  0  0  0  0  0  0  0  0  0  0  0
  -29.2090    3.4701   27.2201 C   0  0  0  0  0  0  0  0  0  0  0  0
  -28.1767    3.9519   26.9913 N   0  0  0  0  0  0  0  0  0  0  0  0
  -29.9272    2.8414   26.2702 O   0  0  0  0  0  0  0  0  0  0  0  0
  -25.1151    1.2729   26.1763 C   0  0  0  0  0  0  0  0  0  0  0  0
  -24.1176    2.2675   26.1475 C   0  0  0  0  0  0  0  0  0  0  0  0
  -23.8769    3.0330   27.3373 C   0  0  0  0  0  0  0  0  0  0  0  0
  -24.5189    2.7582   28.5042 C   0  0  0  0  0  0  0  0  0  0  0  0
  -27.6080    4.2096   25.6028 C   0  0  0  0  0  0  0  0  0  0  0  0
  -27.3648    4.8052   28.0394 C   0  0  0  0  0  0  0  0  0  0  0  0
  -26.6662    5.9354   27.4864 C   0  0  0  0  0  0  0  0  0  0  0  0
  -27.1413    7.2661   27.6411 C   0  0  0  0  0  0  0  0  0  0  0  0
  -26.4009    8.2913   27.1052 C   0  0  0  0  0  0  0  0  0  0  0  0
  -25.0633    8.0728   26.6042 C   0  0  0  0  0  0  0  0  0  0  0  0
  -24.5784    6.7547   26.6172 C   0  0  0  0  0  0  0  0  0  0  0  0
  -25.3555    5.7151   27.0899 C   0  0  0  0  0  0  0  0  0  0  0  0
  -26.9381   -0.9430   31.7111 C   0  0  0  0  0  0  0  0  0  0  0  0
  -26.1873   -1.5734   31.3385 O   0  0  0  0  0  0  0  0  0  0  0  0
  -27.3385   -0.9529   32.9784 O   0  0  0  0  0  0  0  0  0  0  0  0
  -32.0690    4.2273   31.1829 C   0  0  0  0  0  0  0  0  0  0  0  0
  1  2  2  0
  2  3  1  0
  2  4  1  0
  3  5  1  0
  3  8  1  0
  5  9  2  3
  9 10  1  0
 15 16  1  0
 14 17  1  0
 17 18  1  0
 17 19  2  0
 18 24  1  0
 18 25  1  0
  5 32  1  0
 32 33  2  0
 32 34  1  0
 12 35  1  0
 25 26  1  0
  8  7  1  0
  6  4  1  0
  6  7  2  0
  7 23  1  0
 23 22  2  0
 22 21  1  0
 21 20  2  0
 20  6  1  0
 10 11  2  0
 11 12  1  0
 12 13  2  0
 13 14  1  0
 14 15  2  0
 15 10  1  0
 26 27  2  0
 27 28  1  0
 28 29  2  0
 29 30  1  0
 30 31  2  0
 31 26  1  0
M  END

$$$$
