No_587-gen_results/8p0m/2024-11-26-14-13-15/
     RDKit          3D

 29 30  0  0  0  0  0  0  0  0999 V2000
  -28.1493   -0.8198   28.9079 Cl  0  0  0  0  0  0  0  0  0  0  0  0
  -27.8339    0.4961   29.0598 C   0  0  0  0  0  0  0  0  0  0  0  0
  -27.5135    1.2383   28.0485 C   0  0  0  0  0  0  0  0  0  0  0  0
  -27.0548    2.6251   28.1330 C   0  0  0  0  0  0  0  0  0  0  0  0
  -26.9438    3.1838   29.4305 C   0  0  0  0  0  0  0  0  0  0  0  0
  -27.2205    2.3582   30.5116 C   0  0  0  0  0  0  0  0  0  0  0  0
  -27.5987    1.0586   30.3700 C   0  0  0  0  0  0  0  0  0  0  0  0
  -26.4783    4.5613   29.5893 C   0  0  0  0  0  0  0  0  0  0  0  0
  -25.8214    4.8884   30.6747 C   0  0  0  0  0  0  0  0  0  0  0  0
  -25.4783    6.1639   30.7800 F   0  0  0  0  0  0  0  0  0  0  0  0
  -26.5136    4.6247   31.8611 F   0  0  0  0  0  0  0  0  0  0  0  0
  -24.6713    4.1590   30.8177 F   0  0  0  0  0  0  0  0  0  0  0  0
  -27.6387    0.7897   26.7964 O   0  0  0  0  0  0  0  0  0  0  0  0
  -28.6586    0.9628   26.0509 C   0  0  0  0  0  0  0  0  0  0  0  0
  -28.5166    0.4523   24.7410 C   0  0  0  0  0  0  0  0  0  0  0  0
  -29.7947    1.5687   26.3644 C   0  0  0  0  0  0  0  0  0  0  0  0
  -30.8487    1.7473   25.5022 C   0  0  0  0  0  0  0  0  0  0  0  0
  -29.5970    0.5389   23.8237 C   0  0  0  0  0  0  0  0  0  0  0  0
  -30.6941    1.2355   24.1856 C   0  0  0  0  0  0  0  0  0  0  0  0
  -31.6819    1.3560   23.3366 F   0  0  0  0  0  0  0  0  0  0  0  0
  -27.8930    0.2686   31.5866 C   0  0  0  0  0  0  0  0  0  0  0  0
  -27.7865    0.4779   32.5591 O   0  0  0  0  0  0  0  0  0  0  0  0
  -28.5611   -0.9402   31.2176 O   0  0  0  0  0  0  0  0  0  0  0  0
  -27.3971   -0.1853   24.3841 O   0  0  0  0  0  0  0  0  0  0  0  0
  -28.5303   -1.8770   31.6642 C   0  0  0  0  0  0  0  0  0  0  0  0
  -28.8155   -3.0814   30.8056 C   0  0  0  0  0  0  0  0  0  0  0  0
  -28.1963   -4.1189   31.0180 O   0  0  0  0  0  0  0  0  0  0  0  0
  -29.7383   -3.0950   29.9493 O   0  0  0  0  0  0  0  0  0  0  0  0
  -31.9720    2.4009   25.7597 F   0  0  0  0  0  0  0  0  0  0  0  0
  1  2  1  0
  5  8  1  0
  8  9  1  0
  9 10  1  0
  9 11  1  0
  9 12  1  0
  3 13  1  0
 13 14  1  0
 19 20  1  0
  7 21  1  0
 21 22  2  0
 21 23  1  0
 15 24  1  0
 23 25  1  0
 25 26  1  0
 26 27  2  0
 26 28  1  0
 17 29  1  0
  2  3  2  0
  3  4  1  0
  4  5  2  0
  5  6  1  0
  6  7  2  0
  7  2  1  0
 14 15  2  0
 15 18  1  0
 18 19  2  0
 19 17  1  0
 17 16  2  0
 16 14  1  0
M  END

$$$$
