No_510-gen_results/8p0m/2024-11-26-14-13-15/
     RDKit          3D

 18 18  0  0  0  0  0  0  0  0999 V2000
  -28.1229   -1.3353   28.4874 O   0  0  0  0  0  0  0  0  0  0  0  0
  -27.4806   -0.4044   28.7094 C   0  0  0  0  0  0  0  0  0  0  0  0
  -27.2412    0.3910   29.5098 N   0  0  0  0  0  0  0  0  0  0  0  0
  -26.6424    0.1187   27.3495 C   0  0  0  0  0  0  0  0  0  0  0  0
  -26.8725    0.0603   26.3315 C   0  0  0  0  0  0  0  0  0  0  0  0
  -25.9614    0.5946   25.2636 C   0  0  0  0  0  0  0  0  0  0  0  0
  -24.7093    1.0619   25.6741 C   0  0  0  0  0  0  0  0  0  0  0  0
  -24.4120    1.1106   26.9923 C   0  0  0  0  0  0  0  0  0  0  0  0
  -25.3014    0.6894   27.9046 C   0  0  0  0  0  0  0  0  0  0  0  0
  -28.0930    0.0015   30.8177 C   0  0  0  0  0  0  0  0  0  0  0  0
  -23.1359    1.7062   27.3735 C   0  0  0  0  0  0  0  0  0  0  0  0
  -22.5056    1.5033   28.5081 C   0  0  0  0  0  0  0  0  0  0  0  0
  -21.0470    1.7638   28.5564 C   0  0  0  0  0  0  0  0  0  0  0  0
  -23.1276    0.9901   29.6529 C   0  0  0  0  0  0  0  0  0  0  0  0
  -20.5770    1.1354   27.4555 F   0  0  0  0  0  0  0  0  0  0  0  0
  -22.9342    0.4046   30.4510 O   0  0  0  0  0  0  0  0  0  0  0  0
  -24.1619    1.9857   30.1236 O   0  0  0  0  0  0  0  0  0  0  0  0
  -20.7116    2.9657   28.4038 F   0  0  0  0  0  0  0  0  0  0  0  0
  1  2  2  0
  2  3  1  0
  2  4  1  0
  3 10  1  0
  8 11  1  0
 11 12  2  3
 12 13  1  0
 12 14  1  0
 13 15  1  0
 14 16  2  0
 14 17  1  0
 13 18  1  0
  4  5  2  0
  5  6  1  0
  6  7  2  0
  7  8  1  0
  8  9  2  0
  9  4  1  0
M  END

$$$$
