No_544-gen_results/8p0m/2024-11-26-14-13-15/
     RDKit          3D

 32 36  0  0  0  0  0  0  0  0999 V2000
  -28.0162   -0.8135   28.8779 C   0  0  0  0  0  0  0  0  0  0  0  0
  -27.0636   -0.1189   28.6079 C   0  0  0  0  0  0  0  0  0  0  0  0
  -25.7923   -0.4302   29.0761 C   0  0  0  0  0  0  0  0  0  0  0  0
  -24.5456    0.3494   28.8225 C   0  0  0  0  0  0  0  0  0  0  0  0
  -24.6586    1.4196   27.8878 C   0  0  0  0  0  0  0  0  0  0  0  0
  -25.9471    1.6811   27.3792 C   0  0  0  0  0  0  0  0  0  0  0  0
  -27.0439    0.9739   27.6871 C   0  0  0  0  0  0  0  0  0  0  0  0
  -28.0485   -1.5981   30.1629 C   0  0  0  0  0  0  0  0  0  0  0  0
  -26.7598   -2.0713   30.6119 C   0  0  0  0  0  0  0  0  0  0  0  0
  -25.6104   -1.4023   30.1709 C   0  0  0  0  0  0  0  0  0  0  0  0
  -28.2846    1.3373   26.9704 C   0  0  0  0  0  0  0  0  0  0  0  0
  -29.2846    1.0918   27.2225 C   0  0  0  0  0  0  0  0  0  0  0  0
  -30.4991    1.4842   26.4953 C   0  0  0  0  0  0  0  0  0  0  0  0
  -30.2313    2.2846   25.3995 C   0  0  0  0  0  0  0  0  0  0  0  0
  -28.0972    2.1956   25.8339 C   0  0  0  0  0  0  0  0  0  0  0  0
  -29.0005    2.6705   25.0410 C   0  0  0  0  0  0  0  0  0  0  0  0
  -23.2245   -0.0411   29.3358 C   0  0  0  0  0  0  0  0  0  0  0  0
  -22.1311    0.5855   28.7518 C   0  0  0  0  0  0  0  0  0  0  0  0
  -22.2238    1.5849   27.8145 C   0  0  0  0  0  0  0  0  0  0  0  0
  -23.5250    2.0524   27.3711 C   0  0  0  0  0  0  0  0  0  0  0  0
  -29.2194   -2.3569   30.5785 C   0  0  0  0  0  0  0  0  0  0  0  0
  -29.2510   -3.4898   30.7864 O   0  0  0  0  0  0  0  0  0  0  0  0
  -30.3570   -1.6056   30.7586 N   0  0  0  0  0  0  0  0  0  0  0  0
  -31.4856   -1.9185   31.0445 C   0  0  0  0  0  0  0  0  0  0  0  0
  -32.3162   -1.2822   31.6121 C   0  0  0  0  0  0  0  0  0  0  0  0
  -33.6070   -1.6632   32.1036 C   0  0  0  0  0  0  0  0  0  0  0  0
  -33.9354   -2.9927   31.7791 C   0  0  0  0  0  0  0  0  0  0  0  0
  -33.0736   -3.7855   31.0881 C   0  0  0  0  0  0  0  0  0  0  0  0
  -31.8379   -3.3263   30.7593 C   0  0  0  0  0  0  0  0  0  0  0  0
  -31.8971    1.0897   26.8146 C   0  0  0  0  0  0  0  0  0  0  0  0
  -32.4793    0.2837   26.3727 O   0  0  0  0  0  0  0  0  0  0  0  0
  -32.2327    1.4859   28.0906 O   0  0  0  0  0  0  0  0  0  0  0  0
  3  4  1  0
  5  6  1  0
  2  7  1  0
  6  7  1  0
  7 11  1  0
  8 21  1  0
 21 22  2  0
 21 23  1  0
 23 24  1  0
 13 30  1  0
 30 31  2  0
 30 32  1  0
 24 25  2  0
 25 26  1  0
 26 27  2  0
 27 28  1  0
 28 29  2  0
 29 24  1  0
  1  2  2  0
  2  3  1  0
  3 10  2  0
 10  9  1  0
  9  8  2  0
  8  1  1  0
  4  5  2  0
  5 20  1  0
 20 19  2  0
 19 18  1  0
 18 17  2  0
 17  4  1  0
 11 12  2  0
 12 13  1  0
 13 14  2  0
 14 16  1  0
 16 15  2  0
 15 11  1  0
M  END

$$$$
