No_549-gen_results/8p0m/2024-11-26-14-13-15/
     RDKit          3D

 13 13  0  0  0  0  0  0  0  0999 V2000
  -28.0162   -0.8135   28.8779 C   0  0  0  0  0  0  0  0  0  0  0  0
  -27.0636   -0.1189   28.6079 C   0  0  0  0  0  0  0  0  0  0  0  0
  -27.0010    0.6913   27.4910 C   0  0  0  0  0  0  0  0  0  0  0  0
  -28.1420    0.8282   26.7994 C   0  0  0  0  0  0  0  0  0  0  0  0
  -29.2898   -0.4871   28.3661 C   0  0  0  0  0  0  0  0  0  0  0  0
  -29.2849    0.2608   27.2623 C   0  0  0  0  0  0  0  0  0  0  0  0
  -27.9861   -1.5527   30.0261 F   0  0  0  0  0  0  0  0  0  0  0  0
  -30.4343    0.5228   26.2959 C   0  0  0  0  0  0  0  0  0  0  0  0
  -31.3765   -0.0527   26.4253 O   0  0  0  0  0  0  0  0  0  0  0  0
  -30.3488    1.3796   25.3333 O   0  0  0  0  0  0  0  0  0  0  0  0
  -25.5203   -0.5026   29.7331 Br  0  0  0  0  0  0  0  0  0  0  0  0
  -25.6201    1.2895   27.0935 C   0  0  0  0  0  0  0  0  0  0  0  0
  -24.5542    1.0382   27.7998 C   0  0  0  0  0  0  0  0  0  0  0  0
  1  7  1  0
  6  8  1  0
  8  9  1  0
  8 10  2  0
  2 11  1  0
  3 12  1  0
 12 13  1  0
  1  2  2  0
  2  3  1  0
  3  4  2  0
  4  6  1  0
  6  5  2  0
  5  1  1  0
M  END

$$$$
