No_593-gen_results/8p0m/2024-11-26-14-13-15/
     RDKit          3D

 23 25  0  0  0  0  0  0  0  0999 V2000
  -28.1229   -1.3353   28.4874 O   0  0  0  0  0  0  0  0  0  0  0  0
  -27.4806   -0.4044   28.7094 C   0  0  0  0  0  0  0  0  0  0  0  0
  -26.3804   -0.0867   27.9394 C   0  0  0  0  0  0  0  0  0  0  0  0
  -27.6664    0.4468   29.8988 N   0  0  0  0  0  0  0  0  0  0  0  0
  -26.4086    0.8567   26.8802 C   0  0  0  0  0  0  0  0  0  0  0  0
  -25.0824   -0.6970   28.1699 C   0  0  0  0  0  0  0  0  0  0  0  0
  -25.2842    1.0488   26.0470 C   0  0  0  0  0  0  0  0  0  0  0  0
  -23.9159   -0.3440   27.4444 C   0  0  0  0  0  0  0  0  0  0  0  0
  -24.0618    0.5290   26.3707 C   0  0  0  0  0  0  0  0  0  0  0  0
  -26.9083    1.5760   30.3281 C   0  0  0  0  0  0  0  0  0  0  0  0
  -27.1947    2.0111   31.4415 C   0  0  0  0  0  0  0  0  0  0  0  0
  -28.8878    0.1871   30.7630 C   0  0  0  0  0  0  0  0  0  0  0  0
  -29.6929   -0.6939   30.4601 C   0  0  0  0  0  0  0  0  0  0  0  0
  -28.9658    1.0019   31.8988 C   0  0  0  0  0  0  0  0  0  0  0  0
  -28.1833    1.8225   32.1529 C   0  0  0  0  0  0  0  0  0  0  0  0
  -24.8938   -1.6063   29.3407 C   0  0  0  0  0  0  0  0  0  0  0  0
  -30.4820   -1.3810   30.4725 C   0  0  0  0  0  0  0  0  0  0  0  0
  -30.8023   -2.6294   30.9483 C   0  0  0  0  0  0  0  0  0  0  0  0
  -31.9319   -3.3917   30.7510 C   0  0  0  0  0  0  0  0  0  0  0  0
  -32.0284   -4.7080   31.1457 C   0  0  0  0  0  0  0  0  0  0  0  0
  -30.9584   -5.3417   31.8824 C   0  0  0  0  0  0  0  0  0  0  0  0
  -29.7795   -4.6424   32.0954 C   0  0  0  0  0  0  0  0  0  0  0  0
  -29.6492   -3.3507   31.6359 C   0  0  0  0  0  0  0  0  0  0  0  0
  1  2  2  0
  2  3  1  0
  2  4  1  0
  4 10  1  0
  4 12  1  0
 12 13  1  0
 12 14  1  0
 11 15  1  0
  6 16  1  0
 13 17  3  0
 17 18  1  0
 10 11  1  0
 15 14  1  0
 18 19  2  0
 19 20  1  0
 20 21  2  0
 21 22  1  0
 22 23  2  0
 23 18  1  0
  3  5  2  0
  5  7  1  0
  7  9  2  0
  9  8  1  0
  8  6  2  0
  6  3  1  0
M  END

$$$$
