No_523-gen_results/8p0m/2024-11-26-14-13-15/
     RDKit          3D

 22 25  0  0  0  0  0  0  0  0999 V2000
  -28.1229   -1.3353   28.4874 O   0  0  0  0  0  0  0  0  0  0  0  0
  -27.0637   -0.8242   28.8687 C   0  0  0  0  0  0  0  0  0  0  0  0
  -26.4017   -0.0623   28.6224 C   0  0  0  0  0  0  0  0  0  0  0  0
  -26.5721   -1.5844   30.1172 N   0  0  0  0  0  0  0  0  0  0  0  0
  -26.6982    0.9644   27.6453 C   0  0  0  0  0  0  0  0  0  0  0  0
  -25.7832    1.8129   27.0351 C   0  0  0  0  0  0  0  0  0  0  0  0
  -24.4346    1.9091   27.5889 C   0  0  0  0  0  0  0  0  0  0  0  0
  -24.0816    1.0037   28.5745 C   0  0  0  0  0  0  0  0  0  0  0  0
  -24.9283    0.0868   29.0484 C   0  0  0  0  0  0  0  0  0  0  0  0
  -27.3909   -2.7710   30.6241 C   0  0  0  0  0  0  0  0  0  0  0  0
  -22.6671    1.0640   29.0620 C   0  0  0  0  0  0  0  0  0  0  0  0
  -21.7716    1.5639   28.2421 N   0  0  0  0  0  0  0  0  0  0  0  0
  -22.3455    0.2414   30.0591 N   0  0  0  0  0  0  0  0  0  0  0  0
  -25.4200   -1.3481   30.9231 C   0  0  0  0  0  0  0  0  0  0  0  0
  -24.4557   -0.5003   30.2359 C   0  0  0  0  0  0  0  0  0  0  0  0
  -23.1819   -0.5359   30.7671 C   0  0  0  0  0  0  0  0  0  0  0  0
  -28.6534   -2.5107   31.2154 C   0  0  0  0  0  0  0  0  0  0  0  0
  -28.8503   -1.3522   31.7612 C   0  0  0  0  0  0  0  0  0  0  0  0
  -30.1763   -1.0655   32.2627 C   0  0  0  0  0  0  0  0  0  0  0  0
  -31.0775   -2.1379   32.2701 C   0  0  0  0  0  0  0  0  0  0  0  0
  -29.7299   -3.4158   31.2270 C   0  0  0  0  0  0  0  0  0  0  0  0
  -30.9046   -3.2845   31.7376 C   0  0  0  0  0  0  0  0  0  0  0  0
  1  2  2  0
  2  3  1  0
  2  4  1  0
  4 10  1  0
  4 14  1  0
 10 17  1  0
 12 11  1  0
 15 14  1  0
  3  5  2  0
  5  6  1  0
  6  7  2  0
  7  8  1  0
  9  3  1  0
  8  9  1  0
  9 15  2  0
 15 16  1  0
 16 13  2  0
 13 11  1  0
 11  8  2  0
 17 18  2  0
 18 19  1  0
 19 20  2  0
 20 22  1  0
 22 21  2  0
 21 17  1  0
M  END

$$$$
