No_546-gen_results/8p0m/2024-11-26-14-13-15/
     RDKit          3D

 35 37  0  0  0  0  0  0  0  0999 V2000
  -28.0162   -0.8135   28.8779 C   0  0  0  0  0  0  0  0  0  0  0  0
  -28.4690   -0.7850   29.8287 C   0  0  0  0  0  0  0  0  0  0  0  0
  -28.6541   -0.6744   27.8445 F   0  0  0  0  0  0  0  0  0  0  0  0
  -27.7274   -1.0138   31.1384 C   0  0  0  0  0  0  0  0  0  0  0  0
  -26.3131   -1.1081   31.0634 C   0  0  0  0  0  0  0  0  0  0  0  0
  -25.7318   -1.1346   29.7725 C   0  0  0  0  0  0  0  0  0  0  0  0
  -26.5830   -0.9531   28.7142 C   0  0  0  0  0  0  0  0  0  0  0  0
  -24.3107   -1.2649   29.6888 C   0  0  0  0  0  0  0  0  0  0  0  0
  -23.4454   -0.2053   29.4397 C   0  0  0  0  0  0  0  0  0  0  0  0
  -23.7576    1.0937   29.5095 C   0  0  0  0  0  0  0  0  0  0  0  0
  -23.9104    1.8987   28.5549 C   0  0  0  0  0  0  0  0  0  0  0  0
  -24.4285    3.2282   28.5812 C   0  0  0  0  0  0  0  0  0  0  0  0
  -25.2136    3.5291   29.7487 C   0  0  0  0  0  0  0  0  0  0  0  0
  -25.1647    2.6652   30.8318 C   0  0  0  0  0  0  0  0  0  0  0  0
  -24.5638    1.4476   30.7738 C   0  0  0  0  0  0  0  0  0  0  0  0
  -22.0221   -0.4587   29.1302 C   0  0  0  0  0  0  0  0  0  0  0  0
  -25.9783    3.0090   32.0271 C   0  0  0  0  0  0  0  0  0  0  0  0
  -25.9808    2.1205   32.8604 F   0  0  0  0  0  0  0  0  0  0  0  0
  -25.3974    4.0585   32.6362 F   0  0  0  0  0  0  0  0  0  0  0  0
  -27.1731    3.4619   31.6640 F   0  0  0  0  0  0  0  0  0  0  0  0
  -23.0404    1.7106   27.2694 C   0  0  0  0  0  0  0  0  0  0  0  0
  -21.0502    0.1379   29.2881 O   0  0  0  0  0  0  0  0  0  0  0  0
  -21.8290   -1.7496   28.8563 O   0  0  0  0  0  0  0  0  0  0  0  0
  -30.1889   -0.5437   30.1159 Cl  0  0  0  0  0  0  0  0  0  0  0  0
  -23.6186    2.1394   26.0288 C   0  0  0  0  0  0  0  0  0  0  0  0
  -22.9897    1.8018   24.9664 C   0  0  0  0  0  0  0  0  0  0  0  0
  -24.2590    3.3348   26.0352 C   0  0  0  0  0  0  0  0  0  0  0  0
  -24.4044    4.2119   27.5755 C   0  0  0  0  0  0  0  0  0  0  0  0
  -25.9858   -0.9394   27.5384 F   0  0  0  0  0  0  0  0  0  0  0  0
  -28.3694   -0.9229   32.3693 O   0  0  0  0  0  0  0  0  0  0  0  0
  -29.3799   -0.2773   32.6576 C   0  0  0  0  0  0  0  0  0  0  0  0
  -30.1994   -0.6562   33.6921 C   0  0  0  0  0  0  0  0  0  0  0  0
  -29.7570   -1.4956   34.4026 O   0  0  0  0  0  0  0  0  0  0  0  0
  -31.5826   -1.0125   33.2140 C   0  0  0  0  0  0  0  0  0  0  0  0
  -31.7760   -2.3582   33.1209 C   0  0  0  0  0  0  0  0  0  0  0  0
  1  3  1  0
  6  8  1  0
  8  9  1  0
  9 10  1  0
  9 16  1  0
 14 17  1  0
 17 18  1  0
 17 19  1  0
 17 20  1  0
 11 21  1  0
 16 22  2  0
 16 23  1  0
  2 24  1  0
 21 25  1  0
 25 26  2  0
 25 27  1  0
 12 28  1  0
 27 28  1  0
  7 29  1  0
  4 30  1  0
 30 31  1  0
 31 32  1  0
 32 33  1  0
 32 34  1  0
 34 35  2  0
 10 11  2  0
 11 12  1  0
 12 13  2  0
 13 14  1  0
 14 15  2  0
 15 10  1  0
  1  2  2  0
  2  4  1  0
  4  5  2  0
  5  6  1  0
  6  7  2  0
  7  1  1  0
M  END

$$$$
