No_505-gen_results/8p0m/2024-11-26-14-13-15/
     RDKit          3D

  9  9  0  0  0  0  0  0  0  0999 V2000
  -28.0727   -1.2542   28.5316 F   0  0  0  0  0  0  0  0  0  0  0  0
  -27.3591   -0.3792   28.7224 C   0  0  0  0  0  0  0  0  0  0  0  0
  -26.3323   -0.6441   29.4520 C   0  0  0  0  0  0  0  0  0  0  0  0
  -25.2562    0.3203   29.7818 C   0  0  0  0  0  0  0  0  0  0  0  0
  -24.0409    0.1023   30.5300 C   0  0  0  0  0  0  0  0  0  0  0  0
  -23.9057   -1.2370   30.9880 C   0  0  0  0  0  0  0  0  0  0  0  0
  -24.8275   -2.1880   30.7131 C   0  0  0  0  0  0  0  0  0  0  0  0
  -25.9279   -1.9278   29.9544 C   0  0  0  0  0  0  0  0  0  0  0  0
  -27.9776    0.7150   29.3194 F   0  0  0  0  0  0  0  0  0  0  0  0
  1  2  1  0
  2  9  1  0
  2  3  1  0
  3  4  2  0
  4  5  1  0
  5  6  2  0
  6  7  1  0
  7  8  2  0
  8  3  1  0
M  END

$$$$
