No_519-gen_results/8p0m/2024-11-26-14-13-15/
     RDKit          3D

 26 27  0  0  0  0  0  0  0  0999 V2000
  -28.0162   -0.8135   28.8779 C   0  0  0  0  0  0  0  0  0  0  0  0
  -28.4690   -0.7850   29.8287 C   0  0  0  0  0  0  0  0  0  0  0  0
  -26.5455   -0.8762   28.8500 C   0  0  0  0  0  0  0  0  0  0  0  0
  -25.8041   -1.0324   30.0571 C   0  0  0  0  0  0  0  0  0  0  0  0
  -30.0055   -0.7457   29.8978 C   0  0  0  0  0  0  0  0  0  0  0  0
  -26.5747   -1.0565   31.2005 C   0  0  0  0  0  0  0  0  0  0  0  0
  -27.9251   -0.9738   31.1683 C   0  0  0  0  0  0  0  0  0  0  0  0
  -30.6342   -0.0988   29.1602 O   0  0  0  0  0  0  0  0  0  0  0  0
  -30.6957   -1.5907   30.8223 N   0  0  0  0  0  0  0  0  0  0  0  0
  -32.1186   -1.6447   30.8177 C   0  0  0  0  0  0  0  0  0  0  0  0
  -24.3590   -1.0866   30.0431 C   0  0  0  0  0  0  0  0  0  0  0  0
  -23.7698   -1.6194   30.7690 N   0  0  0  0  0  0  0  0  0  0  0  0
  -23.7422   -0.7683   28.9135 O   0  0  0  0  0  0  0  0  0  0  0  0
  -32.5903   -2.6600   31.2880 C   0  0  0  0  0  0  0  0  0  0  0  0
  -31.8433   -3.6431   32.0464 C   0  0  0  0  0  0  0  0  0  0  0  0
  -30.4261   -3.5936   32.0027 C   0  0  0  0  0  0  0  0  0  0  0  0
  -29.8857   -2.6399   31.3267 C   0  0  0  0  0  0  0  0  0  0  0  0
  -29.7217   -4.7231   32.6948 C   0  0  0  0  0  0  0  0  0  0  0  0
  -28.8323   -5.2470   31.8572 F   0  0  0  0  0  0  0  0  0  0  0  0
  -28.9895   -4.2473   33.7152 F   0  0  0  0  0  0  0  0  0  0  0  0
  -30.4974   -5.6170   33.1749 F   0  0  0  0  0  0  0  0  0  0  0  0
  -22.3396   -1.5646   30.8333 N   0  0  0  0  0  0  0  0  0  0  0  0
  -34.0945   -2.8110   31.5017 C   0  0  0  0  0  0  0  0  0  0  0  0
  -34.7177   -3.5987   30.8593 O   0  0  0  0  0  0  0  0  0  0  0  0
  -34.6986   -1.9526   32.2875 O   0  0  0  0  0  0  0  0  0  0  0  0
  -21.9167   -0.3776   30.2633 C   0  0  0  0  0  0  0  0  0  0  0  0
  2  5  1  0
  5  8  2  0
  5  9  1  0
  9 10  1  0
  4 11  1  0
 11 12  1  0
 11 13  2  0
 14 15  1  0
  9 17  1  0
 16 17  1  0
 16 18  1  0
 18 19  1  0
 18 20  1  0
 18 21  1  0
 12 22  1  0
 14 23  1  0
 23 24  2  0
 23 25  1  0
 22 26  1  0
 10 14  1  0
 15 16  1  0
  1  2  2  0
  2  7  1  0
  7  6  2  0
  6  4  1  0
  4  3  2  0
  3  1  1  0
M  END

$$$$
