No_5-gen_results/8p0m/2024-11-26-14-13-15/
     RDKit          3D

 19 21  0  0  0  0  0  0  0  0999 V2000
  -28.0162   -0.8135   28.8779 C   0  0  0  0  0  0  0  0  0  0  0  0
  -28.4690   -0.7850   29.8287 C   0  0  0  0  0  0  0  0  0  0  0  0
  -27.0871    0.2903   28.6377 C   0  0  0  0  0  0  0  0  0  0  0  0
  -26.9102    0.8486   27.4199 C   0  0  0  0  0  0  0  0  0  0  0  0
  -29.6069   -1.6266   30.1338 C   0  0  0  0  0  0  0  0  0  0  0  0
  -27.6424    1.1427   26.6727 C   0  0  0  0  0  0  0  0  0  0  0  0
  -29.0200    1.0855   26.9318 C   0  0  0  0  0  0  0  0  0  0  0  0
  -27.8992   -0.1613   31.1078 C   0  0  0  0  0  0  0  0  0  0  0  0
  -28.4494   -0.3742   32.4597 C   0  0  0  0  0  0  0  0  0  0  0  0
  -30.0999   -1.9309   31.4324 N   0  0  0  0  0  0  0  0  0  0  0  0
  -29.5822   -1.2164   32.5389 C   0  0  0  0  0  0  0  0  0  0  0  0
  -26.2752    0.6536   29.7960 C   0  0  0  0  0  0  0  0  0  0  0  0
  -26.7772    0.5668   30.9642 C   0  0  0  0  0  0  0  0  0  0  0  0
  -30.0753    1.4608   25.9939 C   0  0  0  0  0  0  0  0  0  0  0  0
  -31.3922    1.3724   26.2717 C   0  0  0  0  0  0  0  0  0  0  0  0
  -31.7668    0.7985   27.4970 C   0  0  0  0  0  0  0  0  0  0  0  0
  -30.8181    0.4615   28.4429 C   0  0  0  0  0  0  0  0  0  0  0  0
  -29.5195    0.6047   28.1764 C   0  0  0  0  0  0  0  0  0  0  0  0
  -29.7941    2.1689   29.0175 Cl  0  0  0  0  0  0  0  0  0  0  0  0
  1  2  1  0
  1  3  1  0
  3  4  1  0
  4  6  2  3
  6  7  1  0
  3 12  1  0
  8 13  1  0
 12 13  1  0
 18 19  1  0
  2  5  2  0
  5 10  1  0
 10 11  2  0
 11  9  1  0
  9  8  2  0
  8  2  1  0
  7 14  2  0
 14 15  1  0
 15 16  2  0
 16 17  1  0
 17 18  2  0
 18  7  1  0
M  END

$$$$
