No_588-gen_results/8p0m/2024-11-26-14-13-15/
     RDKit          3D

 27 29  0  0  0  0  0  0  0  0999 V2000
  -28.1229   -1.3353   28.4874 O   0  0  0  0  0  0  0  0  0  0  0  0
  -27.4806   -0.4044   28.7094 C   0  0  0  0  0  0  0  0  0  0  0  0
  -26.3804   -0.0867   27.9394 C   0  0  0  0  0  0  0  0  0  0  0  0
  -27.8993    0.6459   29.6321 N   0  0  0  0  0  0  0  0  0  0  0  0
  -25.1243   -0.5319   28.3714 C   0  0  0  0  0  0  0  0  0  0  0  0
  -24.8017   -1.7099   28.7916 C   0  0  0  0  0  0  0  0  0  0  0  0
  -23.5023   -2.1464   29.1648 C   0  0  0  0  0  0  0  0  0  0  0  0
  -22.4857   -1.2326   28.9778 C   0  0  0  0  0  0  0  0  0  0  0  0
  -22.6675    0.0798   28.5081 C   0  0  0  0  0  0  0  0  0  0  0  0
  -24.0180    0.4307   28.2009 C   0  0  0  0  0  0  0  0  0  0  0  0
  -27.2731    1.9087   29.8370 C   0  0  0  0  0  0  0  0  0  0  0  0
  -26.9108    2.6028   29.0029 C   0  0  0  0  0  0  0  0  0  0  0  0
  -26.2172    3.8879   29.2600 C   0  0  0  0  0  0  0  0  0  0  0  0
  -25.9207    4.1789   30.6055 C   0  0  0  0  0  0  0  0  0  0  0  0
  -26.3047    3.2745   31.6172 C   0  0  0  0  0  0  0  0  0  0  0  0
  -26.9677    2.0947   31.2758 C   0  0  0  0  0  0  0  0  0  0  0  0
  -25.7525    4.8051   28.2276 C   0  0  0  0  0  0  0  0  0  0  0  0
  -25.5533    6.3002   28.4888 Cl  0  0  0  0  0  0  0  0  0  0  0  0
  -25.3978    4.2905   27.0378 O   0  0  0  0  0  0  0  0  0  0  0  0
  -28.8246    0.1421   30.6674 C   0  0  0  0  0  0  0  0  0  0  0  0
  -26.5653    0.4477   26.6250 C   0  0  0  0  0  0  0  0  0  0  0  0
  -30.0370    0.9299   30.6082 C   0  0  0  0  0  0  0  0  0  0  0  0
  -30.9386    0.5527   31.4047 C   0  0  0  0  0  0  0  0  0  0  0  0
  -30.8015   -0.5919   32.2350 C   0  0  0  0  0  0  0  0  0  0  0  0
  -29.6466   -1.3415   32.1973 C   0  0  0  0  0  0  0  0  0  0  0  0
  -28.6042   -0.9315   31.3736 C   0  0  0  0  0  0  0  0  0  0  0  0
  -25.4949    0.3176   25.7439 C   0  0  0  0  0  0  0  0  0  0  0  0
  1  2  2  0
  2  3  1  0
  2  4  1  0
  3  5  1  0
  4 11  1  0
 13 17  1  0
 17 18  1  0
 17 19  2  0
  4 20  1  0
  3 21  1  0
 21 27  2  0
 11 12  2  0
 12 13  1  0
 13 14  2  0
 14 15  1  0
 15 16  2  0
 16 11  1  0
  5  6  2  0
  6  7  1  0
  7  8  2  0
  8  9  1  0
  9 10  2  0
 10  5  1  0
 20 22  2  0
 22 23  1  0
 23 24  2  0
 24 25  1  0
 25 26  2  0
 26 20  1  0
M  END

$$$$
