No_501-gen_results/8p0m/2024-11-26-14-13-15/
     RDKit          3D

 35 38  0  0  0  0  0  0  0  0999 V2000
  -28.0162   -0.8135   28.8779 C   0  0  0  0  0  0  0  0  0  0  0  0
  -27.0636   -0.1190   28.6079 C   0  0  0  0  0  0  0  0  0  0  0  0
  -27.0010    0.6913   27.4910 C   0  0  0  0  0  0  0  0  0  0  0  0
  -25.8548    1.4825   27.0830 C   0  0  0  0  0  0  0  0  0  0  0  0
  -24.6901    1.4526   27.8807 C   0  0  0  0  0  0  0  0  0  0  0  0
  -24.7379    0.6010   29.0416 C   0  0  0  0  0  0  0  0  0  0  0  0
  -25.8234   -0.1688   29.3887 C   0  0  0  0  0  0  0  0  0  0  0  0
  -28.0352   -1.4960   30.2343 C   0  0  0  0  0  0  0  0  0  0  0  0
  -26.8424   -1.7341   30.9037 C   0  0  0  0  0  0  0  0  0  0  0  0
  -25.7456   -0.9655   30.5714 C   0  0  0  0  0  0  0  0  0  0  0  0
  -28.0939    0.7867   26.5026 C   0  0  0  0  0  0  0  0  0  0  0  0
  -29.0417    0.4080   26.6294 O   0  0  0  0  0  0  0  0  0  0  0  0
  -27.8814    1.7026   25.4781 N   0  0  0  0  0  0  0  0  0  0  0  0
  -28.8763    1.8785   24.4100 C   0  0  0  0  0  0  0  0  0  0  0  0
  -23.4256    0.5923   29.8585 C   0  0  0  0  0  0  0  0  0  0  0  0
  -22.3419   -0.2113   29.4120 C   0  0  0  0  0  0  0  0  0  0  0  0
  -23.5188    2.2640   27.5220 C   0  0  0  0  0  0  0  0  0  0  0  0
  -22.7839    2.7197   28.3439 O   0  0  0  0  0  0  0  0  0  0  0  0
  -23.3184    2.6322   26.2814 O   0  0  0  0  0  0  0  0  0  0  0  0
  -29.2929    3.1036   24.3574 C   0  0  0  0  0  0  0  0  0  0  0  0
  -30.3743    3.4884   25.1327 C   0  0  0  0  0  0  0  0  0  0  0  0
  -30.9633    4.6724   25.0853 C   0  0  0  0  0  0  0  0  0  0  0  0
  -31.9563    5.1409   26.0207 C   0  0  0  0  0  0  0  0  0  0  0  0
  -32.3510    4.1987   27.0034 C   0  0  0  0  0  0  0  0  0  0  0  0
  -31.7367    2.9804   27.0921 C   0  0  0  0  0  0  0  0  0  0  0  0
  -30.7625    2.6453   26.2596 C   0  0  0  0  0  0  0  0  0  0  0  0
  -29.2205   -2.3310   30.5899 C   0  0  0  0  0  0  0  0  0  0  0  0
  -29.1891   -3.4591   30.7775 O   0  0  0  0  0  0  0  0  0  0  0  0
  -30.4227   -1.6728   30.6291 N   0  0  0  0  0  0  0  0  0  0  0  0
  -30.6785   -0.2944   30.4405 C   0  0  0  0  0  0  0  0  0  0  0  0
  -32.0809   -0.0175   30.2161 C   0  0  0  0  0  0  0  0  0  0  0  0
  -32.7649   -0.4829   29.5697 C   0  0  0  0  0  0  0  0  0  0  0  0
  -32.5028   -1.9476   29.2796 C   0  0  0  0  0  0  0  0  0  0  0  0
  -31.4352   -2.4403   29.8657 C   0  0  0  0  0  0  0  0  0  0  0  0
  -23.4307    1.2590   31.0987 C   0  0  0  0  0  0  0  0  0  0  0  0
  3 11  1  0
 11 12  2  0
 11 13  1  0
 13 14  1  0
  6 15  1  0
 15 16  1  0
  5 17  1  0
 17 18  1  0
 17 19  2  0
 14 20  1  0
 20 21  1  0
  8 27  1  0
 27 28  2  0
 27 29  1  0
 29 30  1  0
 31 32  1  0
 29 34  1  0
 33 34  1  0
 15 35  1  0
 30 31  1  0
 32 33  1  0
  2  3  1  0
  3  4  2  0
  4  5  1  0
  5  6  2  0
  6  7  1  0
  1  2  2  0
  2  7  1  0
  7 10  2  0
 10  9  1  0
  9  8  2  0
  8  1  1  0
 21 22  2  0
 22 23  1  0
 23 24  2  0
 24 25  1  0
 25 26  2  0
 26 21  1  0
M  END

$$$$
