No_59-gen_results/8p0m/2024-11-26-14-13-15/
     RDKit          3D

 23 24  0  0  0  0  0  0  0  0999 V2000
  -28.0162   -0.8135   28.8779 C   0  0  0  0  0  0  0  0  0  0  0  0
  -27.0636   -0.1190   28.6079 C   0  0  0  0  0  0  0  0  0  0  0  0
  -25.7923   -0.4302   29.0761 C   0  0  0  0  0  0  0  0  0  0  0  0
  -25.5756   -1.5654   29.9363 C   0  0  0  0  0  0  0  0  0  0  0  0
  -26.7354   -2.3004   30.2173 C   0  0  0  0  0  0  0  0  0  0  0  0
  -27.9184   -1.9537   29.7629 C   0  0  0  0  0  0  0  0  0  0  0  0
  -29.0001   -2.7012   30.1151 O   0  0  0  0  0  0  0  0  0  0  0  0
  -24.5290    0.3490   28.7998 C   0  0  0  0  0  0  0  0  0  0  0  0
  -23.3442    0.0060   29.1658 C   0  0  0  0  0  0  0  0  0  0  0  0
  -22.1783    0.7811   28.7783 C   0  0  0  0  0  0  0  0  0  0  0  0
  -22.3217    1.7499   27.7727 C   0  0  0  0  0  0  0  0  0  0  0  0
  -24.6102    1.3558   27.7479 C   0  0  0  0  0  0  0  0  0  0  0  0
  -23.5148    2.0341   27.3068 C   0  0  0  0  0  0  0  0  0  0  0  0
  -28.8769   -3.9644   30.6079 C   0  0  0  0  0  0  0  0  0  0  0  0
  -30.1232   -4.6748   30.7699 C   0  0  0  0  0  0  0  0  0  0  0  0
  -29.9997   -5.6875   31.4228 O   0  0  0  0  0  0  0  0  0  0  0  0
  -31.1914   -4.3855   30.1298 N   0  0  0  0  0  0  0  0  0  0  0  0
  -32.3657   -5.1850   30.1682 C   0  0  0  0  0  0  0  0  0  0  0  0
  -33.1239   -4.9460   29.1715 C   0  0  0  0  0  0  0  0  0  0  0  0
  -33.9342   -5.4578   28.5987 C   0  0  0  0  0  0  0  0  0  0  0  0
  -34.7330   -5.0791   27.3448 C   0  0  0  0  0  0  0  0  0  0  0  0
  -34.3442   -3.8493   26.7734 C   0  0  0  0  0  0  0  0  0  0  0  0
  -33.2956   -3.1446   27.2707 C   0  0  0  0  0  0  0  0  0  0  0  0
  6  7  1  0
  3  8  1  0
  7 14  1  0
 14 15  1  0
 15 16  2  0
 15 17  1  0
 17 18  1  0
 18 19  2  3
 19 20  1  0
 20 21  2  3
 21 22  1  0
 22 23  2  0
  1  2  2  0
  2  3  1  0
  3  4  2  0
  4  5  1  0
  5  6  2  0
  6  1  1  0
  8  9  2  0
  9 10  1  0
 10 11  2  0
 11 13  1  0
 13 12  2  0
 12  8  1  0
M  END

$$$$
