No_572-gen_results/8p0m/2024-11-26-14-13-15/
     RDKit          3D

 15 15  0  0  0  0  0  0  0  0999 V2000
  -28.1229   -1.3353   28.4874 O   0  0  0  0  0  0  0  0  0  0  0  0
  -27.4806   -0.4044   28.7094 C   0  0  0  0  0  0  0  0  0  0  0  0
  -26.3804   -0.0867   27.9394 C   0  0  0  0  0  0  0  0  0  0  0  0
  -27.4232    0.1749   30.0549 N   0  0  0  0  0  0  0  0  0  0  0  0
  -25.9519    0.8314   27.9170 N   0  0  0  0  0  0  0  0  0  0  0  0
  -28.3248   -0.0966   31.0208 C   0  0  0  0  0  0  0  0  0  0  0  0
  -24.8491    1.3073   27.1139 C   0  0  0  0  0  0  0  0  0  0  0  0
  -25.0654    1.5501   25.9044 C   0  0  0  0  0  0  0  0  0  0  0  0
  -23.5438    1.5821   27.6541 C   0  0  0  0  0  0  0  0  0  0  0  0
  -23.1667    1.4318   29.0545 C   0  0  0  0  0  0  0  0  0  0  0  0
  -23.9138    1.8200   25.0238 C   0  0  0  0  0  0  0  0  0  0  0  0
  -22.7103    2.1843   25.4995 C   0  0  0  0  0  0  0  0  0  0  0  0
  -22.4822    2.0616   26.7925 C   0  0  0  0  0  0  0  0  0  0  0  0
  -22.4859    0.4702   29.4588 O   0  0  0  0  0  0  0  0  0  0  0  0
  -24.0661    1.9916   30.0296 O   0  0  0  0  0  0  0  0  0  0  0  0
  1  2  2  0
  2  3  1  0
  2  4  1  0
  3  5  2  3
  4  6  1  0
  5  7  1  0
  9 10  1  0
 10 14  2  0
 10 15  1  0
  7  8  2  0
  8 11  1  0
 11 12  2  0
 12 13  1  0
 13  9  2  0
  9  7  1  0
M  END

$$$$
