No_526-gen_results/8p0m/2024-11-26-14-13-15/
     RDKit          3D

 24 26  0  0  0  0  0  0  0  0999 V2000
  -28.0162   -0.8135   28.8779 C   0  0  0  0  0  0  0  0  0  0  0  0
  -27.0636   -0.1190   28.6079 C   0  0  0  0  0  0  0  0  0  0  0  0
  -26.9287    1.1713   29.0083 C   0  0  0  0  0  0  0  0  0  0  0  0
  -27.9560    1.7411   29.7840 C   0  0  0  0  0  0  0  0  0  0  0  0
  -29.0569   -0.3271   29.7466 C   0  0  0  0  0  0  0  0  0  0  0  0
  -28.9828    0.9722   30.1516 C   0  0  0  0  0  0  0  0  0  0  0  0
  -25.8907   -0.6263   27.7857 C   0  0  0  0  0  0  0  0  0  0  0  0
  -24.5686   -0.1994   28.1996 C   0  0  0  0  0  0  0  0  0  0  0  0
  -24.3830    1.1808   28.3462 C   0  0  0  0  0  0  0  0  0  0  0  0
  -25.6030    1.8144   29.0598 C   0  0  0  0  0  0  0  0  0  0  0  0
  -23.1198    1.7971   28.3702 C   0  0  0  0  0  0  0  0  0  0  0  0
  -21.9003    1.1268   28.1408 Cl  0  0  0  0  0  0  0  0  0  0  0  0
  -25.3345    3.1866   29.5428 C   0  0  0  0  0  0  0  0  0  0  0  0
  -26.4403    3.7571   29.6594 O   0  0  0  0  0  0  0  0  0  0  0  0
  -26.4618    4.9567   29.0034 C   0  0  0  0  0  0  0  0  0  0  0  0
  -26.7545    5.9678   29.5396 C   0  0  0  0  0  0  0  0  0  0  0  0
  -27.0307    6.1435   30.7212 C   0  0  0  0  0  0  0  0  0  0  0  0
  -27.3415    7.4102   31.4542 C   0  0  0  0  0  0  0  0  0  0  0  0
  -27.2999    8.5349   30.6368 C   0  0  0  0  0  0  0  0  0  0  0  0
  -26.9616    8.4957   29.3315 C   0  0  0  0  0  0  0  0  0  0  0  0
  -26.6444    7.2155   28.7412 C   0  0  0  0  0  0  0  0  0  0  0  0
  -26.1826    4.7917   27.7183 O   0  0  0  0  0  0  0  0  0  0  0  0
  -30.0289    1.4871   30.8242 F   0  0  0  0  0  0  0  0  0  0  0  0
  -23.1732    3.1723   28.2103 O   0  0  0  0  0  0  0  0  0  0  0  0
  9 11  1  0
 11 12  1  0
 10 13  1  0
 13 14  1  0
 14 15  1  0
 15 16  1  0
 15 22  2  0
  6 23  1  0
 11 24  2  0
  1  2  2  0
  3  4  2  0
  4  6  1  0
  6  5  2  0
  5  1  1  0
  2  3  1  0
  3 10  1  0
 10  9  2  0
  9  8  1  0
  8  7  2  0
  7  2  1  0
 16 17  2  0
 17 18  1  0
 18 19  2  0
 19 20  1  0
 20 21  2  0
 21 16  1  0
M  END

$$$$
