No_590-gen_results/8p0m/2024-11-26-14-13-15/
     RDKit          3D

 25 28  0  0  0  0  0  0  0  0999 V2000
  -28.0162   -0.8135   28.8779 C   0  0  0  0  0  0  0  0  0  0  0  0
  -27.0636   -0.1189   28.6079 C   0  0  0  0  0  0  0  0  0  0  0  0
  -25.7647   -0.3897   29.0360 C   0  0  0  0  0  0  0  0  0  0  0  0
  -25.5296   -1.5302   29.9014 C   0  0  0  0  0  0  0  0  0  0  0  0
  -26.6888   -2.2893   30.1810 C   0  0  0  0  0  0  0  0  0  0  0  0
  -27.8727   -1.9508   29.7373 C   0  0  0  0  0  0  0  0  0  0  0  0
  -29.2926   -2.7683   30.1523 Cl  0  0  0  0  0  0  0  0  0  0  0  0
  -24.5222    0.4049   28.7207 C   0  0  0  0  0  0  0  0  0  0  0  0
  -24.5188    1.2797   27.7144 C   0  0  0  0  0  0  0  0  0  0  0  0
  -23.3093    1.9750   27.3888 C   0  0  0  0  0  0  0  0  0  0  0  0
  -22.1138    1.7462   28.0009 C   0  0  0  0  0  0  0  0  0  0  0  0
  -23.2683    0.1365   29.3691 C   0  0  0  0  0  0  0  0  0  0  0  0
  -22.0832    0.8183   29.0129 C   0  0  0  0  0  0  0  0  0  0  0  0
  -23.3806    2.9007   26.3595 O   0  0  0  0  0  0  0  0  0  0  0  0
  -24.2703    2.4515   25.3903 C   0  0  0  0  0  0  0  0  0  0  0  0
  -25.4534    1.4455   26.8509 N   0  0  0  0  0  0  0  0  0  0  0  0
  -25.3841    2.0483   25.6735 C   0  0  0  0  0  0  0  0  0  0  0  0
  -26.4331    2.0216   24.8540 N   0  0  0  0  0  0  0  0  0  0  0  0
  -27.5669    2.6758   25.1028 C   0  0  0  0  0  0  0  0  0  0  0  0
  -28.7878    2.1599   25.1477 C   0  0  0  0  0  0  0  0  0  0  0  0
  -29.0190    0.8388   24.8518 C   0  0  0  0  0  0  0  0  0  0  0  0
  -30.2553    0.1724   24.9150 C   0  0  0  0  0  0  0  0  0  0  0  0
  -31.3427    0.9379   25.2898 C   0  0  0  0  0  0  0  0  0  0  0  0
  -31.2520    2.2901   25.5546 C   0  0  0  0  0  0  0  0  0  0  0  0
  -29.9914    2.9533   25.5174 C   0  0  0  0  0  0  0  0  0  0  0  0
  6  7  1  0
  3  8  1  0
 10 14  1  0
 14 15  1  0
  9 16  1  0
 15 17  1  0
 16 17  2  0
 17 18  1  0
 18 19  1  0
 19 20  1  0
  1  2  2  0
  2  3  1  0
  3  4  2  0
  4  5  1  0
  5  6  2  0
  6  1  1  0
 20 21  2  0
 21 22  1  0
 22 23  2  0
 23 24  1  0
 24 25  2  0
 25 20  1  0
  8  9  2  0
  9 10  1  0
 10 11  2  0
 11 13  1  0
 13 12  2  0
 12  8  1  0
M  END

$$$$
