No_56-gen_results/8p0m/2024-11-26-14-13-15/
     RDKit          3D

 25 26  0  0  0  0  0  0  0  0999 V2000
  -28.0162   -0.8135   28.8779 C   0  0  0  0  0  0  0  0  0  0  0  0
  -27.0636   -0.1190   28.6079 C   0  0  0  0  0  0  0  0  0  0  0  0
  -26.9716    0.7139   27.5060 C   0  0  0  0  0  0  0  0  0  0  0  0
  -28.1053    0.7744   26.6421 C   0  0  0  0  0  0  0  0  0  0  0  0
  -29.2041    0.1179   27.0477 C   0  0  0  0  0  0  0  0  0  0  0  0
  -29.2127   -0.6088   28.1281 C   0  0  0  0  0  0  0  0  0  0  0  0
  -30.3709    0.2326   26.1381 C   0  0  0  0  0  0  0  0  0  0  0  0
  -30.8796    1.3071   26.1221 F   0  0  0  0  0  0  0  0  0  0  0  0
  -30.0034   -0.1132   24.8849 F   0  0  0  0  0  0  0  0  0  0  0  0
  -31.3082   -0.7110   26.3839 F   0  0  0  0  0  0  0  0  0  0  0  0
  -25.6709    1.4257   27.1247 C   0  0  0  0  0  0  0  0  0  0  0  0
  -25.1867    2.3475   28.1101 C   0  0  0  0  0  0  0  0  0  0  0  0
  -24.1686    2.5466   28.5923 C   0  0  0  0  0  0  0  0  0  0  0  0
  -26.2046    3.5079   28.3267 C   0  0  0  0  0  0  0  0  0  0  0  0
  -22.9839    1.7875   28.1241 C   0  0  0  0  0  0  0  0  0  0  0  0
  -26.1238    4.2457   29.3522 N   0  0  0  0  0  0  0  0  0  0  0  0
  -26.3274    5.6113   29.1491 C   0  0  0  0  0  0  0  0  0  0  0  0
  -22.2570    2.0297   27.4446 O   0  0  0  0  0  0  0  0  0  0  0  0
  -22.8389    0.6362   28.8911 O   0  0  0  0  0  0  0  0  0  0  0  0
  -26.1196    3.7986   30.6597 C   0  0  0  0  0  0  0  0  0  0  0  0
  -27.1041    3.6613   27.5021 O   0  0  0  0  0  0  0  0  0  0  0  0
  -25.6389    4.5854   31.5801 C   0  0  0  0  0  0  0  0  0  0  0  0
  -25.7836    6.5573   30.2079 C   0  0  0  0  0  0  0  0  0  0  0  0
  -25.5945    6.0011   31.5022 C   0  0  0  0  0  0  0  0  0  0  0  0
  -21.6471    0.0375   29.0200 C   0  0  0  0  0  0  0  0  0  0  0  0
  5  7  1  0
  7  8  1  0
  7  9  1  0
  7 10  1  0
  3 11  1  0
 11 12  1  0
 12 13  2  3
 12 14  1  0
 13 15  1  0
 14 16  1  0
 16 17  1  0
 15 18  2  0
 15 19  1  0
 16 20  1  0
 14 21  2  0
 22 24  1  0
 23 24  1  0
 19 25  1  0
 17 23  1  0
 22 20  1  0
  1  2  2  0
  2  3  1  0
  3  4  2  0
  4  5  1  0
  5  6  2  0
  6  1  1  0
M  END

$$$$
