No_592-gen_results/8p0m/2024-11-26-14-13-15/
     RDKit          3D

 17 17  0  0  0  0  0  0  0  0999 V2000
  -28.0162   -0.8135   28.8779 C   0  0  0  0  0  0  0  0  0  0  0  0
  -27.0636   -0.1190   28.6079 C   0  0  0  0  0  0  0  0  0  0  0  0
  -26.8756    1.1325   28.9134 C   0  0  0  0  0  0  0  0  0  0  0  0
  -25.6883    1.9515   28.5672 C   0  0  0  0  0  0  0  0  0  0  0  0
  -24.6394    1.2834   27.8753 C   0  0  0  0  0  0  0  0  0  0  0  0
  -24.8068   -0.0513   27.6040 C   0  0  0  0  0  0  0  0  0  0  0  0
  -25.9019   -0.7670   27.9511 C   0  0  0  0  0  0  0  0  0  0  0  0
  -28.6455   -0.5282   30.2428 C   0  0  0  0  0  0  0  0  0  0  0  0
  -29.5544   -1.0303   30.6491 C   0  0  0  0  0  0  0  0  0  0  0  0
  -30.3077   -1.8299   29.9524 C   0  0  0  0  0  0  0  0  0  0  0  0
  -31.4849   -1.7536   29.8611 C   0  0  0  0  0  0  0  0  0  0  0  0
  -23.4477    1.9814   27.4639 C   0  0  0  0  0  0  0  0  0  0  0  0
  -22.2614    2.2537   27.7898 N   0  0  0  0  0  0  0  0  0  0  0  0
  -23.6516    2.5811   26.1242 N   0  0  0  0  0  0  0  0  0  0  0  0
  -32.1721   -2.4938   28.8787 C   0  0  0  0  0  0  0  0  0  0  0  0
  -32.0552   -3.8924   28.9084 C   0  0  0  0  0  0  0  0  0  0  0  0
  -30.7859   -4.3452   29.5227 C   0  0  0  0  0  0  0  0  0  0  0  0
  1  2  2  3
  2  3  1  0
  3  4  1  0
  4  5  1  0
  5  6  1  0
  2  7  1  0
  6  7  1  0
  1  8  1  0
  8  9  2  3
  9 10  1  0
 10 11  2  3
  5 12  1  0
 12 13  2  0
 12 14  1  0
 11 15  1  0
 15 16  2  3
 16 17  1  0
M  END

$$$$
