No_532-gen_results/8p0m/2024-11-26-14-13-15/
     RDKit          3D

 12 13  0  0  0  0  0  0  0  0999 V2000
  -28.0162   -0.8135   28.8779 C   0  0  0  0  0  0  0  0  0  0  0  0
  -28.4690   -0.7850   29.8287 C   0  0  0  0  0  0  0  0  0  0  0  0
  -26.6028   -1.0596   28.5384 C   0  0  0  0  0  0  0  0  0  0  0  0
  -25.8256   -0.8652   29.3179 C   0  0  0  0  0  0  0  0  0  0  0  0
  -26.1565   -0.7096   30.7868 C   0  0  0  0  0  0  0  0  0  0  0  0
  -27.5376   -0.6378   31.0131 C   0  0  0  0  0  0  0  0  0  0  0  0
  -24.2957   -0.9637   29.2279 C   0  0  0  0  0  0  0  0  0  0  0  0
  -23.4212   -1.8183   29.5059 C   0  0  0  0  0  0  0  0  0  0  0  0
  -23.7630    0.2622   28.4704 C   0  0  0  0  0  0  0  0  0  0  0  0
  -22.3644    0.3963   28.3454 C   0  0  0  0  0  0  0  0  0  0  0  0
  -22.0114   -1.7185   29.3506 C   0  0  0  0  0  0  0  0  0  0  0  0
  -21.4988   -0.5335   28.8090 C   0  0  0  0  0  0  0  0  0  0  0  0
  4  7  1  0
  1  2  2  0
  2  6  1  0
  6  5  2  0
  5  4  1  0
  4  3  2  0
  3  1  1  0
  7  8  2  0
  8 11  1  0
 11 12  2  0
 12 10  1  0
 10  9  2  0
  9  7  1  0
M  END

$$$$
