No_516-gen_results/8p0m/2024-11-26-14-13-15/
     RDKit          3D

  9  9  0  0  0  0  0  0  0  0999 V2000
  -28.1229   -1.3353   28.4874 O   0  0  0  0  0  0  0  0  0  0  0  0
  -27.4806   -0.4044   28.7094 C   0  0  0  0  0  0  0  0  0  0  0  0
  -27.1904    0.2460   29.5268 C   0  0  0  0  0  0  0  0  0  0  0  0
  -26.6021   -0.1576   27.5515 N   0  0  0  0  0  0  0  0  0  0  0  0
  -25.6421    0.9031   27.5822 C   0  0  0  0  0  0  0  0  0  0  0  0
  -26.2526    1.3734   29.7933 C   0  0  0  0  0  0  0  0  0  0  0  0
  -25.4742    1.6549   28.6932 C   0  0  0  0  0  0  0  0  0  0  0  0
  -28.0115    0.0221   30.9260 C   0  0  0  0  0  0  0  0  0  0  0  0
  -28.5733   -1.0641   31.0536 C   0  0  0  0  0  0  0  0  0  0  0  0
  1  2  2  0
  2  3  1  0
  2  4  1  0
  3  6  1  0
  5  7  1  0
  3  8  1  0
  8  9  2  0
  6  7  1  0
  5  4  1  0
M  END

$$$$
