No_591-gen_results/8p0m/2024-11-26-14-13-15/
     RDKit          3D

 28 31  0  0  0  0  0  0  0  0999 V2000
  -28.1229   -1.3353   28.4874 O   0  0  0  0  0  0  0  0  0  0  0  0
  -28.5208   -0.4363   29.0779 C   0  0  0  0  0  0  0  0  0  0  0  0
  -28.5894    0.5916   28.9464 C   0  0  0  0  0  0  0  0  0  0  0  0
  -29.3752   -0.9434   30.2659 N   0  0  0  0  0  0  0  0  0  0  0  0
  -27.5822    1.2649   28.1478 C   0  0  0  0  0  0  0  0  0  0  0  0
  -26.2743    1.0474   28.5730 C   0  0  0  0  0  0  0  0  0  0  0  0
  -25.1577    1.0268   27.7540 C   0  0  0  0  0  0  0  0  0  0  0  0
  -23.9246    0.5377   28.2138 C   0  0  0  0  0  0  0  0  0  0  0  0
  -23.8212   -0.0618   29.5042 C   0  0  0  0  0  0  0  0  0  0  0  0
  -24.9070   -0.1145   30.2741 C   0  0  0  0  0  0  0  0  0  0  0  0
  -26.1115    0.3393   29.8455 C   0  0  0  0  0  0  0  0  0  0  0  0
  -29.6099   -2.1863   30.6650 C   0  0  0  0  0  0  0  0  0  0  0  0
  -30.3860   -2.8481   30.5527 C   0  0  0  0  0  0  0  0  0  0  0  0
  -30.4509   -4.3343   30.8912 C   0  0  0  0  0  0  0  0  0  0  0  0
  -29.2393   -4.9141   31.3323 C   0  0  0  0  0  0  0  0  0  0  0  0
  -28.1070   -4.1520   31.2063 C   0  0  0  0  0  0  0  0  0  0  0  0
  -28.1472   -2.7785   30.8836 C   0  0  0  0  0  0  0  0  0  0  0  0
  -30.4258    0.0439   30.6125 C   0  0  0  0  0  0  0  0  0  0  0  0
  -30.7712   -0.1926   31.8777 C   0  0  0  0  0  0  0  0  0  0  0  0
  -31.1683    0.4649   32.7055 C   0  0  0  0  0  0  0  0  0  0  0  0
  -31.6204    0.1061   34.0749 C   0  0  0  0  0  0  0  0  0  0  0  0
  -31.4855   -1.2128   34.4115 C   0  0  0  0  0  0  0  0  0  0  0  0
  -30.9575   -2.0813   33.5228 C   0  0  0  0  0  0  0  0  0  0  0  0
  -30.5714   -1.6144   32.3088 C   0  0  0  0  0  0  0  0  0  0  0  0
  -30.3418   -2.5965   31.5663 C   0  0  0  0  0  0  0  0  0  0  0  0
  -30.9501   -3.5258   32.4956 F   0  0  0  0  0  0  0  0  0  0  0  0
  -31.2709   -5.0653   30.5112 F   0  0  0  0  0  0  0  0  0  0  0  0
  -29.8997   -2.4976   34.5249 C   0  0  0  0  0  0  0  0  0  0  0  0
  1  2  2  0
  2  3  1  0
  2  4  1  0
  3  5  1  0
  5  6  1  0
  4 12  1  0
  4 18  1  0
 13 25  1  0
 24 25  1  0
 25 26  1  0
 14 27  1  0
 23 28  1  0
 18 19  1  0
 12 13  1  0
 13 14  2  0
 14 15  1  0
 15 16  2  0
 16 17  1  0
 17 12  2  0
  6  7  2  0
  7  8  1  0
  8  9  2  0
  9 10  1  0
 10 11  2  0
 11  6  1  0
 19 20  2  0
 20 21  1  0
 21 22  2  0
 22 23  1  0
 23 24  2  0
 24 19  1  0
M  END

$$$$
