No_579-gen_results/8p0m/2024-11-26-14-13-15/
     RDKit          3D

 15 15  0  0  0  0  0  0  0  0999 V2000
  -28.0162   -0.8135   28.8779 C   0  0  0  0  0  0  0  0  0  0  0  0
  -28.4690   -0.7850   29.8287 C   0  0  0  0  0  0  0  0  0  0  0  0
  -26.5042   -0.7777   28.8766 C   0  0  0  0  0  0  0  0  0  0  0  0
  -25.8103   -0.8531   30.1028 C   0  0  0  0  0  0  0  0  0  0  0  0
  -27.9906   -0.8916   31.2257 C   0  0  0  0  0  0  0  0  0  0  0  0
  -26.6042   -0.8676   31.2652 C   0  0  0  0  0  0  0  0  0  0  0  0
  -23.9859   -0.7976   30.1716 Br  0  0  0  0  0  0  0  0  0  0  0  0
  -30.1025   -0.8345   29.8561 C   0  0  0  0  0  0  0  0  0  0  0  0
  -30.7539   -1.6035   29.9692 O   0  0  0  0  0  0  0  0  0  0  0  0
  -30.5886    0.4929   29.5860 N   0  0  0  0  0  0  0  0  0  0  0  0
  -31.9687    0.6897   29.4354 C   0  0  0  0  0  0  0  0  0  0  0  0
  -29.7342    1.6925   29.4281 C   0  0  0  0  0  0  0  0  0  0  0  0
  -29.8479    2.5685   30.5239 C   0  0  0  0  0  0  0  0  0  0  0  0
  -30.5566    2.8396   31.2426 C   0  0  0  0  0  0  0  0  0  0  0  0
  -30.4805    3.8492   32.2926 C   0  0  0  0  0  0  0  0  0  0  0  0
  4  7  1  0
  2  8  1  0
  8  9  2  0
  8 10  1  0
 10 11  1  0
 10 12  1  0
 12 13  1  0
 13 14  2  3
 14 15  1  0
  1  2  2  0
  2  5  1  0
  5  6  2  0
  6  4  1  0
  4  3  2  0
  3  1  1  0
M  END

$$$$
