No_550-gen_results/8p0m/2024-11-26-14-13-15/
     RDKit          3D

 18 19  0  0  0  0  0  0  0  0999 V2000
  -28.0162   -0.8135   28.8779 C   0  0  0  0  0  0  0  0  0  0  0  0
  -27.0636   -0.1189   28.6079 C   0  0  0  0  0  0  0  0  0  0  0  0
  -25.7647   -0.3897   29.0360 C   0  0  0  0  0  0  0  0  0  0  0  0
  -25.5296   -1.5302   29.9014 C   0  0  0  0  0  0  0  0  0  0  0  0
  -26.6577   -2.2915   30.2035 C   0  0  0  0  0  0  0  0  0  0  0  0
  -27.8548   -1.9555   29.7630 C   0  0  0  0  0  0  0  0  0  0  0  0
  -24.5349    0.4128   28.7431 C   0  0  0  0  0  0  0  0  0  0  0  0
  -24.0543    1.3255   29.5757 C   0  0  0  0  0  0  0  0  0  0  0  0
  -22.9412    2.1456   29.2103 C   0  0  0  0  0  0  0  0  0  0  0  0
  -22.2591    1.9298   27.9819 C   0  0  0  0  0  0  0  0  0  0  0  0
  -23.6600    0.7128   27.5492 C   0  0  0  0  0  0  0  0  0  0  0  0
  -28.9957   -2.8090   30.1848 C   0  0  0  0  0  0  0  0  0  0  0  0
  -29.3387   -2.7829   31.2482 O   0  0  0  0  0  0  0  0  0  0  0  0
  -29.2229   -3.9479   29.5274 O   0  0  0  0  0  0  0  0  0  0  0  0
  -24.6375    1.5394   30.9881 C   0  0  0  0  0  0  0  0  0  0  0  0
  -24.7824    0.4601   32.0346 Cl  0  0  0  0  0  0  0  0  0  0  0  0
  -25.1536    2.8877   31.2099 C   0  0  0  0  0  0  0  0  0  0  0  0
  -25.1170    3.3354   32.2302 O   0  0  0  0  0  0  0  0  0  0  0  0
  3  7  1  0
  7  8  1  0
  8  9  2  0
  9 10  1  0
  7 11  1  0
 10 11  2  0
  6 12  1  0
 12 13  2  0
 12 14  1  0
  8 15  1  0
 15 16  1  0
 15 17  1  0
 17 18  2  0
  1  2  2  0
  2  3  1  0
  3  4  2  0
  4  5  1  0
  5  6  2  0
  6  1  1  0
M  END

$$$$
