No_509-gen_results/8p0m/2024-11-26-14-13-15/
     RDKit          3D

 12 13  0  0  0  0  0  0  0  0999 V2000
  -28.0162   -0.8135   28.8779 C   0  0  0  0  0  0  0  0  0  0  0  0
  -28.4690   -0.7850   29.8287 C   0  0  0  0  0  0  0  0  0  0  0  0
  -26.5455   -0.8762   28.8500 C   0  0  0  0  0  0  0  0  0  0  0  0
  -25.6825   -0.7773   27.6829 C   0  0  0  0  0  0  0  0  0  0  0  0
  -27.9181   -1.0034   31.1877 C   0  0  0  0  0  0  0  0  0  0  0  0
  -26.5308   -1.0794   31.2463 C   0  0  0  0  0  0  0  0  0  0  0  0
  -25.7798   -1.0462   30.0905 C   0  0  0  0  0  0  0  0  0  0  0  0
  -24.3676   -0.2501   27.7917 C   0  0  0  0  0  0  0  0  0  0  0  0
  -23.6808   -0.4762   29.0175 C   0  0  0  0  0  0  0  0  0  0  0  0
  -24.3689   -0.7866   30.1443 C   0  0  0  0  0  0  0  0  0  0  0  0
  -22.2194   -0.1933   29.0554 C   0  0  0  0  0  0  0  0  0  0  0  0
  -21.3334    0.7023   28.9229 N   0  0  0  0  0  0  0  0  0  0  0  0
  9 11  1  0
 11 12  3  0
  1  2  2  0
  2  5  1  0
  5  6  2  0
  6  7  1  0
  3  1  1  0
  3  4  2  0
  4  8  1  0
  8  9  2  0
  9 10  1  0
 10  7  2  0
  7  3  1  0
M  END

$$$$
