No_594-gen_results/8p0m/2024-11-26-14-13-15/
     RDKit          3D

 21 24  0  0  0  0  0  0  0  0999 V2000
  -28.0162   -0.8135   28.8779 C   0  0  0  0  0  0  0  0  0  0  0  0
  -27.0636   -0.1189   28.6079 C   0  0  0  0  0  0  0  0  0  0  0  0
  -27.0010    0.6913   27.4910 C   0  0  0  0  0  0  0  0  0  0  0  0
  -25.8548    1.4825   27.0830 C   0  0  0  0  0  0  0  0  0  0  0  0
  -25.8227    2.3296   25.9941 C   0  0  0  0  0  0  0  0  0  0  0  0
  -29.2749   -0.4841   28.3563 C   0  0  0  0  0  0  0  0  0  0  0  0
  -29.3536    0.3686   27.3239 C   0  0  0  0  0  0  0  0  0  0  0  0
  -28.2055    1.0839   26.8491 C   0  0  0  0  0  0  0  0  0  0  0  0
  -24.5577    1.1970   27.7447 C   0  0  0  0  0  0  0  0  0  0  0  0
  -23.4078    1.8847   27.2660 C   0  0  0  0  0  0  0  0  0  0  0  0
  -22.2335    1.6715   27.9813 C   0  0  0  0  0  0  0  0  0  0  0  0
  -22.1624    0.7492   29.0204 C   0  0  0  0  0  0  0  0  0  0  0  0
  -23.2729   -0.0506   29.3976 C   0  0  0  0  0  0  0  0  0  0  0  0
  -24.4773    0.2245   28.7346 C   0  0  0  0  0  0  0  0  0  0  0  0
  -25.6599   -0.4383   29.1924 C   0  0  0  0  0  0  0  0  0  0  0  0
  -30.6475    0.6771   26.6660 C   0  0  0  0  0  0  0  0  0  0  0  0
  -31.6135    0.8688   27.1993 O   0  0  0  0  0  0  0  0  0  0  0  0
  -30.6198    0.7021   25.3341 O   0  0  0  0  0  0  0  0  0  0  0  0
  -25.5491   -1.5316   29.8479 O   0  0  0  0  0  0  0  0  0  0  0  0
  -23.4180    2.8522   26.2634 C   0  0  0  0  0  0  0  0  0  0  0  0
  -24.6786    3.0906   25.6322 C   0  0  0  0  0  0  0  0  0  0  0  0
  3  4  1  0
  2 15  1  0
 14 15  1  0
  7 16  1  0
 16 17  1  0
 16 18  2  0
 15 19  2  0
 10 11  2  0
 11 12  1  0
 12 13  2  0
 13 14  1  0
 14  9  2  0
  1  2  2  0
  2  3  1  0
  3  8  2  0
  8  7  1  0
  7  6  2  0
  6  1  1  0
  4  5  2  0
  5 21  1  0
 21 20  2  0
 20 10  1  0
 10  9  1  0
  9  4  1  0
M  END

$$$$
