No_599-gen_results/8p0m/2024-11-26-14-13-15/
     RDKit          3D

 16 17  0  0  0  0  0  0  0  0999 V2000
  -28.0162   -0.8135   28.8779 C   0  0  0  0  0  0  0  0  0  0  0  0
  -28.4690   -0.7850   29.8287 C   0  0  0  0  0  0  0  0  0  0  0  0
  -26.5042   -0.7777   28.8766 C   0  0  0  0  0  0  0  0  0  0  0  0
  -25.8103   -0.8531   30.1028 C   0  0  0  0  0  0  0  0  0  0  0  0
  -27.9906   -0.8916   31.2257 C   0  0  0  0  0  0  0  0  0  0  0  0
  -26.6042   -0.8676   31.2652 C   0  0  0  0  0  0  0  0  0  0  0  0
  -30.0739   -0.8360   29.8615 C   0  0  0  0  0  0  0  0  0  0  0  0
  -30.6891   -1.6554   30.2229 O   0  0  0  0  0  0  0  0  0  0  0  0
  -30.6022    0.4333   29.5985 N   0  0  0  0  0  0  0  0  0  0  0  0
  -32.0098    0.5508   29.4757 C   0  0  0  0  0  0  0  0  0  0  0  0
  -32.3458    1.5388   28.7509 C   0  0  0  0  0  0  0  0  0  0  0  0
  -33.7294    1.8420   28.4647 C   0  0  0  0  0  0  0  0  0  0  0  0
  -34.6656    0.9392   29.0738 C   0  0  0  0  0  0  0  0  0  0  0  0
  -34.2155   -0.1211   29.8113 C   0  0  0  0  0  0  0  0  0  0  0  0
  -32.8741   -0.3349   30.0387 C   0  0  0  0  0  0  0  0  0  0  0  0
  -35.3642   -1.1653   30.5323 Cl  0  0  0  0  0  0  0  0  0  0  0  0
  2  7  1  0
  7  8  2  0
  7  9  1  0
  9 10  1  0
 14 16  1  0
  1  2  2  0
  2  5  1  0
  5  6  2  0
  6  4  1  0
  4  3  2  0
  3  1  1  0
 10 11  2  0
 11 12  1  0
 12 13  2  0
 13 14  1  0
 14 15  2  0
 15 10  1  0
M  END

$$$$
