No_569-gen_results/8p0m/2024-11-26-14-13-15/
     RDKit          3D

 35 39  0  0  0  0  0  0  0  0999 V2000
  -28.0162   -0.8135   28.8779 C   0  0  0  0  0  0  0  0  0  0  0  0
  -27.0636   -0.1189   28.6079 C   0  0  0  0  0  0  0  0  0  0  0  0
  -25.7647   -0.3897   29.0360 C   0  0  0  0  0  0  0  0  0  0  0  0
  -25.5296   -1.5302   29.9014 C   0  0  0  0  0  0  0  0  0  0  0  0
  -26.6888   -2.2893   30.1810 C   0  0  0  0  0  0  0  0  0  0  0  0
  -27.8727   -1.9508   29.7373 C   0  0  0  0  0  0  0  0  0  0  0  0
  -29.0016   -2.8142   30.1793 C   0  0  0  0  0  0  0  0  0  0  0  0
  -28.8271   -4.0755   30.4770 N   0  0  0  0  0  0  0  0  0  0  0  0
  -30.1619   -2.3440   30.2525 O   0  0  0  0  0  0  0  0  0  0  0  0
  -29.8734   -5.0252   30.8174 C   0  0  0  0  0  0  0  0  0  0  0  0
  -29.7380   -5.6380   31.9875 C   0  0  0  0  0  0  0  0  0  0  0  0
  -30.4887   -6.8563   32.1748 C   0  0  0  0  0  0  0  0  0  0  0  0
  -31.4181   -7.2563   31.1988 C   0  0  0  0  0  0  0  0  0  0  0  0
  -31.4890   -6.5070   30.0092 C   0  0  0  0  0  0  0  0  0  0  0  0
  -30.5860   -5.4208   29.7883 C   0  0  0  0  0  0  0  0  0  0  0  0
  -24.5417    0.4090   28.6757 C   0  0  0  0  0  0  0  0  0  0  0  0
  -24.5410    1.2245   27.6059 C   0  0  0  0  0  0  0  0  0  0  0  0
  -25.0891    1.4946   26.7585 C   0  0  0  0  0  0  0  0  0  0  0  0
  -26.3824    0.8606   26.5183 C   0  0  0  0  0  0  0  0  0  0  0  0
  -27.1711    0.3436   27.4246 C   0  0  0  0  0  0  0  0  0  0  0  0
  -23.3615    0.2329   29.5947 C   0  0  0  0  0  0  0  0  0  0  0  0
  -22.0540    0.3083   28.8778 C   0  0  0  0  0  0  0  0  0  0  0  0
  -22.9314    1.6316   27.4463 C   0  0  0  0  0  0  0  0  0  0  0  0
  -21.8858    1.2460   28.1062 N   0  0  0  0  0  0  0  0  0  0  0  0
  -22.7522    2.4078   26.3195 O   0  0  0  0  0  0  0  0  0  0  0  0
  -26.8456    0.6450   25.0579 C   0  0  0  0  0  0  0  0  0  0  0  0
  -28.1044    0.7914   24.6823 C   0  0  0  0  0  0  0  0  0  0  0  0
  -28.5923    0.3660   26.8724 C   0  0  0  0  0  0  0  0  0  0  0  0
  -29.0043    0.3003   25.5967 C   0  0  0  0  0  0  0  0  0  0  0  0
  -30.3162    0.3232   25.0905 C   0  0  0  0  0  0  0  0  0  0  0  0
  -31.2472   -0.2212   25.7798 N   0  0  0  0  0  0  0  0  0  0  0  0
  -32.1428   -1.0375   25.5209 C   0  0  0  0  0  0  0  0  0  0  0  0
  -32.9694   -1.7111   26.5079 C   0  0  0  0  0  0  0  0  0  0  0  0
  -33.2434   -2.9564   26.5072 C   0  0  0  0  0  0  0  0  0  0  0  0
  -33.0918   -3.6739   25.2773 C   0  0  0  0  0  0  0  0  0  0  0  0
  6  7  1  0
  7  8  1  0
  7  9  2  0
  8 10  1  0
  3 16  1  0
 16 17  1  0
 18 19  1  0
  2 20  1  0
 16 21  1  0
 21 22  1  0
 17 23  1  0
 23 24  1  0
 23 25  2  0
 29 30  1  0
 30 31  1  0
 31 32  1  0
 32 33  2  3
 33 34  1  0
 34 35  2  0
 18 17  1  0
 22 24  1  0
  1  2  2  0
  2  3  1  0
  3  4  2  0
  4  5  1  0
  5  6  2  0
  6  1  1  0
 10 11  2  0
 11 12  1  0
 12 13  2  0
 13 14  1  0
 14 15  2  0
 15 10  1  0
 19 20  2  0
 20 28  1  0
 28 29  2  0
 29 27  1  0
 27 26  2  0
 26 19  1  0
M  END

$$$$
