No_570-gen_results/8p0m/2024-11-26-14-13-15/
     RDKit          3D

 18 18  0  0  0  0  0  0  0  0999 V2000
  -28.0162   -0.8135   28.8779 C   0  0  0  0  0  0  0  0  0  0  0  0
  -27.0636   -0.1190   28.6079 C   0  0  0  0  0  0  0  0  0  0  0  0
  -25.7647   -0.3897   29.0360 C   0  0  0  0  0  0  0  0  0  0  0  0
  -25.5296   -1.5302   29.9014 C   0  0  0  0  0  0  0  0  0  0  0  0
  -26.6888   -2.2893   30.1810 C   0  0  0  0  0  0  0  0  0  0  0  0
  -27.8727   -1.9508   29.7373 C   0  0  0  0  0  0  0  0  0  0  0  0
  -28.9304   -2.7298   30.1154 O   0  0  0  0  0  0  0  0  0  0  0  0
  -24.6889    0.3630   28.7847 F   0  0  0  0  0  0  0  0  0  0  0  0
  -28.7792   -3.9681   30.6513 C   0  0  0  0  0  0  0  0  0  0  0  0
  -29.8290   -4.2706   31.6115 C   0  0  0  0  0  0  0  0  0  0  0  0
  -31.0446   -4.1992   31.0940 C   0  0  0  0  0  0  0  0  0  0  0  0
  -31.3597   -3.3491   30.1207 C   0  0  0  0  0  0  0  0  0  0  0  0
  -32.3822   -3.3216   29.2747 C   0  0  0  0  0  0  0  0  0  0  0  0
  -32.4398   -2.4274   28.2243 C   0  0  0  0  0  0  0  0  0  0  0  0
  -33.1444   -2.6396   27.0762 C   0  0  0  0  0  0  0  0  0  0  0  0
  -32.9392   -1.8192   25.9037 C   0  0  0  0  0  0  0  0  0  0  0  0
  -32.0310   -0.7611   25.9677 C   0  0  0  0  0  0  0  0  0  0  0  0
  -31.3178   -0.5310   27.1297 C   0  0  0  0  0  0  0  0  0  0  0  0
  6  7  1  0
  3  8  1  0
  7  9  1  0
  9 10  1  0
 10 11  1  0
 11 12  1  0
 12 13  1  0
 13 14  2  3
 14 15  1  0
 15 16  2  3
 16 17  1  0
 17 18  2  0
  1  2  2  0
  2  3  1  0
  3  4  2  0
  4  5  1  0
  5  6  2  0
  6  1  1  0
M  END

$$$$
