No_581-gen_results/8p0m/2024-11-26-14-13-15/
     RDKit          3D

 28 32  0  0  0  0  0  0  0  0999 V2000
  -28.1229   -1.3353   28.4874 O   0  0  0  0  0  0  0  0  0  0  0  0
  -27.0637   -0.8242   28.8687 C   0  0  0  0  0  0  0  0  0  0  0  0
  -26.4446   -0.0097   28.8266 N   0  0  0  0  0  0  0  0  0  0  0  0
  -26.1457   -2.0744   29.6687 C   0  0  0  0  0  0  0  0  0  0  0  0
  -25.1296    0.4235   29.2284 C   0  0  0  0  0  0  0  0  0  0  0  0
  -24.4458    1.6979   28.9325 C   0  0  0  0  0  0  0  0  0  0  0  0
  -24.2940   -0.5139   29.9356 C   0  0  0  0  0  0  0  0  0  0  0  0
  -24.9345   -1.7728   30.1320 C   0  0  0  0  0  0  0  0  0  0  0  0
  -23.1155    1.7107   28.6313 C   0  0  0  0  0  0  0  0  0  0  0  0
  -22.2922    0.6768   29.2711 C   0  0  0  0  0  0  0  0  0  0  0  0
  -22.8893   -0.5585   29.6886 C   0  0  0  0  0  0  0  0  0  0  0  0
  -25.1012    2.8159   29.1814 C   0  0  0  0  0  0  0  0  0  0  0  0
  -25.4580    3.2929   30.2418 O   0  0  0  0  0  0  0  0  0  0  0  0
  -25.2031    3.7297   28.0922 N   0  0  0  0  0  0  0  0  0  0  0  0
  -25.8119    5.0896   28.1923 C   0  0  0  0  0  0  0  0  0  0  0  0
  -24.7916    3.3751   26.7438 C   0  0  0  0  0  0  0  0  0  0  0  0
  -26.1839    5.6154   27.3497 C   0  0  0  0  0  0  0  0  0  0  0  0
  -24.3903    2.1325   26.4699 C   0  0  0  0  0  0  0  0  0  0  0  0
  -26.7254    6.9570   27.5933 C   0  0  0  0  0  0  0  0  0  0  0  0
  -26.8293    7.5023   28.8414 C   0  0  0  0  0  0  0  0  0  0  0  0
  -26.3980    6.6815   29.9107 C   0  0  0  0  0  0  0  0  0  0  0  0
  -25.8386    5.5468   29.6359 C   0  0  0  0  0  0  0  0  0  0  0  0
  -24.8068    1.5646   25.5124 C   0  0  0  0  0  0  0  0  0  0  0  0
  -24.4056    0.1402   25.2649 C   0  0  0  0  0  0  0  0  0  0  0  0
  -23.3986    1.5873   27.3427 C   0  0  0  0  0  0  0  0  0  0  0  0
  -25.3860   -0.5360   24.4076 C   0  0  0  0  0  0  0  0  0  0  0  0
  -26.6487    0.2330   24.2932 C   0  0  0  0  0  0  0  0  0  0  0  0
  -26.2369    1.5164   25.1996 C   0  0  0  0  0  0  0  0  0  0  0  0
  1  2  2  0
  2  3  1  0
  2  4  1  0
  3  5  1  0
  6 12  1  0
 12 13  2  0
 12 14  1  0
 14 15  1  0
 14 16  1  0
 16 18  1  0
 18 23  1  0
 23 24  1  0
  9 25  1  0
 18 25  1  0
 24 26  2  0
 26 27  1  0
 23 28  1  0
 27 28  1  0
  7  8  1  0
  8  4  1  0
  5  6  2  0
  6  9  1  0
  9 10  2  0
 10 11  1  0
 11  7  2  0
  7  5  1  0
 15 17  2  0
 17 19  1  0
 19 20  2  0
 20 21  1  0
 21 22  2  0
 22 15  1  0
M  END

$$$$
