No_584-gen_results/8p0m/2024-11-26-14-13-15/
     RDKit          3D

 14 15  0  0  0  0  0  0  0  0999 V2000
  -28.0162   -0.8135   28.8779 C   0  0  0  0  0  0  0  0  0  0  0  0
  -27.0636   -0.1189   28.6079 C   0  0  0  0  0  0  0  0  0  0  0  0
  -26.9716    0.7139   27.5060 C   0  0  0  0  0  0  0  0  0  0  0  0
  -25.8206    1.4910   27.1160 C   0  0  0  0  0  0  0  0  0  0  0  0
  -24.6562    1.4242   27.9180 C   0  0  0  0  0  0  0  0  0  0  0  0
  -24.7114    0.5419   29.0507 C   0  0  0  0  0  0  0  0  0  0  0  0
  -25.8042   -0.2058   29.3881 C   0  0  0  0  0  0  0  0  0  0  0  0
  -28.0672   -1.5382   30.1911 C   0  0  0  0  0  0  0  0  0  0  0  0
  -26.8381   -1.7680   30.8773 C   0  0  0  0  0  0  0  0  0  0  0  0
  -25.7411   -1.0297   30.5541 C   0  0  0  0  0  0  0  0  0  0  0  0
  -27.9666    0.8013   26.6433 F   0  0  0  0  0  0  0  0  0  0  0  0
  -23.3916    0.4910   29.8329 C   0  0  0  0  0  0  0  0  0  0  0  0
  -22.2184    0.5309   29.2366 N   0  0  0  0  0  0  0  0  0  0  0  0
  -23.4625    0.4223   31.1160 O   0  0  0  0  0  0  0  0  0  0  0  0
  3 11  1  0
  6 12  1  0
 12 13  2  0
 12 14  1  0
  2  3  1  0
  3  4  2  0
  4  5  1  0
  5  6  2  0
  6  7  1  0
  1  2  2  0
  2  7  1  0
  7 10  2  0
 10  9  1  0
  9  8  2  0
  8  1  1  0
M  END

$$$$
