No_577-gen_results/8p0m/2024-11-26-14-13-15/
     RDKit          3D

 11 11  0  0  0  0  0  0  0  0999 V2000
  -28.0162   -0.8135   28.8779 C   0  0  0  0  0  0  0  0  0  0  0  0
  -27.0636   -0.1190   28.6079 C   0  0  0  0  0  0  0  0  0  0  0  0
  -26.9716    0.7139   27.5060 C   0  0  0  0  0  0  0  0  0  0  0  0
  -28.1053    0.7744   26.6421 C   0  0  0  0  0  0  0  0  0  0  0  0
  -29.2041    0.1179   27.0477 C   0  0  0  0  0  0  0  0  0  0  0  0
  -29.2066   -0.5972   28.1825 C   0  0  0  0  0  0  0  0  0  0  0  0
  -25.5378    1.5619   27.0645 Cl  0  0  0  0  0  0  0  0  0  0  0  0
  -30.4934    0.1382   26.3646 C   0  0  0  0  0  0  0  0  0  0  0  0
  -30.5520    0.0208   25.0493 C   0  0  0  0  0  0  0  0  0  0  0  0
  -31.3235   -0.8362   26.8940 F   0  0  0  0  0  0  0  0  0  0  0  0
  -31.2298    1.4864   26.7280 C   0  0  0  0  0  0  0  0  0  0  0  0
  3  7  1  0
  5  8  1  0
  8  9  1  0
  8 10  1  0
  8 11  1  0
  1  2  2  0
  2  3  1  0
  3  4  2  0
  4  5  1  0
  5  6  2  0
  6  1  1  0
M  END

$$$$
