No_511-gen_results/8p0m/2024-11-26-14-13-15/
     RDKit          3D

  9  9  0  0  0  0  0  0  0  0999 V2000
  -28.0162   -0.8135   28.8779 C   0  0  0  0  0  0  0  0  0  0  0  0
  -27.0636   -0.1189   28.6079 C   0  0  0  0  0  0  0  0  0  0  0  0
  -25.8176   -0.3427   29.0487 N   0  0  0  0  0  0  0  0  0  0  0  0
  -25.6067   -1.4414   29.8929 C   0  0  0  0  0  0  0  0  0  0  0  0
  -26.6760   -2.2193   30.2363 C   0  0  0  0  0  0  0  0  0  0  0  0
  -27.8635   -1.9317   29.7671 C   0  0  0  0  0  0  0  0  0  0  0  0
  -27.1276    1.1048   27.7424 C   0  0  0  0  0  0  0  0  0  0  0  0
  -26.1509    1.9474   27.6712 C   0  0  0  0  0  0  0  0  0  0  0  0
  -24.8150    1.5412   28.2345 C   0  0  0  0  0  0  0  0  0  0  0  0
  2  7  1  0
  7  8  2  3
  8  9  1  0
  1  2  2  0
  2  3  1  0
  3  4  2  0
  4  5  1  0
  5  6  2  0
  6  1  1  0
M  END

$$$$
