No_533-gen_results/8p0m/2024-11-26-14-13-15/
     RDKit          3D

 14 14  0  0  0  0  0  0  0  0999 V2000
  -28.0727   -1.2542   28.5316 F   0  0  0  0  0  0  0  0  0  0  0  0
  -27.3591   -0.3792   28.7224 C   0  0  0  0  0  0  0  0  0  0  0  0
  -26.8100    0.1885   27.6513 C   0  0  0  0  0  0  0  0  0  0  0  0
  -25.6015    0.9529   27.6828 C   0  0  0  0  0  0  0  0  0  0  0  0
  -25.0371    1.2332   29.0000 C   0  0  0  0  0  0  0  0  0  0  0  0
  -25.6162    0.5855   30.0870 C   0  0  0  0  0  0  0  0  0  0  0  0
  -26.6061   -0.2296   29.9624 C   0  0  0  0  0  0  0  0  0  0  0  0
  -23.8926    2.1100   29.0763 C   0  0  0  0  0  0  0  0  0  0  0  0
  -23.5711    2.3388   30.1547 O   0  0  0  0  0  0  0  0  0  0  0  0
  -23.2420    2.4525   28.0268 O   0  0  0  0  0  0  0  0  0  0  0  0
  -27.2917   -0.9762   31.3668 Cl  0  0  0  0  0  0  0  0  0  0  0  0
  -27.1971   -0.0402   26.4356 F   0  0  0  0  0  0  0  0  0  0  0  0
  -24.9778    1.6648   26.2775 Cl  0  0  0  0  0  0  0  0  0  0  0  0
  -25.0515    0.8342   31.3282 O   0  0  0  0  0  0  0  0  0  0  0  0
  1  2  1  0
  3  4  1  0
  5  6  1  0
  2  7  1  0
  6  7  1  0
  5  8  1  0
  8  9  1  0
  8 10  2  0
  7 11  1  0
  3 12  1  0
  4 13  1  0
  6 14  2  0
  5  4  1  0
  3  2  1  0
M  END

$$$$
