No_575-gen_results/8p0m/2024-11-26-14-13-15/
     RDKit          3D

 29 32  0  0  0  0  0  0  0  0999 V2000
  -28.0162   -0.8135   28.8779 C   0  0  0  0  0  0  0  0  0  0  0  0
  -27.0636   -0.1190   28.6079 C   0  0  0  0  0  0  0  0  0  0  0  0
  -26.8756    1.1325   28.9134 C   0  0  0  0  0  0  0  0  0  0  0  0
  -27.9014    1.8066   29.6436 C   0  0  0  0  0  0  0  0  0  0  0  0
  -29.0458   -0.2316   29.7181 C   0  0  0  0  0  0  0  0  0  0  0  0
  -28.9402    1.0517   30.0597 C   0  0  0  0  0  0  0  0  0  0  0  0
  -25.7206   -0.8229   27.6886 Cl  0  0  0  0  0  0  0  0  0  0  0  0
  -30.0291    1.6913   30.8750 C   0  0  0  0  0  0  0  0  0  0  0  0
  -31.0856    1.9481   30.6939 C   0  0  0  0  0  0  0  0  0  0  0  0
  -32.0163    2.5979   31.5961 C   0  0  0  0  0  0  0  0  0  0  0  0
  -29.4576    2.0205   32.2782 C   0  0  0  0  0  0  0  0  0  0  0  0
  -30.2886    2.6575   33.1936 C   0  0  0  0  0  0  0  0  0  0  0  0
  -31.5588    2.9416   32.8432 C   0  0  0  0  0  0  0  0  0  0  0  0
  -32.4119    3.5705   33.7316 N   0  0  0  0  0  0  0  0  0  0  0  0
  -31.9563    4.1318   34.8231 C   0  0  0  0  0  0  0  0  0  0  0  0
  -33.8113    3.6042   33.4496 C   0  0  0  0  0  0  0  0  0  0  0  0
  -32.6236    4.5982   35.7199 C   0  0  0  0  0  0  0  0  0  0  0  0
  -34.6161    4.1541   34.5021 C   0  0  0  0  0  0  0  0  0  0  0  0
  -34.0249    4.7058   35.6091 C   0  0  0  0  0  0  0  0  0  0  0  0
  -34.9201    5.2766   36.6393 C   0  0  0  0  0  0  0  0  0  0  0  0
  -34.4960    5.9165   37.5684 O   0  0  0  0  0  0  0  0  0  0  0  0
  -36.1929    5.2521   36.3505 O   0  0  0  0  0  0  0  0  0  0  0  0
  -31.7150    1.6145   29.3417 C   0  0  0  0  0  0  0  0  0  0  0  0
  -31.8719    2.7895   28.5514 C   0  0  0  0  0  0  0  0  0  0  0  0
  -32.3999    2.5875   27.2315 C   0  0  0  0  0  0  0  0  0  0  0  0
  -32.5073    3.6524   26.4250 C   0  0  0  0  0  0  0  0  0  0  0  0
  -32.1494    5.0036   26.8689 C   0  0  0  0  0  0  0  0  0  0  0  0
  -31.6179    5.1506   28.1107 C   0  0  0  0  0  0  0  0  0  0  0  0
  -31.4930    4.1245   28.9365 C   0  0  0  0  0  0  0  0  0  0  0  0
  2  7  1  0
  6  8  1  0
 13 14  1  0
 14 15  1  0
 14 16  1  0
 17 19  1  0
 18 19  1  0
 19 20  1  0
 20 21  2  0
 20 22  1  0
  9 23  1  0
 23 24  1  0
 15 17  1  0
 18 16  1  0
  8  9  1  0
  9 10  2  0
 10 13  1  0
 13 12  2  0
 12 11  1  0
 11  8  2  0
  1  2  2  0
  2  3  1  0
  3  4  2  0
  4  6  1  0
  6  5  2  0
  5  1  1  0
 24 25  2  0
 25 26  1  0
 26 27  2  0
 27 28  1  0
 28 29  2  0
 29 24  1  0
M  END

$$$$
