No_557-gen_results/8p0m/2024-11-26-14-13-15/
     RDKit          3D

 13 13  0  0  0  0  0  0  0  0999 V2000
  -28.0162   -0.8135   28.8779 C   0  0  0  0  0  0  0  0  0  0  0  0
  -27.0636   -0.1189   28.6079 C   0  0  0  0  0  0  0  0  0  0  0  0
  -26.8756    1.1325   28.9134 C   0  0  0  0  0  0  0  0  0  0  0  0
  -25.6883    1.9515   28.5672 C   0  0  0  0  0  0  0  0  0  0  0  0
  -24.6394    1.2834   27.8753 C   0  0  0  0  0  0  0  0  0  0  0  0
  -24.8068   -0.0513   27.6040 C   0  0  0  0  0  0  0  0  0  0  0  0
  -25.9019   -0.7670   27.9511 C   0  0  0  0  0  0  0  0  0  0  0  0
  -29.1549   -0.2294   28.9998 N   0  0  0  0  0  0  0  0  0  0  0  0
  -23.4352    1.9745   27.4960 C   0  0  0  0  0  0  0  0  0  0  0  0
  -29.9562   -0.3984   30.0158 C   0  0  0  0  0  0  0  0  0  0  0  0
  -22.7208    2.4172   28.0835 O   0  0  0  0  0  0  0  0  0  0  0  0
  -23.3030    2.0307   26.1086 O   0  0  0  0  0  0  0  0  0  0  0  0
  -31.0680    0.4176   30.2331 C   0  0  0  0  0  0  0  0  0  0  0  0
  1  2  2  3
  2  3  1  0
  3  4  1  0
  4  5  1  0
  5  6  1  0
  2  7  1  0
  6  7  1  0
  1  8  1  0
  5  9  1  0
  8 10  1  0
  9 11  2  0
  9 12  1  0
 10 13  2  0
M  END

$$$$
