No_578-gen_results/8p0m/2024-11-26-14-13-15/
     RDKit          3D

 20 21  0  0  0  0  0  0  0  0999 V2000
  -28.0162   -0.8135   28.8779 C   0  0  0  0  0  0  0  0  0  0  0  0
  -27.0636   -0.1189   28.6079 C   0  0  0  0  0  0  0  0  0  0  0  0
  -26.9716    0.7139   27.5060 C   0  0  0  0  0  0  0  0  0  0  0  0
  -25.8205    1.4909   27.1160 C   0  0  0  0  0  0  0  0  0  0  0  0
  -24.6562    1.4242   27.9180 C   0  0  0  0  0  0  0  0  0  0  0  0
  -24.7114    0.5419   29.0507 C   0  0  0  0  0  0  0  0  0  0  0  0
  -25.8042   -0.2058   29.3881 C   0  0  0  0  0  0  0  0  0  0  0  0
  -29.2448   -0.0497   29.2060 C   0  0  0  0  0  0  0  0  0  0  0  0
  -30.3887   -0.7756   29.6611 C   0  0  0  0  0  0  0  0  0  0  0  0
  -30.1973   -2.0661   30.1112 C   0  0  0  0  0  0  0  0  0  0  0  0
  -28.9734   -2.7075   30.1577 C   0  0  0  0  0  0  0  0  0  0  0  0
  -27.8712   -2.0513   29.6645 C   0  0  0  0  0  0  0  0  0  0  0  0
  -23.4543    2.1746   27.6166 C   0  0  0  0  0  0  0  0  0  0  0  0
  -23.4098    3.0755   26.7738 N   0  0  0  0  0  0  0  0  0  0  0  0
  -22.3142    1.8185   28.1500 O   0  0  0  0  0  0  0  0  0  0  0  0
  -26.6798   -2.6490   29.7375 O   0  0  0  0  0  0  0  0  0  0  0  0
  -31.5648   -0.1976   29.7157 O   0  0  0  0  0  0  0  0  0  0  0  0
  -26.2164   -3.4938   28.9054 C   0  0  0  0  0  0  0  0  0  0  0  0
  -24.7153   -3.3989   28.8765 C   0  0  0  0  0  0  0  0  0  0  0  0
  -28.0024    0.8183   26.7112 O   0  0  0  0  0  0  0  0  0  0  0  0
  2  3  1  0
  3  4  1  0
  5  6  1  0
  2  7  1  0
  6  7  1  0
  5 13  1  0
 13 14  1  0
 13 15  2  0
 12 16  1  0
  9 17  1  0
 16 18  1  0
 18 19  1  0
  3 20  2  0
  1  2  1  0
  5  4  1  0
  1  8  2  0
  8  9  1  0
  9 10  2  0
 10 11  1  0
 11 12  2  0
 12  1  1  0
M  END

$$$$
