No_51-gen_results/8p0m/2024-11-26-14-13-15/
     RDKit          3D

  8  8  0  0  0  0  0  0  0  0999 V2000
  -28.0162   -0.8135   28.8779 C   0  0  0  0  0  0  0  0  0  0  0  0
  -27.0636   -0.1189   28.6079 C   0  0  0  0  0  0  0  0  0  0  0  0
  -26.9716    0.7139   27.5060 C   0  0  0  0  0  0  0  0  0  0  0  0
  -25.8206    1.4910   27.1160 C   0  0  0  0  0  0  0  0  0  0  0  0
  -24.6562    1.4242   27.9180 C   0  0  0  0  0  0  0  0  0  0  0  0
  -24.6968    0.5646   29.0611 C   0  0  0  0  0  0  0  0  0  0  0  0
  -25.8036   -0.1980   29.3950 C   0  0  0  0  0  0  0  0  0  0  0  0
  -29.1259   -0.3061   28.6845 O   0  0  0  0  0  0  0  0  0  0  0  0
  1  2  2  3
  2  3  1  0
  3  4  1  0
  4  5  3  0
  5  6  1  0
  2  7  1  0
  6  7  1  0
  1  8  1  0
M  END

$$$$
