No_517-gen_results/8p0m/2024-11-26-14-13-15/
     RDKit          3D

 23 25  0  0  0  0  0  0  0  0999 V2000
  -28.0162   -0.8135   28.8779 C   0  0  0  0  0  0  0  0  0  0  0  0
  -28.4690   -0.7850   29.8287 C   0  0  0  0  0  0  0  0  0  0  0  0
  -27.1356    0.2359   28.5352 C   0  0  0  0  0  0  0  0  0  0  0  0
  -26.8745    1.2825   29.3982 C   0  0  0  0  0  0  0  0  0  0  0  0
  -27.5070    1.2380   30.6295 C   0  0  0  0  0  0  0  0  0  0  0  0
  -28.3293    0.1745   30.9350 C   0  0  0  0  0  0  0  0  0  0  0  0
  -26.4409    0.0880   27.2474 C   0  0  0  0  0  0  0  0  0  0  0  0
  -26.9306    0.6938   26.0589 C   0  0  0  0  0  0  0  0  0  0  0  0
  -25.1027   -0.4086   27.1966 C   0  0  0  0  0  0  0  0  0  0  0  0
  -28.1972    1.1745   26.0183 C   0  0  0  0  0  0  0  0  0  0  0  0
  -29.0889    0.9610   25.5998 C   0  0  0  0  0  0  0  0  0  0  0  0
  -30.3723    1.6696   25.6147 C   0  0  0  0  0  0  0  0  0  0  0  0
  -26.2783    0.1013   24.9157 C   0  0  0  0  0  0  0  0  0  0  0  0
  -30.3675    2.8719   26.3382 C   0  0  0  0  0  0  0  0  0  0  0  0
  -29.2172    3.4006   26.8588 C   0  0  0  0  0  0  0  0  0  0  0  0
  -28.0735    2.6841   26.7656 C   0  0  0  0  0  0  0  0  0  0  0  0
  -24.1627   -0.0351   26.4780 C   0  0  0  0  0  0  0  0  0  0  0  0
  -24.8769    0.2509   25.0467 C   0  0  0  0  0  0  0  0  0  0  0  0
  -25.9536    2.4037   29.1270 C   0  0  0  0  0  0  0  0  0  0  0  0
  -26.3444    3.5196   29.1129 O   0  0  0  0  0  0  0  0  0  0  0  0
  -24.6571    2.1038   28.9333 O   0  0  0  0  0  0  0  0  0  0  0  0
  -29.3041   -0.2558   24.9832 O   0  0  0  0  0  0  0  0  0  0  0  0
  -29.2011   -0.4600   23.6760 C   0  0  0  0  0  0  0  0  0  0  0  0
  3  7  1  0
  8 10  1  0
  4 19  1  0
 19 20  2  0
 19 21  1  0
 11 22  1  0
 22 23  1  0
  1  2  2  0
  2  6  1  0
  6  5  2  0
  5  4  1  0
  4  3  2  0
  3  1  1  0
  7  8  2  0
  8 13  1  0
 13 18  2  0
 18 17  1  0
 17  9  2  0
  9  7  1  0
 10 11  2  0
 11 12  1  0
 12 14  2  0
 14 15  1  0
 15 16  2  0
 16 10  1  0
M  END

$$$$
