No_573-gen_results/8p0m/2024-11-26-14-13-15/
     RDKit          3D

 14 16  0  0  0  0  0  0  0  0999 V2000
  -28.0162   -0.8135   28.8779 C   0  0  0  0  0  0  0  0  0  0  0  0
  -27.0636   -0.1189   28.6079 C   0  0  0  0  0  0  0  0  0  0  0  0
  -27.0010    0.6913   27.4910 C   0  0  0  0  0  0  0  0  0  0  0  0
  -25.8548    1.4825   27.0830 C   0  0  0  0  0  0  0  0  0  0  0  0
  -25.8227    2.3296   25.9941 C   0  0  0  0  0  0  0  0  0  0  0  0
  -27.9874   -1.6326   30.1036 C   0  0  0  0  0  0  0  0  0  0  0  0
  -26.7767   -1.8328   30.7473 C   0  0  0  0  0  0  0  0  0  0  0  0
  -25.6300   -1.2164   30.3057 C   0  0  0  0  0  0  0  0  0  0  0  0
  -25.7324   -0.3480   29.1642 C   0  0  0  0  0  0  0  0  0  0  0  0
  -24.6572    3.1231   25.8253 C   0  0  0  0  0  0  0  0  0  0  0  0
  -23.5018    2.8953   26.5706 C   0  0  0  0  0  0  0  0  0  0  0  0
  -23.5103    1.9492   27.5472 C   0  0  0  0  0  0  0  0  0  0  0  0
  -24.6493    1.2327   27.8417 C   0  0  0  0  0  0  0  0  0  0  0  0
  -24.5730    0.3504   28.7565 C   0  0  0  0  0  0  0  0  0  0  0  0
  2  3  1  0
  3  4  2  0
 13 14  2  0
 14  9  1  0
  4  5  1  0
  5 10  2  0
 10 11  1  0
 11 12  2  0
 12 13  1  0
 13  4  1  0
  1  2  2  0
  2  9  1  0
  9  8  2  0
  8  7  1  0
  7  6  2  0
  6  1  1  0
M  END

$$$$
