No_537-gen_results/8p0m/2024-11-26-14-13-15/
     RDKit          3D

 10 10  0  0  0  0  0  0  0  0999 V2000
  -28.0162   -0.8135   28.8779 C   0  0  0  0  0  0  0  0  0  0  0  0
  -27.0636   -0.1189   28.6079 C   0  0  0  0  0  0  0  0  0  0  0  0
  -27.0010    0.6913   27.4910 C   0  0  0  0  0  0  0  0  0  0  0  0
  -28.1373    0.7363   26.6350 C   0  0  0  0  0  0  0  0  0  0  0  0
  -29.2360    0.0765   27.0690 C   0  0  0  0  0  0  0  0  0  0  0  0
  -29.2177   -0.6429   28.1747 C   0  0  0  0  0  0  0  0  0  0  0  0
  -30.4152    0.1590   26.1820 C   0  0  0  0  0  0  0  0  0  0  0  0
  -31.2292   -0.6372   26.4315 F   0  0  0  0  0  0  0  0  0  0  0  0
  -30.8752    1.4224   26.2396 F   0  0  0  0  0  0  0  0  0  0  0  0
  -30.0320   -0.0167   24.8720 F   0  0  0  0  0  0  0  0  0  0  0  0
  5  7  1  0
  7  8  1  0
  7  9  1  0
  7 10  1  0
  1  2  2  0
  2  3  1  0
  3  4  2  0
  4  5  1  0
  5  6  2  0
  6  1  1  0
M  END

$$$$
