No_660-gen_results/8p0m/2024-11-26-14-13-15/
     RDKit          3D

 22 24  0  0  0  0  0  0  0  0999 V2000
  -28.0162   -0.8135   28.8779 C   0  0  0  0  0  0  0  0  0  0  0  0
  -28.4690   -0.7850   29.8287 C   0  0  0  0  0  0  0  0  0  0  0  0
  -26.5042   -0.7777   28.8766 C   0  0  0  0  0  0  0  0  0  0  0  0
  -25.8103   -0.8531   30.1028 C   0  0  0  0  0  0  0  0  0  0  0  0
  -27.9906   -0.8916   31.2257 C   0  0  0  0  0  0  0  0  0  0  0  0
  -26.6042   -0.8676   31.2652 C   0  0  0  0  0  0  0  0  0  0  0  0
  -30.2937   -0.8377   29.8355 Cl  0  0  0  0  0  0  0  0  0  0  0  0
  -24.3700   -0.8208   30.1393 C   0  0  0  0  0  0  0  0  0  0  0  0
  -23.6317   -0.3592   29.1003 C   0  0  0  0  0  0  0  0  0  0  0  0
  -22.1856   -0.3104   29.2384 C   0  0  0  0  0  0  0  0  0  0  0  0
  -21.4360    0.2369   28.1746 C   0  0  0  0  0  0  0  0  0  0  0  0
  -22.0683    1.1431   27.3132 C   0  0  0  0  0  0  0  0  0  0  0  0
  -23.4676    1.3367   27.3406 C   0  0  0  0  0  0  0  0  0  0  0  0
  -24.2377    0.6885   28.2905 C   0  0  0  0  0  0  0  0  0  0  0  0
  -24.0096    2.3358   26.4133 C   0  0  0  0  0  0  0  0  0  0  0  0
  -25.0842    3.0392   26.8667 C   0  0  0  0  0  0  0  0  0  0  0  0
  -26.2508    2.3927   26.8888 C   0  0  0  0  0  0  0  0  0  0  0  0
  -27.3257    3.3284   27.3398 C   0  0  0  0  0  0  0  0  0  0  0  0
  -27.1183    4.5988   27.6942 C   0  0  0  0  0  0  0  0  0  0  0  0
  -24.9466    4.4664   27.2036 C   0  0  0  0  0  0  0  0  0  0  0  0
  -25.9476    5.2263   27.5650 C   0  0  0  0  0  0  0  0  0  0  0  0
  -23.9652   -2.3471   30.3626 C   0  0  0  0  0  0  0  0  0  0  0  0
  2  7  1  0
  4  8  1  0
 13 15  1  0
 15 16  1  0
  8 22  1  0
  8  9  1  0
  9 10  2  0
 10 11  1  0
 11 12  2  0
 12 13  1  0
 13 14  2  0
 14  9  1  0
  1  2  2  0
  2  5  1  0
  5  6  2  0
  6  4  1  0
  4  3  2  0
  3  1  1  0
 16 17  2  0
 17 18  1  0
 18 19  2  0
 19 21  1  0
 21 20  2  0
 20 16  1  0
M  END

$$$$
