No_659-gen_results/8p0m/2024-11-26-14-13-15/
     RDKit          3D

 21 23  0  0  0  0  0  0  0  0999 V2000
  -28.0162   -0.8135   28.8779 C   0  0  0  0  0  0  0  0  0  0  0  0
  -27.0636   -0.1190   28.6079 C   0  0  0  0  0  0  0  0  0  0  0  0
  -25.7923   -0.4302   29.0761 C   0  0  0  0  0  0  0  0  0  0  0  0
  -24.5456    0.3494   28.8225 C   0  0  0  0  0  0  0  0  0  0  0  0
  -23.2409    0.0217   29.3323 C   0  0  0  0  0  0  0  0  0  0  0  0
  -22.1362    0.7695   29.0059 C   0  0  0  0  0  0  0  0  0  0  0  0
  -27.9050   -1.8984   29.8729 C   0  0  0  0  0  0  0  0  0  0  0  0
  -26.6795   -2.3145   30.3184 C   0  0  0  0  0  0  0  0  0  0  0  0
  -25.5203   -1.5564   29.9775 C   0  0  0  0  0  0  0  0  0  0  0  0
  -22.1155    1.7338   28.0257 C   0  0  0  0  0  0  0  0  0  0  0  0
  -24.5222    1.3908   27.7909 C   0  0  0  0  0  0  0  0  0  0  0  0
  -23.3248    2.0519   27.4472 C   0  0  0  0  0  0  0  0  0  0  0  0
  -29.0598   -2.7145   30.2959 C   0  0  0  0  0  0  0  0  0  0  0  0
  -28.9655   -3.9800   30.5881 N   0  0  0  0  0  0  0  0  0  0  0  0
  -29.9663   -4.8915   30.3125 C   0  0  0  0  0  0  0  0  0  0  0  0
  -30.6904   -4.7909   29.1809 C   0  0  0  0  0  0  0  0  0  0  0  0
  -31.4587   -5.9632   28.7868 C   0  0  0  0  0  0  0  0  0  0  0  0
  -31.5365   -7.0690   29.5921 C   0  0  0  0  0  0  0  0  0  0  0  0
  -30.8206   -7.1495   30.7699 C   0  0  0  0  0  0  0  0  0  0  0  0
  -29.9275   -6.0791   31.1339 C   0  0  0  0  0  0  0  0  0  0  0  0
  -30.0955   -2.0876   30.6330 O   0  0  0  0  0  0  0  0  0  0  0  0
  3  4  1  0
  7 13  1  0
 13 14  1  0
 14 15  1  0
 13 21  2  0
 15 16  2  0
 16 17  1  0
 17 18  2  0
 18 19  1  0
 19 20  2  0
 20 15  1  0
  1  2  2  0
  2  3  1  0
  3  9  2  0
  9  8  1  0
  8  7  2  0
  7  1  1  0
  4  5  2  0
  5  6  1  0
  6 10  2  0
 10 12  1  0
 12 11  2  0
 11  4  1  0
M  END

$$$$
