No_623-gen_results/8p0m/2024-11-26-14-13-15/
     RDKit          3D

 16 17  0  0  0  0  0  0  0  0999 V2000
  -28.0162   -0.8135   28.8779 C   0  0  0  0  0  0  0  0  0  0  0  0
  -27.0636   -0.1190   28.6079 C   0  0  0  0  0  0  0  0  0  0  0  0
  -26.9287    1.1713   29.0083 C   0  0  0  0  0  0  0  0  0  0  0  0
  -27.9560    1.7411   29.7840 C   0  0  0  0  0  0  0  0  0  0  0  0
  -29.0569   -0.3271   29.7466 C   0  0  0  0  0  0  0  0  0  0  0  0
  -28.9828    0.9722   30.1516 C   0  0  0  0  0  0  0  0  0  0  0  0
  -25.8907   -0.6263   27.7857 C   0  0  0  0  0  0  0  0  0  0  0  0
  -24.7183   -1.0610   28.6129 C   0  0  0  0  0  0  0  0  0  0  0  0
  -23.5950   -0.2827   28.8125 C   0  0  0  0  0  0  0  0  0  0  0  0
  -22.5044   -0.8064   29.5509 C   0  0  0  0  0  0  0  0  0  0  0  0
  -24.7823   -2.3538   29.1985 C   0  0  0  0  0  0  0  0  0  0  0  0
  -23.6341   -2.8501   29.8501 C   0  0  0  0  0  0  0  0  0  0  0  0
  -22.5338   -2.0333   30.0696 C   0  0  0  0  0  0  0  0  0  0  0  0
  -30.1729   -1.2260   30.1320 C   0  0  0  0  0  0  0  0  0  0  0  0
  -31.1369   -0.8549   31.1198 Cl  0  0  0  0  0  0  0  0  0  0  0  0
  -30.1709   -2.4100   29.6153 O   0  0  0  0  0  0  0  0  0  0  0  0
  2  7  1  0
  7  8  1  0
  5 14  1  0
 14 15  1  0
 14 16  2  0
  8  9  2  0
  9 10  1  0
 10 13  2  0
 13 12  1  0
 12 11  2  0
 11  8  1  0
  1  2  2  0
  2  3  1  0
  3  4  2  0
  4  6  1  0
  6  5  2  0
  5  1  1  0
M  END

$$$$
