No_650-gen_results/8p0m/2024-11-26-14-13-15/
     RDKit          3D

 19 20  0  0  0  0  0  0  0  0999 V2000
  -28.0162   -0.8135   28.8779 C   0  0  0  0  0  0  0  0  0  0  0  0
  -28.4690   -0.7850   29.8287 C   0  0  0  0  0  0  0  0  0  0  0  0
  -26.5042   -0.7777   28.8766 C   0  0  0  0  0  0  0  0  0  0  0  0
  -25.8103   -0.8531   30.1028 C   0  0  0  0  0  0  0  0  0  0  0  0
  -27.9906   -0.8916   31.2257 C   0  0  0  0  0  0  0  0  0  0  0  0
  -26.6042   -0.8676   31.2652 C   0  0  0  0  0  0  0  0  0  0  0  0
  -29.9222   -0.7307   29.6847 F   0  0  0  0  0  0  0  0  0  0  0  0
  -24.3803   -0.8299   30.1524 C   0  0  0  0  0  0  0  0  0  0  0  0
  -23.7911    0.5294   30.1528 C   0  0  0  0  0  0  0  0  0  0  0  0
  -24.2213    1.5932   30.5455 C   0  0  0  0  0  0  0  0  0  0  0  0
  -25.5063    1.6619   31.1710 C   0  0  0  0  0  0  0  0  0  0  0  0
  -25.9154    3.0490   31.6431 C   0  0  0  0  0  0  0  0  0  0  0  0
  -27.0611    3.2278   32.4167 C   0  0  0  0  0  0  0  0  0  0  0  0
  -27.4470    4.4909   32.6967 C   0  0  0  0  0  0  0  0  0  0  0  0
  -26.7802    5.6107   32.2319 C   0  0  0  0  0  0  0  0  0  0  0  0
  -25.6539    5.4612   31.4849 C   0  0  0  0  0  0  0  0  0  0  0  0
  -25.1926    4.1746   31.1740 C   0  0  0  0  0  0  0  0  0  0  0  0
  -25.7529   -0.7573   27.7744 F   0  0  0  0  0  0  0  0  0  0  0  0
  -22.0649    0.3985   29.5009 Cl  0  0  0  0  0  0  0  0  0  0  0  0
  2  7  1  0
  4  8  1  0
  8  9  1  0
  9 10  2  3
 10 11  1  0
  3 18  1  0
  9 19  1  0
 11 12  1  0
 12 13  2  0
 13 14  1  0
 14 15  2  0
 15 16  1  0
 16 17  2  0
 17 12  1  0
  1  2  2  0
  2  5  1  0
  5  6  2  0
  6  4  1  0
  4  3  2  0
  3  1  1  0
M  END

$$$$
