No_68-gen_results/8p0m/2024-11-26-14-13-15/
     RDKit          3D

  9  9  0  0  0  0  0  0  0  0999 V2000
  -28.1229   -1.3353   28.4874 O   0  0  0  0  0  0  0  0  0  0  0  0
  -27.0637   -0.8242   28.8687 C   0  0  0  0  0  0  0  0  0  0  0  0
  -26.9592    0.0926   29.7582 C   0  0  0  0  0  0  0  0  0  0  0  0
  -25.8012   -1.3566   28.3971 N   0  0  0  0  0  0  0  0  0  0  0  0
  -25.7368    0.7239   30.2099 C   0  0  0  0  0  0  0  0  0  0  0  0
  -24.6325   -0.8190   28.9102 C   0  0  0  0  0  0  0  0  0  0  0  0
  -24.5194    0.1968   29.7468 C   0  0  0  0  0  0  0  0  0  0  0  0
  -23.2417    0.7136   30.1382 C   0  0  0  0  0  0  0  0  0  0  0  0
  -23.1809    1.7546   30.7155 N   0  0  0  0  0  0  0  0  0  0  0  0
  1  2  2  0
  2  3  1  0
  2  4  1  0
  3  5  1  0
  4  6  1  0
  5  7  1  0
  7  8  1  0
  8  9  2  0
  7  6  1  0
M  END

$$$$
