No_689-gen_results/8p0m/2024-11-26-14-13-15/
     RDKit          3D

 33 36  0  0  0  0  0  0  0  0999 V2000
  -28.0162   -0.8135   28.8779 C   0  0  0  0  0  0  0  0  0  0  0  0
  -27.0636   -0.1189   28.6079 C   0  0  0  0  0  0  0  0  0  0  0  0
  -27.0010    0.6913   27.4910 C   0  0  0  0  0  0  0  0  0  0  0  0
  -28.1373    0.7363   26.6350 C   0  0  0  0  0  0  0  0  0  0  0  0
  -29.2360    0.0765   27.0690 C   0  0  0  0  0  0  0  0  0  0  0  0
  -29.2177   -0.6429   28.1747 C   0  0  0  0  0  0  0  0  0  0  0  0
  -30.4152    0.1590   26.1820 C   0  0  0  0  0  0  0  0  0  0  0  0
  -31.3727   -0.5052   26.4854 N   0  0  0  0  0  0  0  0  0  0  0  0
  -30.2154    0.5174   24.9703 O   0  0  0  0  0  0  0  0  0  0  0  0
  -31.6893   -1.0458   27.7694 C   0  0  0  0  0  0  0  0  0  0  0  0
  -30.4584   -1.2609   28.5419 N   0  0  0  0  0  0  0  0  0  0  0  0
  -32.6640   -1.6827   28.0613 F   0  0  0  0  0  0  0  0  0  0  0  0
  -32.6672   -0.5142   25.6103 C   0  0  0  0  0  0  0  0  0  0  0  0
  -25.7018    1.4113   27.0846 C   0  0  0  0  0  0  0  0  0  0  0  0
  -25.2602    2.4271   28.0059 C   0  0  0  0  0  0  0  0  0  0  0  0
  -24.3205    2.9674   28.2545 C   0  0  0  0  0  0  0  0  0  0  0  0
  -26.5110    3.1994   28.6230 C   0  0  0  0  0  0  0  0  0  0  0  0
  -26.2906    4.3220   29.4022 C   0  0  0  0  0  0  0  0  0  0  0  0
  -25.1840    4.8316   29.6198 C   0  0  0  0  0  0  0  0  0  0  0  0
  -24.0299    4.2235   29.0598 C   0  0  0  0  0  0  0  0  0  0  0  0
  -23.0824    2.4112   27.8003 O   0  0  0  0  0  0  0  0  0  0  0  0
  -22.7179    1.1622   28.1415 C   0  0  0  0  0  0  0  0  0  0  0  0
  -21.4160    1.0818   28.7550 C   0  0  0  0  0  0  0  0  0  0  0  0
  -21.0722   -0.2398   29.0308 O   0  0  0  0  0  0  0  0  0  0  0  0
  -28.0425   -1.6151   30.1646 C   0  0  0  0  0  0  0  0  0  0  0  0
  -28.4012   -1.3253   31.1735 O   0  0  0  0  0  0  0  0  0  0  0  0
  -27.6738   -2.8848   29.8268 O   0  0  0  0  0  0  0  0  0  0  0  0
  -27.6030    4.9255   29.9742 C   0  0  0  0  0  0  0  0  0  0  0  0
  -28.7665    4.4923   29.7559 C   0  0  0  0  0  0  0  0  0  0  0  0
  -29.9165    4.9942   30.3263 C   0  0  0  0  0  0  0  0  0  0  0  0
  -29.7909    6.0870   31.1692 C   0  0  0  0  0  0  0  0  0  0  0  0
  -28.6077    6.6204   31.4555 C   0  0  0  0  0  0  0  0  0  0  0  0
  -27.4500    6.0459   30.8896 C   0  0  0  0  0  0  0  0  0  0  0  0
  5  7  1  0
  7  8  1  0
  7  9  2  0
  8 10  1  0
  6 11  1  0
 10 11  1  0
 10 12  1  0
  8 13  1  0
  3 14  1  0
 14 15  1  0
 16 21  1  0
 21 22  1  0
 22 23  1  0
 23 24  1  0
  1 25  1  0
 25 26  2  0
 25 27  1  0
 18 28  1  0
 28 29  2  0
 29 30  1  0
 30 31  2  0
 31 32  1  0
 32 33  2  0
 33 28  1  0
  1  2  2  0
  2  3  1  0
  3  4  2  0
  4  5  1  0
  5  6  2  0
  6  1  1  0
 15 16  2  0
 16 20  1  0
 20 19  2  0
 19 18  1  0
 18 17  2  0
 17 15  1  0
M  END

$$$$
