No_681-gen_results/8p0m/2024-11-26-14-13-15/
     RDKit          3D

  9  9  0  0  0  0  0  0  0  0999 V2000
  -28.0162   -0.8135   28.8779 C   0  0  0  0  0  0  0  0  0  0  0  0
  -27.0636   -0.1190   28.6079 C   0  0  0  0  0  0  0  0  0  0  0  0
  -25.7647   -0.3897   29.0360 C   0  0  0  0  0  0  0  0  0  0  0  0
  -25.4887   -1.1536   29.7171 C   0  0  0  0  0  0  0  0  0  0  0  0
  -26.4902   -2.1223   30.2112 C   0  0  0  0  0  0  0  0  0  0  0  0
  -27.7302   -1.9094   29.8268 C   0  0  0  0  0  0  0  0  0  0  0  0
  -24.6459    0.6287   28.5254 C   0  0  0  0  0  0  0  0  0  0  0  0
  -24.1588    1.6123   29.3693 C   0  0  0  0  0  0  0  0  0  0  0  0
  -23.1533    2.3103   28.8645 N   0  0  0  0  0  0  0  0  0  0  0  0
  3  7  1  0
  7  8  2  3
  8  9  1  0
  1  2  2  0
  2  3  1  0
  3  4  2  0
  4  5  1  0
  5  6  2  0
  6  1  1  0
M  END

$$$$
