No_608-gen_results/8p0m/2024-11-26-14-13-15/
     RDKit          3D

 21 22  0  0  0  0  0  0  0  0999 V2000
  -28.0162   -0.8135   28.8779 C   0  0  0  0  0  0  0  0  0  0  0  0
  -27.0636   -0.1189   28.6079 C   0  0  0  0  0  0  0  0  0  0  0  0
  -25.7923   -0.4302   29.0761 C   0  0  0  0  0  0  0  0  0  0  0  0
  -24.5456    0.3494   28.8225 C   0  0  0  0  0  0  0  0  0  0  0  0
  -24.6586    1.4196   27.8878 C   0  0  0  0  0  0  0  0  0  0  0  0
  -25.9471    1.6811   27.3792 C   0  0  0  0  0  0  0  0  0  0  0  0
  -27.0439    0.9739   27.6871 C   0  0  0  0  0  0  0  0  0  0  0  0
  -27.9517   -1.7518   29.9375 N   0  0  0  0  0  0  0  0  0  0  0  0
  -29.2110   -0.3383   28.7434 O   0  0  0  0  0  0  0  0  0  0  0  0
  -29.0271   -2.5366   30.4973 C   0  0  0  0  0  0  0  0  0  0  0  0
  -23.4606    2.1651   27.5966 C   0  0  0  0  0  0  0  0  0  0  0  0
  -22.4944    1.7747   27.1806 N   0  0  0  0  0  0  0  0  0  0  0  0
  -23.6965    3.4872   27.5594 O   0  0  0  0  0  0  0  0  0  0  0  0
  -29.2693   -2.1362   31.7434 C   0  0  0  0  0  0  0  0  0  0  0  0
  -30.1357   -3.0959   32.4941 C   0  0  0  0  0  0  0  0  0  0  0  0
  -30.5914   -4.2586   31.8546 C   0  0  0  0  0  0  0  0  0  0  0  0
  -30.1843   -4.5599   30.5600 C   0  0  0  0  0  0  0  0  0  0  0  0
  -29.2843   -3.7546   29.9743 C   0  0  0  0  0  0  0  0  0  0  0  0
  -31.5481   -5.1716   32.5614 C   0  0  0  0  0  0  0  0  0  0  0  0
  -31.8712   -6.2014   32.0918 C   0  0  0  0  0  0  0  0  0  0  0  0
  -31.4216   -6.6377   30.7049 C   0  0  0  0  0  0  0  0  0  0  0  0
  1  2  1  0
  1  8  1  0
  1  9  2  0
  8 10  1  0
  5 11  1  0
 11 12  1  0
 11 13  2  0
 16 19  1  0
 19 20  2  3
 20 21  1  0
  2  3  2  0
  3  4  1  0
  4  5  2  0
  5  6  1  0
  6  7  2  0
  7  2  1  0
 10 14  2  0
 14 15  1  0
 15 16  2  0
 16 17  1  0
 17 18  2  0
 18 10  1  0
M  END

$$$$
