No_649-gen_results/8p0m/2024-11-26-14-13-15/
     RDKit          3D

 35 38  0  0  0  0  0  0  0  0999 V2000
  -28.1229   -1.3353   28.4874 O   0  0  0  0  0  0  0  0  0  0  0  0
  -27.4806   -0.4044   28.7094 C   0  0  0  0  0  0  0  0  0  0  0  0
  -27.1904    0.2460   29.5268 C   0  0  0  0  0  0  0  0  0  0  0  0
  -26.6871   -0.0001   27.4423 N   0  0  0  0  0  0  0  0  0  0  0  0
  -26.3501    1.4331   29.7418 C   0  0  0  0  0  0  0  0  0  0  0  0
  -25.8445    1.0999   27.3990 C   0  0  0  0  0  0  0  0  0  0  0  0
  -25.6695    1.8265   28.6078 C   0  0  0  0  0  0  0  0  0  0  0  0
  -27.8644   -0.1127   30.9563 C   0  0  0  0  0  0  0  0  0  0  0  0
  -29.0650    0.7011   31.2091 C   0  0  0  0  0  0  0  0  0  0  0  0
  -29.7564    0.2952   32.1326 C   0  0  0  0  0  0  0  0  0  0  0  0
  -29.4451   -0.8444   33.0175 C   0  0  0  0  0  0  0  0  0  0  0  0
  -28.3455   -1.5819   32.6946 C   0  0  0  0  0  0  0  0  0  0  0  0
  -27.5386   -1.2424   31.6196 C   0  0  0  0  0  0  0  0  0  0  0  0
  -24.7713    2.9898   28.6313 C   0  0  0  0  0  0  0  0  0  0  0  0
  -24.4412    3.4716   29.4970 O   0  0  0  0  0  0  0  0  0  0  0  0
  -24.3842    3.4550   27.4251 O   0  0  0  0  0  0  0  0  0  0  0  0
  -26.4964   -1.9543   31.2185 O   0  0  0  0  0  0  0  0  0  0  0  0
  -30.9490    1.1519   32.6058 C   0  0  0  0  0  0  0  0  0  0  0  0
  -31.8796    0.9752   32.0254 F   0  0  0  0  0  0  0  0  0  0  0  0
  -31.1863    0.8466   33.9547 F   0  0  0  0  0  0  0  0  0  0  0  0
  -30.5909    2.4325   32.6615 F   0  0  0  0  0  0  0  0  0  0  0  0
  -25.2143   -1.4484   31.3618 C   0  0  0  0  0  0  0  0  0  0  0  0
  -24.7838   -0.7270   32.4135 C   0  0  0  0  0  0  0  0  0  0  0  0
  -24.2939   -1.7367   30.2516 C   0  0  0  0  0  0  0  0  0  0  0  0
  -23.3830   -1.0296   30.0124 C   0  0  0  0  0  0  0  0  0  0  0  0
  -22.7973   -0.1506   31.0613 C   0  0  0  0  0  0  0  0  0  0  0  0
  -23.6159    0.0920   32.1799 C   0  0  0  0  0  0  0  0  0  0  0  0
  -22.4345   -1.1825   28.8435 C   0  0  0  0  0  0  0  0  0  0  0  0
  -21.7879    0.1138   28.4283 C   0  0  0  0  0  0  0  0  0  0  0  0
  -22.6664    1.0918   27.8355 C   0  0  0  0  0  0  0  0  0  0  0  0
  -21.9803    2.1995   27.2635 C   0  0  0  0  0  0  0  0  0  0  0  0
  -20.4328    0.2777   28.4748 C   0  0  0  0  0  0  0  0  0  0  0  0
  -19.7970   -0.7551   29.0042 F   0  0  0  0  0  0  0  0  0  0  0  0
  -20.5743    2.2173   27.2751 C   0  0  0  0  0  0  0  0  0  0  0  0
  -19.8708    1.3295   27.9051 C   0  0  0  0  0  0  0  0  0  0  0  0
  1  2  2  0
  2  3  1  0
  2  4  1  0
  3  5  1  0
  5  7  1  0
  6  7  1  0
  3  8  1  0
  7 14  1  0
 14 15  2  0
 14 16  1  0
 13 17  1  0
 10 18  1  0
 18 19  1  0
 18 20  1  0
 18 21  1  0
 17 22  1  0
 25 28  1  0
 28 29  1  0
 32 33  1  0
  6  4  1  0
 22 23  2  0
 23 27  1  0
 27 26  2  0
 26 25  1  0
 25 24  2  0
 24 22  1  0
 29 30  2  0
 30 31  1  0
 31 34  2  0
 34 35  1  0
 35 32  2  0
 32 29  1  0
  8  9  2  0
  9 10  1  0
 10 11  2  0
 11 12  1  0
 12 13  2  0
 13  8  1  0
M  END

$$$$
