No_665-gen_results/8p0m/2024-11-26-14-13-15/
     RDKit          3D

 15 16  0  0  0  0  0  0  0  0999 V2000
  -28.0162   -0.8135   28.8779 C   0  0  0  0  0  0  0  0  0  0  0  0
  -28.4690   -0.7850   29.8287 C   0  0  0  0  0  0  0  0  0  0  0  0
  -28.1816    0.4277   28.1134 C   0  0  0  0  0  0  0  0  0  0  0  0
  -28.9841    1.4155   28.5154 C   0  0  0  0  0  0  0  0  0  0  0  0
  -28.3375   -2.0481   30.7873 C   0  0  0  0  0  0  0  0  0  0  0  0
  -29.5615    1.2930   29.7416 C   0  0  0  0  0  0  0  0  0  0  0  0
  -30.3704    2.2942   30.2808 C   0  0  0  0  0  0  0  0  0  0  0  0
  -29.2364    0.1209   30.4333 C   0  0  0  0  0  0  0  0  0  0  0  0
  -27.6572   -2.0580   31.6526 O   0  0  0  0  0  0  0  0  0  0  0  0
  -28.9434   -3.1702   30.3431 O   0  0  0  0  0  0  0  0  0  0  0  0
  -31.2052    2.8493   29.7361 C   0  0  0  0  0  0  0  0  0  0  0  0
  -32.0588    3.6996   30.0249 C   0  0  0  0  0  0  0  0  0  0  0  0
  -32.0420    4.0737   31.4790 C   0  0  0  0  0  0  0  0  0  0  0  0
  -31.1223    3.4501   32.2657 C   0  0  0  0  0  0  0  0  0  0  0  0
  -30.2776    2.5323   31.7431 C   0  0  0  0  0  0  0  0  0  0  0  0
  2  5  1  0
  6  7  1  0
  5  9  2  0
  5 10  1  0
  1  2  2  0
  2  8  1  0
  8  6  2  0
  6  4  1  0
  4  3  2  0
  3  1  1  0
  7 11  2  0
 11 12  1  0
 12 13  2  0
 13 14  1  0
 14 15  2  0
 15  7  1  0
M  END

$$$$
