No_626-gen_results/8p0m/2024-11-26-14-13-15/
     RDKit          3D

 23 25  0  0  0  0  0  0  0  0999 V2000
  -28.0162   -0.8135   28.8779 C   0  0  0  0  0  0  0  0  0  0  0  0
  -27.0636   -0.1189   28.6079 C   0  0  0  0  0  0  0  0  0  0  0  0
  -25.7923   -0.4302   29.0761 C   0  0  0  0  0  0  0  0  0  0  0  0
  -25.5756   -1.5654   29.9363 C   0  0  0  0  0  0  0  0  0  0  0  0
  -26.7354   -2.3004   30.2173 C   0  0  0  0  0  0  0  0  0  0  0  0
  -27.9184   -1.9537   29.7629 C   0  0  0  0  0  0  0  0  0  0  0  0
  -29.0001   -2.7012   30.1151 O   0  0  0  0  0  0  0  0  0  0  0  0
  -24.6795    0.2962   28.8383 F   0  0  0  0  0  0  0  0  0  0  0  0
  -28.8871   -3.9481   30.5874 C   0  0  0  0  0  0  0  0  0  0  0  0
  -30.0731   -4.7689   30.2308 C   0  0  0  0  0  0  0  0  0  0  0  0
  -30.4670   -5.6124   31.2798 C   0  0  0  0  0  0  0  0  0  0  0  0
  -29.5760   -5.9830   32.3457 C   0  0  0  0  0  0  0  0  0  0  0  0
  -28.5913   -5.0542   32.6310 C   0  0  0  0  0  0  0  0  0  0  0  0
  -28.2112   -4.1852   31.8375 C   0  0  0  0  0  0  0  0  0  0  0  0
  -30.0496   -7.0878   33.1993 C   0  0  0  0  0  0  0  0  0  0  0  0
  -29.8978   -8.2255   32.8229 N   0  0  0  0  0  0  0  0  0  0  0  0
  -30.1614   -8.6426   31.6213 C   0  0  0  0  0  0  0  0  0  0  0  0
  -30.0923  -10.0681   31.2815 C   0  0  0  0  0  0  0  0  0  0  0  0
  -29.4089   -9.3294   33.6891 C   0  0  0  0  0  0  0  0  0  0  0  0
  -29.2941  -10.6150   33.3973 C   0  0  0  0  0  0  0  0  0  0  0  0
  -29.5860  -10.9805   32.0905 C   0  0  0  0  0  0  0  0  0  0  0  0
  -31.2262   -6.9644   33.7677 F   0  0  0  0  0  0  0  0  0  0  0  0
  -29.1935   -6.9715   34.3634 F   0  0  0  0  0  0  0  0  0  0  0  0
  6  7  1  0
  3  8  1  0
  7  9  1  0
 12 15  1  0
 15 16  1  0
 16 17  1  0
 16 19  1  0
 18 21  1  0
 20 21  1  0
 15 22  1  0
 15 23  1  0
 17 18  1  0
 20 19  1  0
  1  2  2  0
  2  3  1  0
  3  4  2  0
  4  5  1  0
  5  6  2  0
  6  1  1  0
  9 10  2  0
 10 11  1  0
 11 12  2  0
 12 13  1  0
 13 14  2  0
 14  9  1  0
M  END

$$$$
