No_667-gen_results/8p0m/2024-11-26-14-13-15/
     RDKit          3D

 31 33  0  0  0  0  0  0  0  0999 V2000
  -28.0544   -1.0498   28.7246 N   0  0  0  0  0  0  0  0  0  0  0  0
  -26.9659   -0.4722   28.7709 C   0  0  0  0  0  0  0  0  0  0  0  0
  -25.9289   -1.0196   29.5059 C   0  0  0  0  0  0  0  0  0  0  0  0
  -24.5844   -0.4437   29.6599 C   0  0  0  0  0  0  0  0  0  0  0  0
  -24.3615    0.7792   28.9691 C   0  0  0  0  0  0  0  0  0  0  0  0
  -25.4238    1.3029   28.1832 C   0  0  0  0  0  0  0  0  0  0  0  0
  -26.6399    0.7108   28.0777 C   0  0  0  0  0  0  0  0  0  0  0  0
  -28.9866   -0.6295   29.6997 C   0  0  0  0  0  0  0  0  0  0  0  0
  -29.9759   -0.7430   29.8327 C   0  0  0  0  0  0  0  0  0  0  0  0
  -30.8439   -0.2903   30.9437 C   0  0  0  0  0  0  0  0  0  0  0  0
  -30.2160    0.4157   31.9521 C   0  0  0  0  0  0  0  0  0  0  0  0
  -28.2489    0.0915   30.8004 C   0  0  0  0  0  0  0  0  0  0  0  0
  -28.9282    0.5330   31.8995 C   0  0  0  0  0  0  0  0  0  0  0  0
  -23.0238    1.3196   29.0326 C   0  0  0  0  0  0  0  0  0  0  0  0
  -22.1794    0.9347   28.2618 O   0  0  0  0  0  0  0  0  0  0  0  0
  -22.9395    2.5889   29.5240 O   0  0  0  0  0  0  0  0  0  0  0  0
  -27.6080    1.3147   27.4449 F   0  0  0  0  0  0  0  0  0  0  0  0
  -26.0264   -2.2589   30.3631 C   0  0  0  0  0  0  0  0  0  0  0  0
  -26.7770   -3.1025   29.6587 F   0  0  0  0  0  0  0  0  0  0  0  0
  -26.6994   -1.9586   31.4938 F   0  0  0  0  0  0  0  0  0  0  0  0
  -24.8683   -2.7311   30.6004 F   0  0  0  0  0  0  0  0  0  0  0  0
  -32.3397   -0.5395   30.9449 C   0  0  0  0  0  0  0  0  0  0  0  0
  -32.8998   -1.1435   30.3078 O   0  0  0  0  0  0  0  0  0  0  0  0
  -33.0411    0.3315   31.7960 O   0  0  0  0  0  0  0  0  0  0  0  0
  -34.3003    0.2226   31.9744 C   0  0  0  0  0  0  0  0  0  0  0  0
  -34.7791   -0.5309   33.0090 C   0  0  0  0  0  0  0  0  0  0  0  0
  -36.0175   -0.8730   33.1286 C   0  0  0  0  0  0  0  0  0  0  0  0
  -36.5116   -1.7104   34.1961 C   0  0  0  0  0  0  0  0  0  0  0  0
  -35.5549   -2.1799   35.1489 C   0  0  0  0  0  0  0  0  0  0  0  0
  -34.2202   -1.8340   35.0071 C   0  0  0  0  0  0  0  0  0  0  0  0
  -33.7961   -1.0317   33.9965 C   0  0  0  0  0  0  0  0  0  0  0  0
  1  2  1  0
  1  8  1  0
  5 14  1  0
 14 15  2  0
 14 16  1  0
  7 17  1  0
  3 18  1  0
 18 19  1  0
 18 20  1  0
 18 21  1  0
 10 22  1  0
 22 23  2  0
 22 24  1  0
 24 25  1  0
 25 26  1  0
 26 27  2  0
 27 28  1  0
 28 29  2  0
 29 30  1  0
 30 31  2  0
 31 26  1  0
  2  3  2  0
  3  4  1  0
  4  5  2  0
  5  6  1  0
  6  7  2  0
  7  2  1  0
  8  9  2  0
  9 10  1  0
 10 11  2  0
 11 13  1  0
 13 12  2  0
 12  8  1  0
M  END

$$$$
