No_641-gen_results/8p0m/2024-11-26-14-13-15/
     RDKit          3D

 19 21  0  0  0  0  0  0  0  0999 V2000
  -28.0162   -0.8135   28.8779 C   0  0  0  0  0  0  0  0  0  0  0  0
  -27.0636   -0.1189   28.6079 C   0  0  0  0  0  0  0  0  0  0  0  0
  -26.9716    0.7139   27.5060 C   0  0  0  0  0  0  0  0  0  0  0  0
  -25.8205    1.4910   27.1160 C   0  0  0  0  0  0  0  0  0  0  0  0
  -24.6562    1.4242   27.9180 C   0  0  0  0  0  0  0  0  0  0  0  0
  -24.6847    0.5901   29.0659 C   0  0  0  0  0  0  0  0  0  0  0  0
  -25.8099   -0.1265   29.3338 C   0  0  0  0  0  0  0  0  0  0  0  0
  -28.0445   -1.5734   30.1690 C   0  0  0  0  0  0  0  0  0  0  0  0
  -26.8172   -1.7595   30.8704 C   0  0  0  0  0  0  0  0  0  0  0  0
  -25.7477   -0.9917   30.5376 C   0  0  0  0  0  0  0  0  0  0  0  0
  -23.4587    2.2281   27.5845 C   0  0  0  0  0  0  0  0  0  0  0  0
  -22.3400    1.9846   28.1432 O   0  0  0  0  0  0  0  0  0  0  0  0
  -23.6155    3.3124   26.9306 O   0  0  0  0  0  0  0  0  0  0  0  0
  -28.0952    0.8093   26.5373 C   0  0  0  0  0  0  0  0  0  0  0  0
  -27.9552    0.6974   25.2441 C   0  0  0  0  0  0  0  0  0  0  0  0
  -29.0025    0.5171   24.3528 C   0  0  0  0  0  0  0  0  0  0  0  0
  -30.2728    0.4524   24.8542 C   0  0  0  0  0  0  0  0  0  0  0  0
  -30.4511    0.5468   25.9183 C   0  0  0  0  0  0  0  0  0  0  0  0
  -29.4685    0.6465   27.0402 C   0  0  0  0  0  0  0  0  0  0  0  0
  5 11  1  0
 11 12  2  0
 11 13  1  0
  3 14  1  0
  2  3  1  0
  3  4  2  0
  4  5  1  0
  5  6  2  0
  6  7  1  0
  1  2  2  0
  2  7  1  0
  7 10  2  0
 10  9  1  0
  9  8  2  0
  8  1  1  0
 14 15  2  0
 15 16  1  0
 16 17  2  0
 17 18  1  0
 18 19  2  0
 19 14  1  0
M  END

$$$$
