No_648-gen_results/8p0m/2024-11-26-14-13-15/
     RDKit          3D

 24 25  0  0  0  0  0  0  0  0999 V2000
  -28.0162   -0.8135   28.8779 C   0  0  0  0  0  0  0  0  0  0  0  0
  -27.0636   -0.1189   28.6079 C   0  0  0  0  0  0  0  0  0  0  0  0
  -25.7647   -0.3897   29.0360 C   0  0  0  0  0  0  0  0  0  0  0  0
  -25.5296   -1.5302   29.9014 C   0  0  0  0  0  0  0  0  0  0  0  0
  -26.6888   -2.2893   30.1810 C   0  0  0  0  0  0  0  0  0  0  0  0
  -27.8727   -1.9508   29.7373 C   0  0  0  0  0  0  0  0  0  0  0  0
  -28.9304   -2.7298   30.1154 O   0  0  0  0  0  0  0  0  0  0  0  0
  -24.5394    0.4211   28.7421 C   0  0  0  0  0  0  0  0  0  0  0  0
  -23.3459    0.1143   29.1690 C   0  0  0  0  0  0  0  0  0  0  0  0
  -22.1936    0.8740   28.7553 C   0  0  0  0  0  0  0  0  0  0  0  0
  -22.3615    1.8342   27.6952 C   0  0  0  0  0  0  0  0  0  0  0  0
  -24.5980    1.3584   27.6395 C   0  0  0  0  0  0  0  0  0  0  0  0
  -23.5460    2.0827   27.2326 C   0  0  0  0  0  0  0  0  0  0  0  0
  -30.0628   -2.2190   30.5756 C   0  0  0  0  0  0  0  0  0  0  0  0
  -31.1021   -2.9170   30.2262 C   0  0  0  0  0  0  0  0  0  0  0  0
  -31.9521   -2.9843   30.8441 F   0  0  0  0  0  0  0  0  0  0  0  0
  -31.5780   -2.4799   28.9803 F   0  0  0  0  0  0  0  0  0  0  0  0
  -29.8980   -2.2596   32.0983 N   0  0  0  0  0  0  0  0  0  0  0  0
  -30.8024   -4.2495   29.8089 F   0  0  0  0  0  0  0  0  0  0  0  0
  -30.1241   -1.1912   32.8250 C   0  0  0  0  0  0  0  0  0  0  0  0
  -30.0666    0.0554   32.3769 C   0  0  0  0  0  0  0  0  0  0  0  0
  -29.9674    0.4410   31.2725 C   0  0  0  0  0  0  0  0  0  0  0  0
  -29.8651    1.8583   30.8598 C   0  0  0  0  0  0  0  0  0  0  0  0
  -29.8702    2.7307   31.8667 C   0  0  0  0  0  0  0  0  0  0  0  0
  6  7  1  0
  3  8  1  0
  7 14  1  0
 14 15  1  0
 15 16  1  0
 15 17  1  0
 14 18  1  0
 15 19  1  0
 18 20  1  0
 20 21  2  3
 21 22  1  0
 22 23  2  3
 23 24  1  0
  1  2  2  0
  2  3  1  0
  3  4  2  0
  4  5  1  0
  5  6  2  0
  6  1  1  0
  8  9  2  0
  9 10  1  0
 10 11  2  0
 11 13  1  0
 13 12  2  0
 12  8  1  0
M  END

$$$$
