No_674-gen_results/8p0m/2024-11-26-14-13-15/
     RDKit          3D

 25 28  0  0  0  0  0  0  0  0999 V2000
  -28.0162   -0.8135   28.8779 C   0  0  0  0  0  0  0  0  0  0  0  0
  -27.0636   -0.1189   28.6079 C   0  0  0  0  0  0  0  0  0  0  0  0
  -26.8756    1.1325   28.9134 C   0  0  0  0  0  0  0  0  0  0  0  0
  -25.6883    1.9515   28.5672 C   0  0  0  0  0  0  0  0  0  0  0  0
  -24.6394    1.2834   27.8753 C   0  0  0  0  0  0  0  0  0  0  0  0
  -24.8068   -0.0513   27.6040 C   0  0  0  0  0  0  0  0  0  0  0  0
  -25.9019   -0.7670   27.9511 C   0  0  0  0  0  0  0  0  0  0  0  0
  -28.6455   -0.5282   30.2428 C   0  0  0  0  0  0  0  0  0  0  0  0
  -29.5544   -1.0303   30.6491 C   0  0  0  0  0  0  0  0  0  0  0  0
  -30.1656   -0.8377   31.9377 C   0  0  0  0  0  0  0  0  0  0  0  0
  -23.4526    1.9904   27.4567 C   0  0  0  0  0  0  0  0  0  0  0  0
  -29.6412    0.1649   32.7471 C   0  0  0  0  0  0  0  0  0  0  0  0
  -28.5026    0.8124   32.2845 C   0  0  0  0  0  0  0  0  0  0  0  0
  -27.9863    0.4931   31.0987 C   0  0  0  0  0  0  0  0  0  0  0  0
  -27.4548    1.5981   30.1846 N   0  0  0  0  0  0  0  0  0  0  0  0
  -27.5235    2.9270   30.5480 C   0  0  0  0  0  0  0  0  0  0  0  0
  -22.3110    1.6948   27.8458 O   0  0  0  0  0  0  0  0  0  0  0  0
  -23.6375    3.0347   26.6599 O   0  0  0  0  0  0  0  0  0  0  0  0
  -28.5528    3.7178   30.0752 C   0  0  0  0  0  0  0  0  0  0  0  0
  -29.5295    3.3641   29.3772 C   0  0  0  0  0  0  0  0  0  0  0  0
  -30.5024    4.1693   28.8849 C   0  0  0  0  0  0  0  0  0  0  0  0
  -30.4592    5.5074   29.2626 C   0  0  0  0  0  0  0  0  0  0  0  0
  -29.4704    5.9965   30.0313 C   0  0  0  0  0  0  0  0  0  0  0  0
  -28.4395    5.1447   30.4915 C   0  0  0  0  0  0  0  0  0  0  0  0
  -26.2588    3.3985   31.5697 Cl  0  0  0  0  0  0  0  0  0  0  0  0
  2  3  1  0
  3  4  1  0
  4  5  1  0
  5  6  1  0
  2  7  1  0
  6  7  1  0
  1  8  1  0
  5 11  1  0
  3 15  1  0
 14 15  1  0
 15 16  1  0
 11 17  2  0
 11 18  1  0
 16 19  1  0
 16 25  1  0
  2  1  1  0
  8  9  2  0
  9 10  1  0
 10 12  2  0
 12 13  1  0
 13 14  2  0
 14  8  1  0
 19 20  2  0
 20 21  1  0
 21 22  2  0
 22 23  1  0
 23 24  2  0
 24 19  1  0
M  END

$$$$
