No_6-gen_results/8p0m/2024-11-26-14-13-15/
     RDKit          3D

 11 12  0  0  0  0  0  0  0  0999 V2000
  -28.0544   -1.0498   28.7246 N   0  0  0  0  0  0  0  0  0  0  0  0
  -27.7460   -0.0733   29.0098 C   0  0  0  0  0  0  0  0  0  0  0  0
  -27.1741    0.7325   28.8254 C   0  0  0  0  0  0  0  0  0  0  0  0
  -26.9592    2.0624   29.5303 C   0  0  0  0  0  0  0  0  0  0  0  0
  -26.0986    3.1477   29.2060 C   0  0  0  0  0  0  0  0  0  0  0  0
  -25.2605    2.9749   28.0359 C   0  0  0  0  0  0  0  0  0  0  0  0
  -25.3477    1.8080   27.3020 C   0  0  0  0  0  0  0  0  0  0  0  0
  -26.1392    0.8040   27.6343 C   0  0  0  0  0  0  0  0  0  0  0  0
  -28.2782   -0.0458   30.3989 N   0  0  0  0  0  0  0  0  0  0  0  0
  -29.0176   -1.2288   30.7089 C   0  0  0  0  0  0  0  0  0  0  0  0
  -28.7033   -1.9175   29.6466 C   0  0  0  0  0  0  0  0  0  0  0  0
  1  2  1  0
  2  9  1  0
  9 10  2  0
  1 11  2  0
 10 11  1  0
  2  3  1  0
  3  4  2  0
  4  5  1  0
  5  6  2  0
  6  7  1  0
  7  8  2  0
  8  3  1  0
M  END

$$$$
