No_678-gen_results/8p0m/2024-11-26-14-13-15/
     RDKit          3D

 23 26  0  0  0  0  0  0  0  0999 V2000
  -28.0162   -0.8135   28.8779 C   0  0  0  0  0  0  0  0  0  0  0  0
  -27.0636   -0.1189   28.6079 C   0  0  0  0  0  0  0  0  0  0  0  0
  -26.9716    0.7139   27.5060 C   0  0  0  0  0  0  0  0  0  0  0  0
  -25.8205    1.4909   27.1160 C   0  0  0  0  0  0  0  0  0  0  0  0
  -24.6562    1.4242   27.9180 C   0  0  0  0  0  0  0  0  0  0  0  0
  -24.6847    0.5901   29.0659 C   0  0  0  0  0  0  0  0  0  0  0  0
  -25.8099   -0.1266   29.3338 C   0  0  0  0  0  0  0  0  0  0  0  0
  -29.2444   -0.0768   29.2011 C   0  0  0  0  0  0  0  0  0  0  0  0
  -30.3707   -0.8034   29.6891 C   0  0  0  0  0  0  0  0  0  0  0  0
  -23.4608    2.1939   27.6006 C   0  0  0  0  0  0  0  0  0  0  0  0
  -22.2219    1.6760   28.1592 C   0  0  0  0  0  0  0  0  0  0  0  0
  -22.2292    0.8070   29.2408 C   0  0  0  0  0  0  0  0  0  0  0  0
  -23.4462    0.1962   29.7116 C   0  0  0  0  0  0  0  0  0  0  0  0
  -30.1290   -1.9132   30.2699 N   0  0  0  0  0  0  0  0  0  0  0  0
  -31.5333   -0.5743   29.2792 O   0  0  0  0  0  0  0  0  0  0  0  0
  -31.2218   -2.8582   30.6592 C   0  0  0  0  0  0  0  0  0  0  0  0
  -29.3602    1.1820   29.0660 O   0  0  0  0  0  0  0  0  0  0  0  0
  -30.9099   -3.8130   30.9826 C   0  0  0  0  0  0  0  0  0  0  0  0
  -29.4856   -4.3533   31.2320 C   0  0  0  0  0  0  0  0  0  0  0  0
  -28.5176   -3.4642   30.8018 C   0  0  0  0  0  0  0  0  0  0  0  0
  -28.8041   -2.3953   30.3812 C   0  0  0  0  0  0  0  0  0  0  0  0
  -27.8064   -1.7146   29.7349 N   0  0  0  0  0  0  0  0  0  0  0  0
  -25.8560    2.3613   25.9762 C   0  0  0  0  0  0  0  0  0  0  0  0
  1  8  1  0
  8  9  1  0
  9 14  1  0
  9 15  2  0
 14 16  1  0
  8 17  2  0
 18 19  1  0
 14 21  1  0
 20 21  1  0
  1 22  1  0
 21 22  1  0
  4 23  1  0
  1  2  1  0
 16 18  1  0
 19 20  1  0
  6 13  1  0
 13 12  2  0
 12 11  1  0
 11 10  2  0
 10  5  1  0
  2  3  2  0
  3  4  1  0
  4  5  2  0
  5  6  1  0
  6  7  2  0
  7  2  1  0
M  END

$$$$
