No_634-gen_results/8p0m/2024-11-26-14-13-15/
     RDKit          3D

 17 18  0  0  0  0  0  0  0  0999 V2000
  -28.0162   -0.8135   28.8779 C   0  0  0  0  0  0  0  0  0  0  0  0
  -28.4690   -0.7850   29.8287 C   0  0  0  0  0  0  0  0  0  0  0  0
  -28.1960    0.3478   28.0550 C   0  0  0  0  0  0  0  0  0  0  0  0
  -29.0191    1.3501   28.3782 C   0  0  0  0  0  0  0  0  0  0  0  0
  -29.4107    0.1803   30.3782 C   0  0  0  0  0  0  0  0  0  0  0  0
  -29.6059    1.2495   29.6193 C   0  0  0  0  0  0  0  0  0  0  0  0
  -27.4597    0.3802   26.7091 C   0  0  0  0  0  0  0  0  0  0  0  0
  -26.4659    1.4084   26.5648 C   0  0  0  0  0  0  0  0  0  0  0  0
  -25.2449    1.3279   27.3559 C   0  0  0  0  0  0  0  0  0  0  0  0
  -24.3040    2.2993   27.2314 C   0  0  0  0  0  0  0  0  0  0  0  0
  -23.0865    2.2908   27.9633 C   0  0  0  0  0  0  0  0  0  0  0  0
  -22.7829    1.1055   28.7621 C   0  0  0  0  0  0  0  0  0  0  0  0
  -23.7196    0.1211   28.8175 C   0  0  0  0  0  0  0  0  0  0  0  0
  -24.9189    0.1881   28.1423 C   0  0  0  0  0  0  0  0  0  0  0  0
  -27.0197    2.7514   26.8929 C   0  0  0  0  0  0  0  0  0  0  0  0
  -26.0789    1.4029   25.0545 C   0  0  0  0  0  0  0  0  0  0  0  0
  -27.8527   -0.3232   25.7991 O   0  0  0  0  0  0  0  0  0  0  0  0
  3  7  1  0
  7  8  1  0
  8  9  1  0
  8 15  1  0
  8 16  1  0
  7 17  2  0
  9 10  2  0
 10 11  1  0
 11 12  2  0
 12 13  1  0
 13 14  2  0
 14  9  1  0
  1  2  2  0
  2  5  1  0
  5  6  2  0
  6  4  1  0
  4  3  2  0
  3  1  1  0
M  END

$$$$
