No_613-gen_results/8p0m/2024-11-26-14-13-15/
     RDKit          3D

 35 39  0  0  0  0  0  0  0  0999 V2000
  -28.0162   -0.8135   28.8779 C   0  0  0  0  0  0  0  0  0  0  0  0
  -27.0636   -0.1190   28.6079 C   0  0  0  0  0  0  0  0  0  0  0  0
  -26.9716    0.7139   27.5060 C   0  0  0  0  0  0  0  0  0  0  0  0
  -28.1053    0.7744   26.6421 C   0  0  0  0  0  0  0  0  0  0  0  0
  -29.2008    0.1044   27.0527 C   0  0  0  0  0  0  0  0  0  0  0  0
  -28.0219   -1.5899   30.0879 C   0  0  0  0  0  0  0  0  0  0  0  0
  -29.1640   -0.6394   28.1484 C   0  0  0  0  0  0  0  0  0  0  0  0
  -28.8376   -1.8977   30.7662 N   0  0  0  0  0  0  0  0  0  0  0  0
  -26.9169   -2.4601   30.1615 O   0  0  0  0  0  0  0  0  0  0  0  0
  -30.0908   -1.1159   30.8995 C   0  0  0  0  0  0  0  0  0  0  0  0
  -31.0887   -1.7265   31.6001 C   0  0  0  0  0  0  0  0  0  0  0  0
  -29.0291   -3.1060   31.5776 C   0  0  0  0  0  0  0  0  0  0  0  0
  -29.9272   -3.6237   31.7171 C   0  0  0  0  0  0  0  0  0  0  0  0
  -31.0840   -2.9285   32.2570 C   0  0  0  0  0  0  0  0  0  0  0  0
  -28.0280    1.6352   25.4399 C   0  0  0  0  0  0  0  0  0  0  0  0
  -26.9909    1.7249   24.7278 C   0  0  0  0  0  0  0  0  0  0  0  0
  -29.2757    2.2640   25.0232 C   0  0  0  0  0  0  0  0  0  0  0  0
  -29.4296    3.5253   25.4706 C   0  0  0  0  0  0  0  0  0  0  0  0
  -28.5177    4.2588   26.0401 C   0  0  0  0  0  0  0  0  0  0  0  0
  -28.7987    5.6308   26.4772 C   0  0  0  0  0  0  0  0  0  0  0  0
  -30.0819    6.0975   26.2928 C   0  0  0  0  0  0  0  0  0  0  0  0
  -31.0871    5.3198   25.7741 C   0  0  0  0  0  0  0  0  0  0  0  0
  -30.7771    4.0474   25.3310 C   0  0  0  0  0  0  0  0  0  0  0  0
  -30.0371    1.5475   24.1626 C   0  0  0  0  0  0  0  0  0  0  0  0
  -31.7337    3.2886   24.6691 C   0  0  0  0  0  0  0  0  0  0  0  0
  -31.3676    2.0833   24.0139 C   0  0  0  0  0  0  0  0  0  0  0  0
  -33.0389    3.8642   24.2707 C   0  0  0  0  0  0  0  0  0  0  0  0
  -33.5210    3.7483   23.1364 C   0  0  0  0  0  0  0  0  0  0  0  0
  -34.4691    4.2752   22.6809 C   0  0  0  0  0  0  0  0  0  0  0  0
  -35.2593    5.2048   23.5298 C   0  0  0  0  0  0  0  0  0  0  0  0
  -34.7983    5.4045   24.7876 C   0  0  0  0  0  0  0  0  0  0  0  0
  -33.6660    4.8417   25.1869 C   0  0  0  0  0  0  0  0  0  0  0  0
  -32.3268    1.1972   23.3390 C   0  0  0  0  0  0  0  0  0  0  0  0
  -33.1185    0.4652   24.2189 C   0  0  0  0  0  0  0  0  0  0  0  0
  -32.5929   -0.3407   25.0793 C   0  0  0  0  0  0  0  0  0  0  0  0
  1  6  1  0
  6  8  1  0
  6  9  2  0
  8 10  1  0
  8 12  1  0
 12 13  1  0
 11 14  1  0
  4 15  1  0
 15 16  1  0
 15 17  1  0
 25 27  1  0
 26 33  1  0
 33 34  1  0
 34 35  2  0
 10 11  1  0
 14 13  1  0
 18 19  2  0
 19 20  1  0
 20 21  2  0
 21 22  1  0
 22 23  2  0
 27 28  2  0
 28 29  1  0
 29 30  2  0
 30 31  1  0
 31 32  2  0
 32 27  1  0
  1  2  2  0
  2  3  1  0
  3  4  2  0
  4  5  1  0
  5  7  2  0
  7  1  1  0
 17 18  1  0
 18 23  1  0
 23 25  1  0
 25 26  2  0
 26 24  1  0
 24 17  2  0
M  END

$$$$
