No_620-gen_results/8p0m/2024-11-26-14-13-15/
     RDKit          3D

 15 16  0  0  0  0  0  0  0  0999 V2000
  -28.0162   -0.8135   28.8779 C   0  0  0  0  0  0  0  0  0  0  0  0
  -28.4690   -0.7850   29.8287 C   0  0  0  0  0  0  0  0  0  0  0  0
  -26.5455   -0.8762   28.8500 C   0  0  0  0  0  0  0  0  0  0  0  0
  -25.8041   -1.0324   30.0571 C   0  0  0  0  0  0  0  0  0  0  0  0
  -24.3697   -1.0998   30.0719 C   0  0  0  0  0  0  0  0  0  0  0  0
  -27.9902   -1.0051   31.2092 C   0  0  0  0  0  0  0  0  0  0  0  0
  -26.5616   -1.1368   31.2600 C   0  0  0  0  0  0  0  0  0  0  0  0
  -23.6342   -0.7826   29.0667 C   0  0  0  0  0  0  0  0  0  0  0  0
  -22.1763   -0.6779   29.1657 C   0  0  0  0  0  0  0  0  0  0  0  0
  -21.5613    0.4612   28.8574 C   0  0  0  0  0  0  0  0  0  0  0  0
  -22.0743    1.3825   27.8971 C   0  0  0  0  0  0  0  0  0  0  0  0
  -23.4886    1.3132   27.6784 C   0  0  0  0  0  0  0  0  0  0  0  0
  -24.2585    0.3705   28.2884 C   0  0  0  0  0  0  0  0  0  0  0  0
  -25.8013   -0.3027   27.8527 F   0  0  0  0  0  0  0  0  0  0  0  0
  -24.9426    1.2205   29.1445 F   0  0  0  0  0  0  0  0  0  0  0  0
  4  5  1  0
  3 14  1  0
 13 15  1  0
  5  8  1  0
  1  2  2  0
  2  6  1  0
  6  7  2  0
  7  4  1  0
  4  3  2  0
  3  1  1  0
  8  9  2  0
  9 10  1  0
 10 11  2  0
 11 12  1  0
 12 13  2  0
 13  8  1  0
M  END

$$$$
