No_685-gen_results/8p0m/2024-11-26-14-13-15/
     RDKit          3D

 33 36  0  0  0  0  0  0  0  0999 V2000
  -28.0162   -0.8135   28.8779 C   0  0  0  0  0  0  0  0  0  0  0  0
  -28.4690   -0.7850   29.8287 C   0  0  0  0  0  0  0  0  0  0  0  0
  -27.0871    0.2903   28.6377 C   0  0  0  0  0  0  0  0  0  0  0  0
  -26.2516    0.4114   27.4223 C   0  0  0  0  0  0  0  0  0  0  0  0
  -28.3913    0.1041   30.9805 C   0  0  0  0  0  0  0  0  0  0  0  0
  -27.5332    1.1666   30.7866 C   0  0  0  0  0  0  0  0  0  0  0  0
  -26.8281    1.2557   29.6454 C   0  0  0  0  0  0  0  0  0  0  0  0
  -25.3072    0.2921   27.0766 Cl  0  0  0  0  0  0  0  0  0  0  0  0
  -27.4126    0.8368   26.2925 C   0  0  0  0  0  0  0  0  0  0  0  0
  -27.2055    0.5142   25.1167 C   0  0  0  0  0  0  0  0  0  0  0  0
  -28.1762    0.7843   24.0450 C   0  0  0  0  0  0  0  0  0  0  0  0
  -29.2611    1.6221   24.3877 C   0  0  0  0  0  0  0  0  0  0  0  0
  -29.4020    2.0435   25.7596 C   0  0  0  0  0  0  0  0  0  0  0  0
  -28.4936    1.6511   26.7288 C   0  0  0  0  0  0  0  0  0  0  0  0
  -29.3173   -1.9507   30.0455 F   0  0  0  0  0  0  0  0  0  0  0  0
  -30.4399    2.1446   23.1082 Br  0  0  0  0  0  0  0  0  0  0  0  0
  -26.0380    2.2840   29.4123 O   0  0  0  0  0  0  0  0  0  0  0  0
  -24.7585    2.1082   29.9059 C   0  0  0  0  0  0  0  0  0  0  0  0
  -23.9644    1.0265   29.7208 C   0  0  0  0  0  0  0  0  0  0  0  0
  -23.8014    0.3509   30.9536 C   0  0  0  0  0  0  0  0  0  0  0  0
  -23.1756   -0.9318   30.8844 C   0  0  0  0  0  0  0  0  0  0  0  0
  -22.6477   -1.3673   29.6602 C   0  0  0  0  0  0  0  0  0  0  0  0
  -22.6266   -0.5340   28.5644 C   0  0  0  0  0  0  0  0  0  0  0  0
  -23.3175    0.6784   28.6710 C   0  0  0  0  0  0  0  0  0  0  0  0
  -27.3306    2.1268   31.9449 C   0  0  0  0  0  0  0  0  0  0  0  0
  -27.7874    3.1713   32.0470 O   0  0  0  0  0  0  0  0  0  0  0  0
  -26.8651    1.4795   33.0297 O   0  0  0  0  0  0  0  0  0  0  0  0
  -27.2878    4.1523   32.7527 C   0  0  0  0  0  0  0  0  0  0  0  0
  -27.7170    5.4422   32.6530 C   0  0  0  0  0  0  0  0  0  0  0  0
  -27.1249    6.4818   33.4285 C   0  0  0  0  0  0  0  0  0  0  0  0
  -26.0252    6.2405   34.2893 C   0  0  0  0  0  0  0  0  0  0  0  0
  -25.5527    4.8939   34.3271 C   0  0  0  0  0  0  0  0  0  0  0  0
  -26.1221    3.9212   33.5843 C   0  0  0  0  0  0  0  0  0  0  0  0
  3  4  1  0
  4  8  1  0
  4  9  1  0
  2 15  1  0
 12 16  1  0
  7 17  1  0
 17 18  1  0
 18 19  1  0
  6 25  1  0
 25 26  1  0
 25 27  2  0
 26 28  1  0
  9 10  2  0
 10 11  1  0
 11 12  2  0
 12 13  1  0
 13 14  2  0
 14  9  1  0
 28 29  2  0
 29 30  1  0
 30 31  2  0
 31 32  1  0
 32 33  2  0
 33 28  1  0
  1  2  2  0
  2  5  1  0
  5  6  2  0
  6  7  1  0
  7  3  2  0
  3  1  1  0
 19 20  2  0
 20 21  1  0
 21 22  2  0
 22 23  1  0
 23 24  2  0
 24 19  1  0
M  END

$$$$
