No_60-gen_results/8p0m/2024-11-26-14-13-15/
     RDKit          3D

 31 34  0  0  0  0  0  0  0  0999 V2000
  -28.0162   -0.8135   28.8779 C   0  0  0  0  0  0  0  0  0  0  0  0
  -27.0636   -0.1189   28.6079 C   0  0  0  0  0  0  0  0  0  0  0  0
  -26.9716    0.7139   27.5060 C   0  0  0  0  0  0  0  0  0  0  0  0
  -25.8205    1.4909   27.1160 C   0  0  0  0  0  0  0  0  0  0  0  0
  -24.6562    1.4242   27.9180 C   0  0  0  0  0  0  0  0  0  0  0  0
  -24.6847    0.5901   29.0659 C   0  0  0  0  0  0  0  0  0  0  0  0
  -25.8099   -0.1265   29.3338 C   0  0  0  0  0  0  0  0  0  0  0  0
  -28.6943   -0.4734   30.1587 C   0  0  0  0  0  0  0  0  0  0  0  0
  -29.7865   -1.3251   30.6371 C   0  0  0  0  0  0  0  0  0  0  0  0
  -23.4524    2.1889   27.6083 C   0  0  0  0  0  0  0  0  0  0  0  0
  -22.7872    2.4955   28.6307 F   0  0  0  0  0  0  0  0  0  0  0  0
  -23.7148    3.2595   26.9263 F   0  0  0  0  0  0  0  0  0  0  0  0
  -22.5936    1.4559   26.8386 F   0  0  0  0  0  0  0  0  0  0  0  0
  -27.6729   -0.4225   31.2581 C   0  0  0  0  0  0  0  0  0  0  0  0
  -29.3336    0.8773   29.8995 C   0  0  0  0  0  0  0  0  0  0  0  0
  -30.4672    1.0725   29.7204 C   0  0  0  0  0  0  0  0  0  0  0  0
  -31.0902   -1.2151   30.1815 C   0  0  0  0  0  0  0  0  0  0  0  0
  -31.4710    0.0946   29.8965 C   0  0  0  0  0  0  0  0  0  0  0  0
  -26.6068   -0.6129   31.1049 C   0  0  0  0  0  0  0  0  0  0  0  0
  -25.6548   -1.0194   30.4330 C   0  0  0  0  0  0  0  0  0  0  0  0
  -28.0927    0.8240   26.5158 C   0  0  0  0  0  0  0  0  0  0  0  0
  -28.2272    0.8064   25.4423 O   0  0  0  0  0  0  0  0  0  0  0  0
  -29.3530    0.8011   27.2254 O   0  0  0  0  0  0  0  0  0  0  0  0
  -30.4298    1.1174   26.3571 C   0  0  0  0  0  0  0  0  0  0  0  0
  -30.6241    0.1686   25.4711 C   0  0  0  0  0  0  0  0  0  0  0  0
  -31.9342   -0.1560   25.2108 C   0  0  0  0  0  0  0  0  0  0  0  0
  -32.1584   -1.2522   24.2408 C   0  0  0  0  0  0  0  0  0  0  0  0
  -30.9966   -1.9557   23.7797 C   0  0  0  0  0  0  0  0  0  0  0  0
  -29.7484   -1.5343   24.0799 C   0  0  0  0  0  0  0  0  0  0  0  0
  -29.5692   -0.5055   24.9435 C   0  0  0  0  0  0  0  0  0  0  0  0
  -28.6758   -0.9893   25.2375 O   0  0  0  0  0  0  0  0  0  0  0  0
  1  8  1  0
  8  9  1  0
  5 10  1  0
 10 11  1  0
 10 12  1  0
 10 13  1  0
  8 14  1  0
  8 15  1  0
 16 18  1  0
 17 18  1  0
 14 19  2  0
  7 20  1  0
 19 20  1  0
  3 21  1  0
 21 22  2  0
 21 23  1  0
 23 24  1  0
 24 25  1  0
 30 31  1  0
  1  2  1  0
  9 17  1  0
 16 15  1  0
  2  3  2  0
  3  4  1  0
  4  5  2  0
  5  6  1  0
  6  7  2  0
  7  2  1  0
 25 26  2  0
 26 27  1  0
 27 28  2  0
 28 29  1  0
 29 30  2  0
 30 25  1  0
M  END

$$$$
