No_662-gen_results/8p0m/2024-11-26-14-13-15/
     RDKit          3D

 26 28  0  0  0  0  0  0  0  0999 V2000
  -28.0162   -0.8135   28.8779 C   0  0  0  0  0  0  0  0  0  0  0  0
  -27.0636   -0.1189   28.6079 C   0  0  0  0  0  0  0  0  0  0  0  0
  -26.9716    0.7139   27.5060 C   0  0  0  0  0  0  0  0  0  0  0  0
  -25.8205    1.4910   27.1160 C   0  0  0  0  0  0  0  0  0  0  0  0
  -24.6562    1.4242   27.9180 C   0  0  0  0  0  0  0  0  0  0  0  0
  -24.6847    0.5901   29.0659 C   0  0  0  0  0  0  0  0  0  0  0  0
  -25.8099   -0.1265   29.3338 C   0  0  0  0  0  0  0  0  0  0  0  0
  -28.6943   -0.4734   30.1587 C   0  0  0  0  0  0  0  0  0  0  0  0
  -29.7069   -1.2924   30.6301 N   0  0  0  0  0  0  0  0  0  0  0  0
  -23.4632    2.1896   27.5970 C   0  0  0  0  0  0  0  0  0  0  0  0
  -22.3583    1.5018   27.3120 C   0  0  0  0  0  0  0  0  0  0  0  0
  -29.8702   -1.6668   31.7363 C   0  0  0  0  0  0  0  0  0  0  0  0
  -23.6380    3.4506   27.3066 O   0  0  0  0  0  0  0  0  0  0  0  0
  -30.8141   -2.6882   32.0609 C   0  0  0  0  0  0  0  0  0  0  0  0
  -31.1104   -3.4861   31.2703 C   0  0  0  0  0  0  0  0  0  0  0  0
  -30.8361   -3.2942   29.8433 C   0  0  0  0  0  0  0  0  0  0  0  0
  -30.1870   -2.1338   29.6023 C   0  0  0  0  0  0  0  0  0  0  0  0
  -28.1655    0.7995   26.6365 C   0  0  0  0  0  0  0  0  0  0  0  0
  -28.0628    0.8930   25.4041 C   0  0  0  0  0  0  0  0  0  0  0  0
  -29.1640    0.9262   24.4836 C   0  0  0  0  0  0  0  0  0  0  0  0
  -30.4137    0.7517   24.9766 C   0  0  0  0  0  0  0  0  0  0  0  0
  -30.5608    0.6377   26.3774 C   0  0  0  0  0  0  0  0  0  0  0  0
  -29.4804    0.6363   27.2226 C   0  0  0  0  0  0  0  0  0  0  0  0
  -31.9605    0.4763   26.8901 C   0  0  0  0  0  0  0  0  0  0  0  0
  -32.2428    0.7730   28.0197 O   0  0  0  0  0  0  0  0  0  0  0  0
  -32.7729   -0.1258   26.1355 O   0  0  0  0  0  0  0  0  0  0  0  0
  1  8  1  0
  8  9  1  0
  5 10  1  0
 10 11  1  0
  9 12  1  0
 10 13  2  0
 14 15  1  0
  9 17  1  0
 16 17  1  0
  3 18  1  0
 22 24  1  0
 24 25  2  0
 24 26  1  0
  1  2  1  0
 12 14  1  0
 15 16  1  0
 18 19  2  0
 19 20  1  0
 20 21  2  0
 21 22  1  0
 22 23  2  0
 23 18  1  0
  2  3  1  0
  3  4  2  0
  4  5  1  0
  5  6  2  0
  6  7  1  0
  7  2  2  0
M  END

$$$$
