No_614-gen_results/8p0m/2024-11-26-14-13-15/
     RDKit          3D

 20 22  0  0  0  0  0  0  0  0999 V2000
  -28.0162   -0.8135   28.8779 C   0  0  0  0  0  0  0  0  0  0  0  0
  -27.0636   -0.1189   28.6079 C   0  0  0  0  0  0  0  0  0  0  0  0
  -25.7923   -0.4302   29.0761 C   0  0  0  0  0  0  0  0  0  0  0  0
  -24.5456    0.3494   28.8225 C   0  0  0  0  0  0  0  0  0  0  0  0
  -23.2409    0.0217   29.3323 C   0  0  0  0  0  0  0  0  0  0  0  0
  -22.1362    0.7695   29.0059 C   0  0  0  0  0  0  0  0  0  0  0  0
  -27.9050   -1.8984   29.8729 C   0  0  0  0  0  0  0  0  0  0  0  0
  -26.6795   -2.3145   30.3184 C   0  0  0  0  0  0  0  0  0  0  0  0
  -25.5203   -1.5564   29.9775 C   0  0  0  0  0  0  0  0  0  0  0  0
  -22.1253    1.7361   28.0244 C   0  0  0  0  0  0  0  0  0  0  0  0
  -24.6058    1.6046   28.0645 C   0  0  0  0  0  0  0  0  0  0  0  0
  -23.3758    2.1707   27.5948 C   0  0  0  0  0  0  0  0  0  0  0  0
  -29.2053   -2.9659   30.3872 Cl  0  0  0  0  0  0  0  0  0  0  0  0
  -29.2967   -0.5505   28.5044 O   0  0  0  0  0  0  0  0  0  0  0  0
  -29.7116    0.7699   28.5242 C   0  0  0  0  0  0  0  0  0  0  0  0
  -29.9050    1.3796   29.5999 C   0  0  0  0  0  0  0  0  0  0  0  0
  -30.2345    2.7406   29.6292 C   0  0  0  0  0  0  0  0  0  0  0  0
  -29.9518    1.3105   27.1931 C   0  0  0  0  0  0  0  0  0  0  0  0
  -30.3773    2.6767   27.1935 C   0  0  0  0  0  0  0  0  0  0  0  0
  -30.5547    3.3806   28.3991 C   0  0  0  0  0  0  0  0  0  0  0  0
  3  4  1  0
  7 13  1  0
  1 14  1  0
 14 15  1  0
 15 16  2  0
 16 17  1  0
 17 20  2  0
 20 19  1  0
 19 18  2  0
 18 15  1  0
  1  2  2  0
  2  3  1  0
  3  9  2  0
  9  8  1  0
  8  7  2  0
  7  1  1  0
  4  5  2  0
  5  6  1  0
  6 10  2  0
 10 12  1  0
 12 11  2  0
 11  4  1  0
M  END

$$$$
