No_643-gen_results/8p0m/2024-11-26-14-13-15/
     RDKit          3D

 27 29  0  0  0  0  0  0  0  0999 V2000
  -28.0162   -0.8135   28.8779 C   0  0  0  0  0  0  0  0  0  0  0  0
  -27.0636   -0.1190   28.6079 C   0  0  0  0  0  0  0  0  0  0  0  0
  -25.7647   -0.3897   29.0360 C   0  0  0  0  0  0  0  0  0  0  0  0
  -25.5296   -1.5302   29.9014 C   0  0  0  0  0  0  0  0  0  0  0  0
  -26.6888   -2.2893   30.1810 C   0  0  0  0  0  0  0  0  0  0  0  0
  -27.8727   -1.9508   29.7373 C   0  0  0  0  0  0  0  0  0  0  0  0
  -24.5491    0.4100   28.7341 C   0  0  0  0  0  0  0  0  0  0  0  0
  -23.3309    0.0437   29.0569 C   0  0  0  0  0  0  0  0  0  0  0  0
  -22.1994    0.8236   28.7067 C   0  0  0  0  0  0  0  0  0  0  0  0
  -22.3657    1.8184   27.6957 C   0  0  0  0  0  0  0  0  0  0  0  0
  -24.6193    1.4577   27.7557 C   0  0  0  0  0  0  0  0  0  0  0  0
  -23.5641    2.1491   27.3161 C   0  0  0  0  0  0  0  0  0  0  0  0
  -28.9603   -2.6937   30.1050 O   0  0  0  0  0  0  0  0  0  0  0  0
  -30.0757   -2.1270   30.5896 C   0  0  0  0  0  0  0  0  0  0  0  0
  -30.5204   -2.8267   31.7053 C   0  0  0  0  0  0  0  0  0  0  0  0
  -31.6382   -2.3246   32.2773 C   0  0  0  0  0  0  0  0  0  0  0  0
  -29.8719   -3.9426   32.1005 C   0  0  0  0  0  0  0  0  0  0  0  0
  -30.3742   -4.7115   33.3344 C   0  0  0  0  0  0  0  0  0  0  0  0
  -32.1278   -3.0800   33.4988 C   0  0  0  0  0  0  0  0  0  0  0  0
  -31.4803   -4.2302   33.9467 C   0  0  0  0  0  0  0  0  0  0  0  0
  -30.6004   -1.1816   30.1144 O   0  0  0  0  0  0  0  0  0  0  0  0
  -23.7587    3.2680   26.3495 C   0  0  0  0  0  0  0  0  0  0  0  0
  -29.6418   -5.9158   33.7105 C   0  0  0  0  0  0  0  0  0  0  0  0
  -29.0877   -5.9723   34.6944 O   0  0  0  0  0  0  0  0  0  0  0  0
  -29.3902   -6.7708   32.6744 O   0  0  0  0  0  0  0  0  0  0  0  0
  -24.0968    4.3464   27.0238 F   0  0  0  0  0  0  0  0  0  0  0  0
  -23.4994    3.1672   25.2179 F   0  0  0  0  0  0  0  0  0  0  0  0
  3  7  1  0
  6 13  1  0
 13 14  1  0
 14 15  1  0
 14 21  2  0
 12 22  1  0
 18 23  1  0
 23 24  2  0
 23 25  1  0
 22 26  1  0
 22 27  1  0
  7  8  2  0
  8  9  1  0
  9 10  2  0
 10 12  1  0
 12 11  2  0
 11  7  1  0
  1  2  2  0
  2  3  1  0
  3  4  2  0
  4  5  1  0
  5  6  2  0
  6  1  1  0
 15 16  2  0
 16 19  1  0
 19 20  2  0
 20 18  1  0
 18 17  2  0
 17 15  1  0
M  END

$$$$
