No_604-gen_results/8p0m/2024-11-26-14-13-15/
     RDKit          3D

 15 16  0  0  0  0  0  0  0  0999 V2000
  -28.0162   -0.8135   28.8779 C   0  0  0  0  0  0  0  0  0  0  0  0
  -28.4690   -0.7850   29.8287 C   0  0  0  0  0  0  0  0  0  0  0  0
  -26.5042   -0.7777   28.8766 C   0  0  0  0  0  0  0  0  0  0  0  0
  -25.6540   -0.6597   27.7191 C   0  0  0  0  0  0  0  0  0  0  0  0
  -27.9180   -0.9374   31.1824 C   0  0  0  0  0  0  0  0  0  0  0  0
  -26.5424   -0.9399   31.2606 C   0  0  0  0  0  0  0  0  0  0  0  0
  -25.7832   -0.8935   30.1201 C   0  0  0  0  0  0  0  0  0  0  0  0
  -25.9259    0.2819   26.7445 C   0  0  0  0  0  0  0  0  0  0  0  0
  -25.6258    1.4719   26.8191 C   0  0  0  0  0  0  0  0  0  0  0  0
  -24.8156    1.9657   27.9646 C   0  0  0  0  0  0  0  0  0  0  0  0
  -24.1477    2.6036   28.3481 C   0  0  0  0  0  0  0  0  0  0  0  0
  -23.4990    2.5450   29.6960 C   0  0  0  0  0  0  0  0  0  0  0  0
  -23.6748    1.2857   30.4019 C   0  0  0  0  0  0  0  0  0  0  0  0
  -24.4163    0.3460   29.9760 C   0  0  0  0  0  0  0  0  0  0  0  0
  -23.6386   -0.0813   28.7542 N   0  0  0  0  0  0  0  0  0  0  0  0
  3  4  1  0
  4  8  1  0
  8  9  2  3
  9 10  1  0
 10 11  3  0
 11 12  1  0
 12 13  2  3
  7 14  1  0
 13 14  1  0
 14 15  1  0
  1  2  2  0
  2  5  1  0
  5  6  2  0
  6  7  1  0
  7  3  2  0
  3  1  1  0
M  END

$$$$
