No_66-gen_results/8p0m/2024-11-26-14-13-15/
     RDKit          3D

 24 27  0  0  0  0  0  0  0  0999 V2000
  -28.0162   -0.8135   28.8779 C   0  0  0  0  0  0  0  0  0  0  0  0
  -27.0636   -0.1189   28.6079 C   0  0  0  0  0  0  0  0  0  0  0  0
  -26.9716    0.7139   27.5060 C   0  0  0  0  0  0  0  0  0  0  0  0
  -25.8205    1.4910   27.1160 C   0  0  0  0  0  0  0  0  0  0  0  0
  -24.6562    1.4242   27.9180 C   0  0  0  0  0  0  0  0  0  0  0  0
  -24.6847    0.5901   29.0659 C   0  0  0  0  0  0  0  0  0  0  0  0
  -25.8099   -0.1265   29.3338 C   0  0  0  0  0  0  0  0  0  0  0  0
  -28.0445   -1.5734   30.1690 C   0  0  0  0  0  0  0  0  0  0  0  0
  -26.8173   -1.7595   30.8704 C   0  0  0  0  0  0  0  0  0  0  0  0
  -25.7477   -0.9917   30.5376 C   0  0  0  0  0  0  0  0  0  0  0  0
  -23.4587    2.2281   27.5845 C   0  0  0  0  0  0  0  0  0  0  0  0
  -23.5274    3.1694   26.8453 O   0  0  0  0  0  0  0  0  0  0  0  0
  -22.5084    2.2799   28.4560 F   0  0  0  0  0  0  0  0  0  0  0  0
  -28.0942    0.8121   26.5370 C   0  0  0  0  0  0  0  0  0  0  0  0
  -27.9728    0.8080   25.3236 N   0  0  0  0  0  0  0  0  0  0  0  0
  -29.4323    0.8972   27.0394 C   0  0  0  0  0  0  0  0  0  0  0  0
  -30.4235    0.9795   26.1349 C   0  0  0  0  0  0  0  0  0  0  0  0
  -28.8288    0.8946   24.3609 C   0  0  0  0  0  0  0  0  0  0  0  0
  -31.8034    1.0286   26.5697 C   0  0  0  0  0  0  0  0  0  0  0  0
  -30.0962    0.9736   24.7981 C   0  0  0  0  0  0  0  0  0  0  0  0
  -32.0822    1.2293   27.7960 N   0  0  0  0  0  0  0  0  0  0  0  0
  -32.6862    0.8382   25.7469 O   0  0  0  0  0  0  0  0  0  0  0  0
  -31.2829    1.5722   28.8969 C   0  0  0  0  0  0  0  0  0  0  0  0
  -29.8520    1.3903   28.5436 C   0  0  0  0  0  0  0  0  0  0  0  0
  5 11  1  0
 11 12  2  0
 11 13  1  0
  3 14  1  0
 17 19  1  0
 19 21  1  0
 19 22  2  0
 21 23  1  0
 16 24  1  0
 24 23  1  0
  2  3  1  0
  3  4  2  0
  4  5  1  0
  5  6  2  0
  6  7  1  0
 14 15  2  0
 15 18  1  0
 18 20  2  0
 20 17  1  0
 17 16  2  0
 16 14  1  0
  1  2  2  0
  2  7  1  0
  7 10  2  0
 10  9  1  0
  9  8  2  0
  8  1  1  0
M  END

$$$$
