No_664-gen_results/8p0m/2024-11-26-14-13-15/
     RDKit          3D

 35 38  0  0  0  0  0  0  0  0999 V2000
  -28.0162   -0.8135   28.8779 C   0  0  0  0  0  0  0  0  0  0  0  0
  -28.4690   -0.7850   29.8287 C   0  0  0  0  0  0  0  0  0  0  0  0
  -26.5455   -0.8762   28.8500 C   0  0  0  0  0  0  0  0  0  0  0  0
  -25.6825   -0.7773   27.6829 C   0  0  0  0  0  0  0  0  0  0  0  0
  -29.9909   -0.7300   29.9814 C   0  0  0  0  0  0  0  0  0  0  0  0
  -24.2640   -0.7731   27.9513 C   0  0  0  0  0  0  0  0  0  0  0  0
  -23.7548   -0.9500   29.2468 C   0  0  0  0  0  0  0  0  0  0  0  0
  -25.6279   -1.0194   30.0116 C   0  0  0  0  0  0  0  0  0  0  0  0
  -24.4691   -1.0218   30.2986 C   0  0  0  0  0  0  0  0  0  0  0  0
  -30.6078   -0.5169   28.7714 C   0  0  0  0  0  0  0  0  0  0  0  0
  -29.8996   -0.3236   27.6517 C   0  0  0  0  0  0  0  0  0  0  0  0
  -28.5640   -0.3434   27.6651 C   0  0  0  0  0  0  0  0  0  0  0  0
  -30.5138   -0.0310   26.5045 F   0  0  0  0  0  0  0  0  0  0  0  0
  -22.1951   -0.8781   29.2495 C   0  0  0  0  0  0  0  0  0  0  0  0
  -21.5223    0.0728   29.1173 N   0  0  0  0  0  0  0  0  0  0  0  0
  -22.1226    1.2489   28.7127 C   0  0  0  0  0  0  0  0  0  0  0  0
  -21.5930    1.8495   27.4155 C   0  0  0  0  0  0  0  0  0  0  0  0
  -23.0807    1.7546   29.3338 O   0  0  0  0  0  0  0  0  0  0  0  0
  -31.9600   -0.3643   28.7353 O   0  0  0  0  0  0  0  0  0  0  0  0
  -32.5430    0.7664   28.9263 C   0  0  0  0  0  0  0  0  0  0  0  0
  -33.6697    0.8802   29.1312 C   0  0  0  0  0  0  0  0  0  0  0  0
  -34.3201    2.1885   29.3507 C   0  0  0  0  0  0  0  0  0  0  0  0
  -33.5066    3.3343   29.2747 C   0  0  0  0  0  0  0  0  0  0  0  0
  -32.1575    3.1718   28.9918 C   0  0  0  0  0  0  0  0  0  0  0  0
  -31.6039    1.9742   28.8393 C   0  0  0  0  0  0  0  0  0  0  0  0
  -35.6307    2.3034   29.6251 O   0  0  0  0  0  0  0  0  0  0  0  0
  -36.0073    2.8967   30.7250 C   0  0  0  0  0  0  0  0  0  0  0  0
  -36.6167    4.0963   30.5209 C   0  0  0  0  0  0  0  0  0  0  0  0
  -37.1041    4.8365   31.6859 C   0  0  0  0  0  0  0  0  0  0  0  0
  -37.0851    4.1700   32.9326 C   0  0  0  0  0  0  0  0  0  0  0  0
  -35.8689    2.3065   31.9720 C   0  0  0  0  0  0  0  0  0  0  0  0
  -36.3993    2.9430   33.0750 C   0  0  0  0  0  0  0  0  0  0  0  0
  -37.7879    6.0922   31.5067 C   0  0  0  0  0  0  0  0  0  0  0  0
  -38.2993    7.0896   31.6310 P   0  0  0  0  0  0  0  0  0  0  0  0
  -38.8327    7.9297   31.0058 O   0  0  0  0  0  0  0  0  0  0  0  0
  1  3  1  0
 11 13  1  0
  7 14  1  0
 14 15  2  3
 15 16  1  0
 16 17  1  0
 16 18  2  0
 10 19  1  0
 19 20  1  0
 22 26  1  0
 26 27  1  0
 29 33  1  0
 33 34  3  0
 34 35  2  0
  3  4  2  0
  4  6  1  0
  6  7  2  0
  7  9  1  0
  9  8  2  0
  8  3  1  0
  1  2  2  0
  2  5  1  0
  5 10  2  0
 10 11  1  0
 11 12  2  0
 12  1  1  0
 27 28  2  0
 28 29  1  0
 29 30  2  0
 30 32  1  0
 32 31  2  0
 31 27  1  0
 20 21  2  0
 21 22  1  0
 22 23  2  0
 23 24  1  0
 24 25  2  0
 25 20  1  0
M  END

$$$$
