No_687-gen_results/8p0m/2024-11-26-14-13-15/
     RDKit          3D

 23 25  0  0  0  0  0  0  0  0999 V2000
  -28.0162   -0.8135   28.8779 C   0  0  0  0  0  0  0  0  0  0  0  0
  -27.0636   -0.1190   28.6079 C   0  0  0  0  0  0  0  0  0  0  0  0
  -27.0010    0.6913   27.4910 C   0  0  0  0  0  0  0  0  0  0  0  0
  -28.1373    0.7363   26.6350 C   0  0  0  0  0  0  0  0  0  0  0  0
  -29.2360    0.0765   27.0690 C   0  0  0  0  0  0  0  0  0  0  0  0
  -29.2177   -0.6429   28.1747 C   0  0  0  0  0  0  0  0  0  0  0  0
  -30.3423    0.1617   26.2790 O   0  0  0  0  0  0  0  0  0  0  0  0
  -25.7291   -0.2038   29.3995 C   0  0  0  0  0  0  0  0  0  0  0  0
  -24.5649    0.0857   28.8753 C   0  0  0  0  0  0  0  0  0  0  0  0
  -24.5828    0.9689   27.6601 C   0  0  0  0  0  0  0  0  0  0  0  0
  -25.7084    1.1929   26.9562 C   0  0  0  0  0  0  0  0  0  0  0  0
  -23.2548    1.5431   27.2610 C   0  0  0  0  0  0  0  0  0  0  0  0
  -22.2739    1.4378   28.0375 O   0  0  0  0  0  0  0  0  0  0  0  0
  -23.1949    2.1816   26.1329 O   0  0  0  0  0  0  0  0  0  0  0  0
  -31.4787    0.2089   26.7287 C   0  0  0  0  0  0  0  0  0  0  0  0
  -28.1236   -1.6399   30.0412 N   0  0  0  0  0  0  0  0  0  0  0  0
  -29.2460   -2.2800   30.4738 C   0  0  0  0  0  0  0  0  0  0  0  0
  -29.4551   -3.3651   30.5934 C   0  0  0  0  0  0  0  0  0  0  0  0
  -30.7300   -4.0402   30.8975 C   0  0  0  0  0  0  0  0  0  0  0  0
  -31.8032   -3.1896   31.0691 C   0  0  0  0  0  0  0  0  0  0  0  0
  -31.6557   -1.8604   30.8984 C   0  0  0  0  0  0  0  0  0  0  0  0
  -30.4050   -1.2969   30.5882 C   0  0  0  0  0  0  0  0  0  0  0  0
  -28.3598   -4.3220   30.4698 N   0  0  0  0  0  0  0  0  0  0  0  0
  5  7  1  0
 10 12  1  0
 12 13  2  0
 12 14  1  0
  7 15  1  0
  1 16  1  0
 18 23  1  0
 16 17  1  0
 17 18  2  0
 18 19  1  0
 19 20  2  0
 20 21  1  0
 21 22  2  0
 22 17  1  0
  1  2  2  0
  3  4  2  0
  4  5  1  0
  5  6  2  0
  6  1  1  0
  2  3  1  0
  3 11  1  0
 11 10  2  0
 10  9  1  0
  9  8  2  0
  8  2  1  0
M  END

$$$$
