No_617-gen_results/8p0m/2024-11-26-14-13-15/
     RDKit          3D

  6  5  0  0  0  0  0  0  0  0999 V2000
  -28.1229   -1.3353   28.4874 O   0  0  0  0  0  0  0  0  0  0  0  0
  -27.0637   -0.8242   28.8687 C   0  0  0  0  0  0  0  0  0  0  0  0
  -26.0496   -0.9362   28.7578 C   0  0  0  0  0  0  0  0  0  0  0  0
  -25.2767   -1.6667   28.0545 C   0  0  0  0  0  0  0  0  0  0  0  0
  -27.4147    0.1404   29.9761 N   0  0  0  0  0  0  0  0  0  0  0  0
  -26.4944    0.8836   30.5983 C   0  0  0  0  0  0  0  0  0  0  0  0
  1  2  1  0
  2  3  2  3
  3  4  1  0
  2  5  1  0
  5  6  2  0
M  END

$$$$
