No_606-gen_results/8p0m/2024-11-26-14-13-15/
     RDKit          3D

 17 18  0  0  0  0  0  0  0  0999 V2000
  -28.0162   -0.8135   28.8779 C   0  0  0  0  0  0  0  0  0  0  0  0
  -27.0636   -0.1189   28.6079 C   0  0  0  0  0  0  0  0  0  0  0  0
  -25.7647   -0.3897   29.0360 C   0  0  0  0  0  0  0  0  0  0  0  0
  -25.5296   -1.5302   29.9014 C   0  0  0  0  0  0  0  0  0  0  0  0
  -24.3236   -1.9076   30.4324 C   0  0  0  0  0  0  0  0  0  0  0  0
  -27.9274   -1.9227   29.7902 C   0  0  0  0  0  0  0  0  0  0  0  0
  -26.6914   -2.2806   30.2948 C   0  0  0  0  0  0  0  0  0  0  0  0
  -23.2806   -2.0391   29.4813 C   0  0  0  0  0  0  0  0  0  0  0  0
  -29.0049   -2.6569   30.1988 O   0  0  0  0  0  0  0  0  0  0  0  0
  -30.0974   -2.0475   30.7050 C   0  0  0  0  0  0  0  0  0  0  0  0
  -30.1392   -1.1412   31.3168 C   0  0  0  0  0  0  0  0  0  0  0  0
  -30.6007   -0.4024   31.9259 C   0  0  0  0  0  0  0  0  0  0  0  0
  -30.0729    0.8132   32.6206 C   0  0  0  0  0  0  0  0  0  0  0  0
  -28.7198    1.0745   32.5347 C   0  0  0  0  0  0  0  0  0  0  0  0
  -27.9434    0.1683   31.8713 C   0  0  0  0  0  0  0  0  0  0  0  0
  -28.4840   -0.9539   31.3703 C   0  0  0  0  0  0  0  0  0  0  0  0
  -28.0739   -1.9080   32.4975 O   0  0  0  0  0  0  0  0  0  0  0  0
  4  5  1  0
  5  8  1  0
  6  9  1  0
  9 10  1  0
 16 17  1  0
 10 11  1  0
 11 12  2  0
 12 13  1  0
 13 14  2  0
 14 15  1  0
 15 16  2  0
 16 11  1  0
  1  2  2  0
  2  3  1  0
  3  4  2  0
  4  7  1  0
  7  6  2  0
  6  1  1  0
M  END

$$$$
