No_638-gen_results/8p0m/2024-11-26-14-13-15/
     RDKit          3D

 30 33  0  0  0  0  0  0  0  0999 V2000
  -28.0162   -0.8135   28.8779 C   0  0  0  0  0  0  0  0  0  0  0  0
  -27.0636   -0.1190   28.6079 C   0  0  0  0  0  0  0  0  0  0  0  0
  -25.7923   -0.4302   29.0761 C   0  0  0  0  0  0  0  0  0  0  0  0
  -24.5456    0.3494   28.8225 C   0  0  0  0  0  0  0  0  0  0  0  0
  -24.6586    1.4196   27.8878 C   0  0  0  0  0  0  0  0  0  0  0  0
  -23.5403    2.1791   27.5500 C   0  0  0  0  0  0  0  0  0  0  0  0
  -22.2925    1.7428   28.0473 C   0  0  0  0  0  0  0  0  0  0  0  0
  -22.1712    0.7079   28.9284 C   0  0  0  0  0  0  0  0  0  0  0  0
  -23.3345   -0.0624   29.3081 C   0  0  0  0  0  0  0  0  0  0  0  0
  -27.9466   -1.8823   29.8708 C   0  0  0  0  0  0  0  0  0  0  0  0
  -29.0848   -2.6408   30.2431 C   0  0  0  0  0  0  0  0  0  0  0  0
  -25.5893   -1.6211   29.8789 C   0  0  0  0  0  0  0  0  0  0  0  0
  -26.7012   -2.2720   30.3293 C   0  0  0  0  0  0  0  0  0  0  0  0
  -29.0132   -3.9683   30.4220 N   0  0  0  0  0  0  0  0  0  0  0  0
  -29.8184   -4.6738   31.2298 C   0  0  0  0  0  0  0  0  0  0  0  0
  -30.0221   -2.1082   30.8047 O   0  0  0  0  0  0  0  0  0  0  0  0
  -29.4263   -5.1548   32.3404 C   0  0  0  0  0  0  0  0  0  0  0  0
  -30.1637   -5.4375   33.2230 C   0  0  0  0  0  0  0  0  0  0  0  0
  -31.5639   -5.6359   33.0880 C   0  0  0  0  0  0  0  0  0  0  0  0
  -32.0487   -5.1815   31.8417 C   0  0  0  0  0  0  0  0  0  0  0  0
  -31.1494   -4.5979   30.9602 C   0  0  0  0  0  0  0  0  0  0  0  0
  -33.3851   -5.1234   31.6288 O   0  0  0  0  0  0  0  0  0  0  0  0
  -33.9812   -5.5687   30.6566 C   0  0  0  0  0  0  0  0  0  0  0  0
  -33.6245   -6.5792   29.9155 C   0  0  0  0  0  0  0  0  0  0  0  0
  -32.8199   -6.4044   29.0410 C   0  0  0  0  0  0  0  0  0  0  0  0
  -31.9876   -7.4682   28.4304 C   0  0  0  0  0  0  0  0  0  0  0  0
  -32.2495   -8.7713   28.8216 C   0  0  0  0  0  0  0  0  0  0  0  0
  -33.1948   -8.9796   29.7790 C   0  0  0  0  0  0  0  0  0  0  0  0
  -33.7725   -7.9307   30.3773 C   0  0  0  0  0  0  0  0  0  0  0  0
  -35.2376   -4.8947   30.1800 C   0  0  0  0  0  0  0  0  0  0  0  0
  3  4  1  0
 10 11  1  0
 11 14  1  0
 14 15  1  0
 11 16  2  0
 20 22  1  0
 22 23  1  0
 23 24  1  0
 23 30  1  0
 15 17  2  0
 17 18  1  0
 18 19  2  0
 19 20  1  0
 20 21  2  0
 21 15  1  0
 24 25  2  0
 25 26  1  0
 26 27  2  0
 27 28  1  0
 28 29  2  0
 29 24  1  0
  1  2  2  0
  2  3  1  0
  3 12  2  0
 12 13  1  0
 13 10  2  0
 10  1  1  0
  4  5  2  0
  5  6  1  0
  6  7  2  0
  7  8  1  0
  8  9  2  0
  9  4  1  0
M  END

$$$$
