No_622-gen_results/8p0m/2024-11-26-14-13-15/
     RDKit          3D

 35 38  0  0  0  0  0  0  0  0999 V2000
  -28.0162   -0.8135   28.8779 C   0  0  0  0  0  0  0  0  0  0  0  0
  -27.0636   -0.1190   28.6079 C   0  0  0  0  0  0  0  0  0  0  0  0
  -25.7647   -0.3897   29.0360 C   0  0  0  0  0  0  0  0  0  0  0  0
  -24.5516    0.4058   28.7646 C   0  0  0  0  0  0  0  0  0  0  0  0
  -24.6957    1.4480   27.7988 C   0  0  0  0  0  0  0  0  0  0  0  0
  -25.9755    1.7250   27.3077 C   0  0  0  0  0  0  0  0  0  0  0  0
  -27.1888    1.1181   27.8544 C   0  0  0  0  0  0  0  0  0  0  0  0
  -29.1956   -0.1915   29.0894 N   0  0  0  0  0  0  0  0  0  0  0  0
  -23.5192    2.1541   27.4328 C   0  0  0  0  0  0  0  0  0  0  0  0
  -23.5596    3.0630   26.5879 O   0  0  0  0  0  0  0  0  0  0  0  0
  -22.2997    1.8043   27.8378 O   0  0  0  0  0  0  0  0  0  0  0  0
  -30.0538   -0.5133   30.0094 C   0  0  0  0  0  0  0  0  0  0  0  0
  -29.6528   -1.2850   31.0415 C   0  0  0  0  0  0  0  0  0  0  0  0
  -31.2622   -0.0527   30.0888 O   0  0  0  0  0  0  0  0  0  0  0  0
  -29.7512   -2.7080   30.8551 C   0  0  0  0  0  0  0  0  0  0  0  0
  -28.6681   -3.4354   31.1264 N   0  0  0  0  0  0  0  0  0  0  0  0
  -28.4926   -4.6854   30.4729 C   0  0  0  0  0  0  0  0  0  0  0  0
  -25.4591   -1.5310   29.9803 C   0  0  0  0  0  0  0  0  0  0  0  0
  -24.7988   -2.5983   29.4916 C   0  0  0  0  0  0  0  0  0  0  0  0
  -23.4446   -2.5178   29.2827 C   0  0  0  0  0  0  0  0  0  0  0  0
  -25.4758   -3.8512   29.2723 C   0  0  0  0  0  0  0  0  0  0  0  0
  -24.7689   -4.9667   28.8465 C   0  0  0  0  0  0  0  0  0  0  0  0
  -22.7700   -1.3757   29.5623 N   0  0  0  0  0  0  0  0  0  0  0  0
  -23.2223   -0.1623   28.8036 C   0  0  0  0  0  0  0  0  0  0  0  0
  -22.0952    0.8244   28.6038 C   0  0  0  0  0  0  0  0  0  0  0  0
  -30.8422   -3.3369   31.6994 C   0  0  0  0  0  0  0  0  0  0  0  0
  -31.1758   -4.6562   31.1860 C   0  0  0  0  0  0  0  0  0  0  0  0
  -29.8360   -5.5222   31.2334 C   0  0  0  0  0  0  0  0  0  0  0  0
  -32.1762   -5.4198   31.9733 C   0  0  0  0  0  0  0  0  0  0  0  0
  -33.0692   -5.8758   31.2891 C   0  0  0  0  0  0  0  0  0  0  0  0
  -33.4509   -5.1256   30.2053 C   0  0  0  0  0  0  0  0  0  0  0  0
  -34.4870   -5.5988   29.3377 C   0  0  0  0  0  0  0  0  0  0  0  0
  -34.7822   -4.8831   28.1028 C   0  0  0  0  0  0  0  0  0  0  0  0
  -34.0461   -3.7153   27.7944 C   0  0  0  0  0  0  0  0  0  0  0  0
  -33.0166   -3.3223   28.6460 C   0  0  0  0  0  0  0  0  0  0  0  0
  1  2  2  3
  2  3  1  0
  3  4  1  0
  4  5  1  0
  5  6  1  0
  2  7  1  0
  6  7  1  0
  1  8  1  0
  5  9  1  0
  9 10  2  0
  9 11  1  0
  8 12  1  0
 12 13  1  0
 12 14  2  0
 13 15  1  0
 15 16  1  0
 16 17  1  0
  3 18  1  0
 18 19  1  0
 19 20  1  0
 19 21  1  0
 21 22  2  0
 20 23  1  0
  4 24  1  0
 23 24  1  0
 11 25  1  0
 24 25  1  0
 15 26  1  0
 26 27  1  0
 17 28  1  0
 27 28  1  0
 27 29  1  0
 29 30  1  0
 30 31  2  3
 31 32  1  0
 32 33  2  3
 33 34  1  0
 34 35  2  0
M  END

$$$$
