No_658-gen_results/8p0m/2024-11-26-14-13-15/
     RDKit          3D

 22 23  0  0  0  0  0  0  0  0999 V2000
  -28.1229   -1.3353   28.4874 O   0  0  0  0  0  0  0  0  0  0  0  0
  -27.0637   -0.8242   28.8687 C   0  0  0  0  0  0  0  0  0  0  0  0
  -26.4017   -0.0623   28.6224 C   0  0  0  0  0  0  0  0  0  0  0  0
  -26.2652   -1.8674   29.7609 N   0  0  0  0  0  0  0  0  0  0  0  0
  -25.0436    0.3924   29.0662 C   0  0  0  0  0  0  0  0  0  0  0  0
  -24.4726   -0.5445   29.9870 C   0  0  0  0  0  0  0  0  0  0  0  0
  -25.1332   -1.6696   30.2893 C   0  0  0  0  0  0  0  0  0  0  0  0
  -26.9105    1.1098   27.6608 C   0  0  0  0  0  0  0  0  0  0  0  0
  -26.2732    1.5552   26.8036 O   0  0  0  0  0  0  0  0  0  0  0  0
  -28.1693    1.3169   27.7969 O   0  0  0  0  0  0  0  0  0  0  0  0
  -27.0395   -3.0895   30.1611 C   0  0  0  0  0  0  0  0  0  0  0  0
  -23.0900   -0.2254   30.5004 C   0  0  0  0  0  0  0  0  0  0  0  0
  -22.5808    0.8376   30.2663 O   0  0  0  0  0  0  0  0  0  0  0  0
  -22.5145   -1.0410   31.3958 O   0  0  0  0  0  0  0  0  0  0  0  0
  -28.2879   -2.9871   30.8227 C   0  0  0  0  0  0  0  0  0  0  0  0
  -28.6512   -1.8497   31.3775 C   0  0  0  0  0  0  0  0  0  0  0  0
  -29.9103   -1.7467   32.0660 C   0  0  0  0  0  0  0  0  0  0  0  0
  -30.3662   -0.5237   32.5904 C   0  0  0  0  0  0  0  0  0  0  0  0
  -29.6206    0.6761   32.3589 C   0  0  0  0  0  0  0  0  0  0  0  0
  -28.3965    0.5650   31.6452 C   0  0  0  0  0  0  0  0  0  0  0  0
  -27.9859   -0.6393   31.2202 C   0  0  0  0  0  0  0  0  0  0  0  0
  -26.4641   -4.0953   29.7207 F   0  0  0  0  0  0  0  0  0  0  0  0
  1  2  2  0
  2  3  1  0
  2  4  1  0
  5  6  1  0
  4  7  1  0
  6  7  1  0
  3  8  1  0
  8  9  2  0
  8 10  1  0
  4 11  1  0
  6 12  1  0
 12 13  2  0
 12 14  1  0
 11 15  1  0
 11 22  1  0
 15 16  1  0
  3  5  1  0
 16 17  2  0
 17 18  1  0
 18 19  2  0
 19 20  1  0
 20 21  2  0
 21 16  1  0
M  END

$$$$
