No_682-gen_results/8p0m/2024-11-26-14-13-15/
     RDKit          3D

 15 16  0  0  0  0  0  0  0  0999 V2000
  -28.0162   -0.8135   28.8779 C   0  0  0  0  0  0  0  0  0  0  0  0
  -27.0636   -0.1190   28.6079 C   0  0  0  0  0  0  0  0  0  0  0  0
  -25.7923   -0.4302   29.0761 C   0  0  0  0  0  0  0  0  0  0  0  0
  -25.5314   -1.5876   29.6105 C   0  0  0  0  0  0  0  0  0  0  0  0
  -26.6366   -2.4336   29.9654 C   0  0  0  0  0  0  0  0  0  0  0  0
  -27.8411   -2.0285   29.6196 C   0  0  0  0  0  0  0  0  0  0  0  0
  -27.1811    1.2305   27.9191 C   0  0  0  0  0  0  0  0  0  0  0  0
  -26.8135    2.2979   28.1662 C   0  0  0  0  0  0  0  0  0  0  0  0
  -27.8070    1.0237   26.5519 C   0  0  0  0  0  0  0  0  0  0  0  0
  -27.9237    2.0919   25.6926 C   0  0  0  0  0  0  0  0  0  0  0  0
  -26.8693    3.5234   27.3814 C   0  0  0  0  0  0  0  0  0  0  0  0
  -27.4720    3.3762   26.1369 C   0  0  0  0  0  0  0  0  0  0  0  0
  -28.9702   -2.9103   30.0864 C   0  0  0  0  0  0  0  0  0  0  0  0
  -29.3031   -2.8762   31.0793 O   0  0  0  0  0  0  0  0  0  0  0  0
  -29.3526   -3.6605   29.1979 O   0  0  0  0  0  0  0  0  0  0  0  0
  2  7  1  0
  6 13  1  0
 13 14  2  0
 13 15  1  0
  1  2  2  0
  2  3  1  0
  3  4  2  0
  4  5  1  0
  5  6  2  0
  6  1  1  0
  7  8  2  0
  8 11  1  0
 11 12  2  0
 12 10  1  0
 10  9  2  0
  9  7  1  0
M  END

$$$$
