No_630-gen_results/8p0m/2024-11-26-14-13-15/
     RDKit          3D

  9  9  0  0  0  0  0  0  0  0999 V2000
  -28.0162   -0.8135   28.8779 C   0  0  0  0  0  0  0  0  0  0  0  0
  -27.1876   -0.3590   28.4524 N   0  0  0  0  0  0  0  0  0  0  0  0
  -29.4641   -1.3937   28.5418 Cl  0  0  0  0  0  0  0  0  0  0  0  0
  -26.2494    0.1903   28.6156 C   0  0  0  0  0  0  0  0  0  0  0  0
  -25.2882    0.9464   27.7408 C   0  0  0  0  0  0  0  0  0  0  0  0
  -24.0451    1.4260   28.0830 C   0  0  0  0  0  0  0  0  0  0  0  0
  -23.5237    1.2540   29.3156 C   0  0  0  0  0  0  0  0  0  0  0  0
  -25.2718    0.1117   29.8518 C   0  0  0  0  0  0  0  0  0  0  0  0
  -24.1540    0.6046   30.2211 C   0  0  0  0  0  0  0  0  0  0  0  0
  1  2  2  3
  1  3  1  0
  2  4  1  0
  4  5  2  0
  5  6  1  0
  6  7  2  0
  7  9  1  0
  9  8  2  0
  8  4  1  0
M  END

$$$$
