No_656-gen_results/8p0m/2024-11-26-14-13-15/
     RDKit          3D

 35 38  0  0  0  0  0  0  0  0999 V2000
  -28.0162   -0.8135   28.8779 C   0  0  0  0  0  0  0  0  0  0  0  0
  -28.4690   -0.7850   29.8287 C   0  0  0  0  0  0  0  0  0  0  0  0
  -26.5455   -0.8762   28.8500 C   0  0  0  0  0  0  0  0  0  0  0  0
  -25.8041   -1.0324   30.0571 C   0  0  0  0  0  0  0  0  0  0  0  0
  -27.9437   -0.9869   31.2075 C   0  0  0  0  0  0  0  0  0  0  0  0
  -24.4008   -1.0969   30.0965 C   0  0  0  0  0  0  0  0  0  0  0  0
  -26.5612   -1.0746   31.2270 C   0  0  0  0  0  0  0  0  0  0  0  0
  -23.7186    0.1121   29.8577 C   0  0  0  0  0  0  0  0  0  0  0  0
  -23.9342    1.2364   30.4826 C   0  0  0  0  0  0  0  0  0  0  0  0
  -23.4117    2.4841   30.0239 C   0  0  0  0  0  0  0  0  0  0  0  0
  -22.6993    2.4501   28.8196 C   0  0  0  0  0  0  0  0  0  0  0  0
  -22.8811    0.2711   28.6666 C   0  0  0  0  0  0  0  0  0  0  0  0
  -22.3464    1.3566   28.2562 C   0  0  0  0  0  0  0  0  0  0  0  0
  -25.8243   -0.7846   27.7071 O   0  0  0  0  0  0  0  0  0  0  0  0
  -26.1762    0.0830   26.7472 C   0  0  0  0  0  0  0  0  0  0  0  0
  -25.5823   -0.0541   25.4944 C   0  0  0  0  0  0  0  0  0  0  0  0
  -26.8910    1.2744   26.9587 C   0  0  0  0  0  0  0  0  0  0  0  0
  -27.0542    2.2128   25.9754 C   0  0  0  0  0  0  0  0  0  0  0  0
  -26.5831    1.9399   24.7379 C   0  0  0  0  0  0  0  0  0  0  0  0
  -25.8790    0.8332   24.4103 C   0  0  0  0  0  0  0  0  0  0  0  0
  -30.0565   -0.8012   30.0544 C   0  0  0  0  0  0  0  0  0  0  0  0
  -30.6754   -1.4029   30.6460 O   0  0  0  0  0  0  0  0  0  0  0  0
  -30.6343    0.0635   29.1495 O   0  0  0  0  0  0  0  0  0  0  0  0
  -21.6393    1.4488   27.0859 O   0  0  0  0  0  0  0  0  0  0  0  0
  -31.8174    0.4583   29.1895 C   0  0  0  0  0  0  0  0  0  0  0  0
  -32.2971    0.7012   28.0439 C   0  0  0  0  0  0  0  0  0  0  0  0
  -31.6576    1.2220   27.1426 O   0  0  0  0  0  0  0  0  0  0  0  0
  -33.0032   -0.6093   27.3654 C   0  0  0  0  0  0  0  0  0  0  0  0
  -32.5679   -0.9047   26.2234 C   0  0  0  0  0  0  0  0  0  0  0  0
  -31.6746    0.0863   25.6627 C   0  0  0  0  0  0  0  0  0  0  0  0
  -31.7495    0.6701   24.4242 N   0  0  0  0  0  0  0  0  0  0  0  0
  -34.4214   -0.4981   27.4829 O   0  0  0  0  0  0  0  0  0  0  0  0
  -31.7991   -2.1161   26.0300 O   0  0  0  0  0  0  0  0  0  0  0  0
  -35.0578   -1.3187   28.1956 C   0  0  0  0  0  0  0  0  0  0  0  0
  -36.1598   -1.3714   28.2701 C   0  0  0  0  0  0  0  0  0  0  0  0
  4  6  1  0
  6  8  1  0
  3 14  1  0
 14 15  1  0
  2 21  1  0
 21 22  2  0
 21 23  1  0
 13 24  1  0
 23 25  1  0
 25 26  1  0
 26 27  1  0
 26 28  1  0
 28 29  1  0
 27 30  1  0
 29 30  1  0
 30 31  1  0
 28 32  1  0
 29 33  1  0
 32 34  1  0
 34 35  2  0
  8  9  2  0
  9 10  1  0
 10 11  2  0
 11 13  1  0
 13 12  2  0
 12  8  1  0
 15 16  2  0
 16 20  1  0
 20 19  2  0
 19 18  1  0
 18 17  2  0
 17 15  1  0
  1  2  2  0
  2  5  1  0
  5  7  2  0
  7  4  1  0
  4  3  2  0
  3  1  1  0
M  END

$$$$
