No_633-gen_results/8p0m/2024-11-26-14-13-15/
     RDKit          3D

 27 30  0  0  0  0  0  0  0  0999 V2000
  -28.0162   -0.8135   28.8779 C   0  0  0  0  0  0  0  0  0  0  0  0
  -27.0636   -0.1190   28.6079 C   0  0  0  0  0  0  0  0  0  0  0  0
  -27.0010    0.6913   27.4910 C   0  0  0  0  0  0  0  0  0  0  0  0
  -28.1373    0.7363   26.6350 C   0  0  0  0  0  0  0  0  0  0  0  0
  -29.2360    0.0765   27.0690 C   0  0  0  0  0  0  0  0  0  0  0  0
  -29.2177   -0.6429   28.1747 C   0  0  0  0  0  0  0  0  0  0  0  0
  -30.7399    0.1742   25.9746 Br  0  0  0  0  0  0  0  0  0  0  0  0
  -25.7054   -0.2172   29.4175 C   0  0  0  0  0  0  0  0  0  0  0  0
  -24.8393   -1.2020   29.1655 C   0  0  0  0  0  0  0  0  0  0  0  0
  -24.8553   -2.2022   28.9791 C   0  0  0  0  0  0  0  0  0  0  0  0
  -26.0330   -3.0625   28.9293 C   0  0  0  0  0  0  0  0  0  0  0  0
  -25.8262   -4.5057   29.0674 C   0  0  0  0  0  0  0  0  0  0  0  0
  -24.6115   -5.0722   28.8686 C   0  0  0  0  0  0  0  0  0  0  0  0
  -23.4985   -4.3181   28.5927 C   0  0  0  0  0  0  0  0  0  0  0  0
  -23.5909   -3.0246   28.7618 C   0  0  0  0  0  0  0  0  0  0  0  0
  -23.5780   -0.3834   28.6136 C   0  0  0  0  0  0  0  0  0  0  0  0
  -23.5493    0.6695   27.8160 C   0  0  0  0  0  0  0  0  0  0  0  0
  -22.4684    1.5333   27.7862 C   0  0  0  0  0  0  0  0  0  0  0  0
  -21.2028    1.1005   28.2513 C   0  0  0  0  0  0  0  0  0  0  0  0
  -22.3007   -0.6171   29.3995 C   0  0  0  0  0  0  0  0  0  0  0  0
  -21.1709    0.1247   29.1748 C   0  0  0  0  0  0  0  0  0  0  0  0
  -25.7186    0.6104   30.6944 C   0  0  0  0  0  0  0  0  0  0  0  0
  -25.8614    1.9783   30.5066 C   0  0  0  0  0  0  0  0  0  0  0  0
  -26.4214    2.6620   31.0539 C   0  0  0  0  0  0  0  0  0  0  0  0
  -26.7514    2.2893   32.4756 C   0  0  0  0  0  0  0  0  0  0  0  0
  -26.5440    0.9823   32.8511 C   0  0  0  0  0  0  0  0  0  0  0  0
  -26.1253    0.0439   31.8659 C   0  0  0  0  0  0  0  0  0  0  0  0
  5  7  1  0
  2  8  1  0
  8  9  1  0
  9 16  1  0
  8 22  1  0
  9 10  1  0
  1  2  2  0
  2  3  1  0
  3  4  2  0
  4  5  1  0
  5  6  2  0
  6  1  1  0
 22 23  2  0
 23 24  1  0
 24 25  2  0
 25 26  1  0
 26 27  2  0
 27 22  1  0
 10 11  2  0
 11 12  1  0
 12 13  2  0
 13 14  1  0
 14 15  2  0
 15 10  1  0
 16 17  2  0
 17 18  1  0
 18 19  2  0
 19 21  1  0
 21 20  2  0
 20 16  1  0
M  END

$$$$
