No_663-gen_results/8p0m/2024-11-26-14-13-15/
     RDKit          3D

 35 38  0  0  0  0  0  0  0  0999 V2000
  -28.1229   -1.3353   28.4874 O   0  0  0  0  0  0  0  0  0  0  0  0
  -28.5208   -0.4363   29.0779 C   0  0  0  0  0  0  0  0  0  0  0  0
  -29.6977    0.0507   28.9764 C   0  0  0  0  0  0  0  0  0  0  0  0
  -27.5405    0.1756   30.0054 N   0  0  0  0  0  0  0  0  0  0  0  0
  -27.8890    1.2664   30.8176 C   0  0  0  0  0  0  0  0  0  0  0  0
  -30.5287   -0.3224   28.2067 N   0  0  0  0  0  0  0  0  0  0  0  0
  -30.0828    1.2815   29.8160 C   0  0  0  0  0  0  0  0  0  0  0  0
  -29.3828    1.7630   30.4508 C   0  0  0  0  0  0  0  0  0  0  0  0
  -26.2340   -0.3870   30.2204 C   0  0  0  0  0  0  0  0  0  0  0  0
  -25.1880    0.5886   30.3238 C   0  0  0  0  0  0  0  0  0  0  0  0
  -24.5540    0.9268   29.0791 C   0  0  0  0  0  0  0  0  0  0  0  0
  -23.3935    1.5728   29.1287 C   0  0  0  0  0  0  0  0  0  0  0  0
  -22.7549    1.9771   30.3395 C   0  0  0  0  0  0  0  0  0  0  0  0
  -23.5479    1.7866   31.5148 C   0  0  0  0  0  0  0  0  0  0  0  0
  -24.6747    1.0247   31.4969 C   0  0  0  0  0  0  0  0  0  0  0  0
  -22.5960    1.9016   27.8691 C   0  0  0  0  0  0  0  0  0  0  0  0
  -21.3710    1.7894   27.8786 O   0  0  0  0  0  0  0  0  0  0  0  0
  -23.2847    2.2876   26.8592 O   0  0  0  0  0  0  0  0  0  0  0  0
  -25.3622    0.7737   32.7990 C   0  0  0  0  0  0  0  0  0  0  0  0
  -30.7401    0.0829   26.9504 C   0  0  0  0  0  0  0  0  0  0  0  0
  -31.5996   -0.6644   26.0810 C   0  0  0  0  0  0  0  0  0  0  0  0
  -30.0632    1.1734   26.3626 C   0  0  0  0  0  0  0  0  0  0  0  0
  -30.2327    1.5227   25.0361 C   0  0  0  0  0  0  0  0  0  0  0  0
  -31.7457   -0.3288   24.7155 C   0  0  0  0  0  0  0  0  0  0  0  0
  -31.0913    0.7734   24.2391 C   0  0  0  0  0  0  0  0  0  0  0  0
  -31.4040   -1.4388   28.6788 C   0  0  0  0  0  0  0  0  0  0  0  0
  -32.2215   -1.9764   28.1556 O   0  0  0  0  0  0  0  0  0  0  0  0
  -31.3555   -1.5854   30.0908 N   0  0  0  0  0  0  0  0  0  0  0  0
  -32.0179   -2.6437   30.7900 C   0  0  0  0  0  0  0  0  0  0  0  0
  -31.7308   -3.0938   31.6445 C   0  0  0  0  0  0  0  0  0  0  0  0
  -30.7368   -2.9545   32.1811 C   0  0  0  0  0  0  0  0  0  0  0  0
  -30.1786   -3.5650   33.4644 C   0  0  0  0  0  0  0  0  0  0  0  0
  -30.9606   -4.5273   33.9024 C   0  0  0  0  0  0  0  0  0  0  0  0
  -32.0916   -4.9407   33.3421 C   0  0  0  0  0  0  0  0  0  0  0  0
  -32.4770   -4.2626   32.2047 C   0  0  0  0  0  0  0  0  0  0  0  0
  1  2  2  0
  2  3  1  0
  2  4  1  0
  4  5  1  0
  3  6  1  0
  3  7  1  0
  5  8  1  0
  4  9  1  0
  9 10  1  0
 12 16  1  0
 16 17  2  0
 16 18  1  0
 15 19  1  0
  6 20  1  0
  6 26  1  0
 26 27  2  0
 26 28  1  0
 28 29  1  0
 29 30  1  0
  7  8  1  0
 20 21  2  0
 21 24  1  0
 24 25  2  0
 25 23  1  0
 23 22  2  0
 22 20  1  0
 30 31  2  0
 31 32  1  0
 32 33  2  0
 33 34  1  0
 34 35  2  0
 35 30  1  0
 10 11  2  0
 11 12  1  0
 12 13  2  0
 13 14  1  0
 14 15  2  0
 15 10  1  0
M  END

$$$$
