No_625-gen_results/8p0m/2024-11-26-14-13-15/
     RDKit          3D

 17 18  0  0  0  0  0  0  0  0999 V2000
  -28.0162   -0.8135   28.8779 C   0  0  0  0  0  0  0  0  0  0  0  0
  -28.4690   -0.7850   29.8287 C   0  0  0  0  0  0  0  0  0  0  0  0
  -27.0871    0.2903   28.6377 C   0  0  0  0  0  0  0  0  0  0  0  0
  -26.2516    0.4114   27.4223 C   0  0  0  0  0  0  0  0  0  0  0  0
  -28.3913    0.1041   30.9805 C   0  0  0  0  0  0  0  0  0  0  0  0
  -27.5332    1.1666   30.7866 C   0  0  0  0  0  0  0  0  0  0  0  0
  -26.8281    1.2557   29.6454 C   0  0  0  0  0  0  0  0  0  0  0  0
  -25.0638    0.2673   27.5264 N   0  0  0  0  0  0  0  0  0  0  0  0
  -26.8721    0.6383   26.1615 C   0  0  0  0  0  0  0  0  0  0  0  0
  -26.0048    0.5130   25.0700 C   0  0  0  0  0  0  0  0  0  0  0  0
  -24.1417    0.3181   26.5125 C   0  0  0  0  0  0  0  0  0  0  0  0
  -24.7059    0.4718   25.2740 N   0  0  0  0  0  0  0  0  0  0  0  0
  -28.1778    0.6151   25.9405 N   0  0  0  0  0  0  0  0  0  0  0  0
  -28.7341    0.5525   24.7690 C   0  0  0  0  0  0  0  0  0  0  0  0
  -30.1098    0.6326   24.7114 C   0  0  0  0  0  0  0  0  0  0  0  0
  -30.8035    1.1408   25.6969 C   0  0  0  0  0  0  0  0  0  0  0  0
  -30.2095    1.3181   26.9915 C   0  0  0  0  0  0  0  0  0  0  0  0
  3  4  1  0
  9 13  1  0
 13 14  2  3
 14 15  1  0
 15 16  2  3
 16 17  1  0
  4  8  2  0
  8 11  1  0
 11 12  2  0
 12 10  1  0
 10  9  2  0
  9  4  1  0
  1  2  2  0
  2  5  1  0
  5  6  2  0
  6  7  1  0
  7  3  2  0
  3  1  1  0
M  END

$$$$
