No_619-gen_results/8p0m/2024-11-26-14-13-15/
     RDKit          3D

 31 36  0  0  0  0  0  0  0  0999 V2000
  -28.0162   -0.8135   28.8779 C   0  0  0  0  0  0  0  0  0  0  0  0
  -27.0636   -0.1189   28.6079 C   0  0  0  0  0  0  0  0  0  0  0  0
  -25.7647   -0.3897   29.0360 C   0  0  0  0  0  0  0  0  0  0  0  0
  -25.5296   -1.5302   29.9014 C   0  0  0  0  0  0  0  0  0  0  0  0
  -26.6888   -2.2893   30.1810 C   0  0  0  0  0  0  0  0  0  0  0  0
  -27.8727   -1.9508   29.7373 C   0  0  0  0  0  0  0  0  0  0  0  0
  -24.5491    0.4100   28.7341 C   0  0  0  0  0  0  0  0  0  0  0  0
  -23.3309    0.0437   29.0569 C   0  0  0  0  0  0  0  0  0  0  0  0
  -22.1994    0.8236   28.7067 C   0  0  0  0  0  0  0  0  0  0  0  0
  -22.3657    1.8184   27.6957 C   0  0  0  0  0  0  0  0  0  0  0  0
  -24.6193    1.4577   27.7557 C   0  0  0  0  0  0  0  0  0  0  0  0
  -23.5641    2.1491   27.3161 C   0  0  0  0  0  0  0  0  0  0  0  0
  -29.0414   -2.7719   30.1634 C   0  0  0  0  0  0  0  0  0  0  0  0
  -30.2064   -2.2832   30.1924 N   0  0  0  0  0  0  0  0  0  0  0  0
  -28.8216   -3.8207   30.8710 O   0  0  0  0  0  0  0  0  0  0  0  0
  -31.3954   -3.0112   30.5933 C   0  0  0  0  0  0  0  0  0  0  0  0
  -32.4799   -2.5388   30.1517 C   0  0  0  0  0  0  0  0  0  0  0  0
  -32.4654   -1.4964   29.4660 C   0  0  0  0  0  0  0  0  0  0  0  0
  -33.7467   -0.9294   28.9027 C   0  0  0  0  0  0  0  0  0  0  0  0
  -33.7624    0.2622   28.1120 C   0  0  0  0  0  0  0  0  0  0  0  0
  -32.5044    0.8867   27.8933 C   0  0  0  0  0  0  0  0  0  0  0  0
  -31.3301    0.3966   28.3629 C   0  0  0  0  0  0  0  0  0  0  0  0
  -31.3418   -0.7655   29.1313 C   0  0  0  0  0  0  0  0  0  0  0  0
  -30.3287   -1.1525   29.4143 C   0  0  0  0  0  0  0  0  0  0  0  0
  -29.1339   -0.5536   28.9788 C   0  0  0  0  0  0  0  0  0  0  0  0
  -29.7270    0.6682   28.2480 N   0  0  0  0  0  0  0  0  0  0  0  0
  -29.2377    1.7786   27.6037 C   0  0  0  0  0  0  0  0  0  0  0  0
  -28.9845    2.8965   28.3884 C   0  0  0  0  0  0  0  0  0  0  0  0
  -28.9488    3.0764   29.6626 C   0  0  0  0  0  0  0  0  0  0  0  0
  -28.5851    4.0076   30.3532 C   0  0  0  0  0  0  0  0  0  0  0  0
  -28.1817    5.2156   29.7164 C   0  0  0  0  0  0  0  0  0  0  0  0
  3  7  1  0
  6 13  1  0
 13 14  1  0
 13 15  2  0
 14 16  1  0
 16 17  1  0
 14 24  1  0
 23 24  1  0
  1 25  1  0
 24 25  1  0
 22 26  1  0
 25 26  1  0
 26 27  1  0
 27 28  1  0
 28 29  2  3
 29 30  1  0
 30 31  2  0
 17 18  1  0
 18 19  2  0
 19 20  1  0
 20 21  2  0
 21 22  1  0
 22 23  2  0
 23 18  1  0
  1  2  2  0
  2  3  1  0
  3  4  2  0
  4  5  1  0
  5  6  2  0
  6  1  1  0
  7  8  2  0
  8  9  1  0
  9 10  2  0
 10 12  1  0
 12 11  2  0
 11  7  1  0
M  END

$$$$
