No_632-gen_results/8p0m/2024-11-26-14-13-15/
     RDKit          3D

 16 17  0  0  0  0  0  0  0  0999 V2000
  -28.0162   -0.8135   28.8779 C   0  0  0  0  0  0  0  0  0  0  0  0
  -28.4690   -0.7850   29.8287 C   0  0  0  0  0  0  0  0  0  0  0  0
  -27.0871    0.2903   28.6377 C   0  0  0  0  0  0  0  0  0  0  0  0
  -26.2516    0.4114   27.4223 C   0  0  0  0  0  0  0  0  0  0  0  0
  -28.3913    0.1041   30.9805 C   0  0  0  0  0  0  0  0  0  0  0  0
  -27.5332    1.1666   30.7866 C   0  0  0  0  0  0  0  0  0  0  0  0
  -26.8281    1.2557   29.6454 C   0  0  0  0  0  0  0  0  0  0  0  0
  -25.0637    0.2673   27.5265 N   0  0  0  0  0  0  0  0  0  0  0  0
  -24.1412    1.1287   26.8758 C   0  0  0  0  0  0  0  0  0  0  0  0
  -24.3049    1.8044   25.8142 C   0  0  0  0  0  0  0  0  0  0  0  0
  -26.9224    0.4885   26.1506 C   0  0  0  0  0  0  0  0  0  0  0  0
  -25.4663    1.9151   25.0008 C   0  0  0  0  0  0  0  0  0  0  0  0
  -26.6467    1.3446   25.1923 C   0  0  0  0  0  0  0  0  0  0  0  0
  -22.8746    1.1921   27.4630 N   0  0  0  0  0  0  0  0  0  0  0  0
  -22.0381    2.0538   26.8165 C   0  0  0  0  0  0  0  0  0  0  0  0
  -23.0372    2.5571   25.5613 C   0  0  0  0  0  0  0  0  0  0  0  0
  3  4  1  0
  4  8  1  0
  8  9  1  0
  9 10  2  0
  4 11  1  0
 10 12  1  0
 11 13  1  0
 12 13  2  0
  9 14  1  0
 14 15  2  3
 15 16  1  0
  1  2  2  0
  2  5  1  0
  5  6  2  0
  6  7  1  0
  7  3  2  0
  3  1  1  0
M  END

$$$$
