No_601-gen_results/8p0m/2024-11-26-14-13-15/
     RDKit          3D

 13 14  0  0  0  0  0  0  0  0999 V2000
  -28.1229   -1.3353   28.4874 O   0  0  0  0  0  0  0  0  0  0  0  0
  -27.0637   -0.8242   28.8687 C   0  0  0  0  0  0  0  0  0  0  0  0
  -26.4017   -0.0623   28.6224 C   0  0  0  0  0  0  0  0  0  0  0  0
  -26.2652   -1.8674   29.7609 N   0  0  0  0  0  0  0  0  0  0  0  0
  -26.8442    1.1343   27.8797 C   0  0  0  0  0  0  0  0  0  0  0  0
  -25.0005   -1.6707   30.1794 C   0  0  0  0  0  0  0  0  0  0  0  0
  -24.9787    0.3185   29.1504 C   0  0  0  0  0  0  0  0  0  0  0  0
  -24.3650   -0.5407   29.9325 C   0  0  0  0  0  0  0  0  0  0  0  0
  -27.1583    2.0852   28.0496 C   0  0  0  0  0  0  0  0  0  0  0  0
  -26.5986    0.7175   26.3638 C   0  0  0  0  0  0  0  0  0  0  0  0
  -27.0350    1.2749   25.5924 C   0  0  0  0  0  0  0  0  0  0  0  0
  -27.6513    3.0909   27.1019 C   0  0  0  0  0  0  0  0  0  0  0  0
  -27.5561    2.6437   25.7332 C   0  0  0  0  0  0  0  0  0  0  0  0
  1  2  2  0
  2  3  1  0
  2  4  1  0
  3  5  1  0
  3  7  1  0
  6  8  1  0
  7  8  1  0
  6  4  1  0
  5  9  2  0
  9 12  1  0
 12 13  2  0
 13 11  1  0
 11 10  2  0
 10  5  1  0
M  END

$$$$
