No_653-gen_results/8p0m/2024-11-26-14-13-15/
     RDKit          3D

 20 22  0  0  0  0  0  0  0  0999 V2000
  -28.0162   -0.8135   28.8779 C   0  0  0  0  0  0  0  0  0  0  0  0
  -27.0636   -0.1189   28.6079 C   0  0  0  0  0  0  0  0  0  0  0  0
  -26.8756    1.1325   28.9134 C   0  0  0  0  0  0  0  0  0  0  0  0
  -25.6883    1.9515   28.5672 C   0  0  0  0  0  0  0  0  0  0  0  0
  -24.6394    1.2834   27.8753 C   0  0  0  0  0  0  0  0  0  0  0  0
  -24.8068   -0.0513   27.6040 C   0  0  0  0  0  0  0  0  0  0  0  0
  -25.9020   -0.7670   27.9511 C   0  0  0  0  0  0  0  0  0  0  0  0
  -28.6392   -0.5118   30.2403 C   0  0  0  0  0  0  0  0  0  0  0  0
  -28.8731    0.8215   30.4840 C   0  0  0  0  0  0  0  0  0  0  0  0
  -27.6873    1.6637   30.0653 C   0  0  0  0  0  0  0  0  0  0  0  0
  -23.4738    1.9736   27.3661 C   0  0  0  0  0  0  0  0  0  0  0  0
  -22.3313    1.7362   27.7924 O   0  0  0  0  0  0  0  0  0  0  0  0
  -23.7019    3.1626   26.7977 O   0  0  0  0  0  0  0  0  0  0  0  0
  -30.1445    1.2539   29.9955 C   0  0  0  0  0  0  0  0  0  0  0  0
  -30.3497    2.1214   29.0187 C   0  0  0  0  0  0  0  0  0  0  0  0
  -29.5505    3.1511   28.8995 C   0  0  0  0  0  0  0  0  0  0  0  0
  -28.2828    3.0418   29.5756 C   0  0  0  0  0  0  0  0  0  0  0  0
  -26.9615    2.0923   31.4040 C   0  0  0  0  0  0  0  0  0  0  0  0
  -27.5873    2.4178   32.4991 C   0  0  0  0  0  0  0  0  0  0  0  0
  -25.4820    1.8885   31.3832 C   0  0  0  0  0  0  0  0  0  0  0  0
  1  8  1  0
  3 10  1  0
  9 10  1  0
  5 11  1  0
 11 12  2  0
 11 13  1  0
  9 14  1  0
 14 15  1  0
 15 16  1  0
 10 17  1  0
 16 17  1  0
 10 18  1  0
 18 19  1  0
 18 20  1  0
  2  1  1  0
  8  9  1  0
  2  3  2  0
  3  4  1  0
  4  5  2  0
  5  6  1  0
  6  7  2  0
  7  2  1  0
M  END

$$$$
