No_654-gen_results/8p0m/2024-11-26-14-13-15/
     RDKit          3D

 20 21  0  0  0  0  0  0  0  0999 V2000
  -28.0162   -0.8135   28.8779 C   0  0  0  0  0  0  0  0  0  0  0  0
  -28.4690   -0.7850   29.8287 C   0  0  0  0  0  0  0  0  0  0  0  0
  -26.5455   -0.8762   28.8500 C   0  0  0  0  0  0  0  0  0  0  0  0
  -25.8041   -1.0324   30.0571 C   0  0  0  0  0  0  0  0  0  0  0  0
  -27.9437   -0.9869   31.2075 C   0  0  0  0  0  0  0  0  0  0  0  0
  -26.5825   -1.0386   31.2231 C   0  0  0  0  0  0  0  0  0  0  0  0
  -30.2809   -0.7232   29.8834 Cl  0  0  0  0  0  0  0  0  0  0  0  0
  -24.3690   -1.1186   30.0640 C   0  0  0  0  0  0  0  0  0  0  0  0
  -23.5954   -0.5553   29.0940 C   0  0  0  0  0  0  0  0  0  0  0  0
  -22.1698   -0.5482   29.2457 C   0  0  0  0  0  0  0  0  0  0  0  0
  -24.0101   -0.2257   27.8497 C   0  0  0  0  0  0  0  0  0  0  0  0
  -23.2773    0.6688   27.0179 C   0  0  0  0  0  0  0  0  0  0  0  0
  -21.3396    0.2567   28.4436 C   0  0  0  0  0  0  0  0  0  0  0  0
  -21.9278    0.9704   27.3679 C   0  0  0  0  0  0  0  0  0  0  0  0
  -23.9230    1.4087   25.9215 C   0  0  0  0  0  0  0  0  0  0  0  0
  -23.9692    2.8454   25.9811 C   0  0  0  0  0  0  0  0  0  0  0  0
  -24.5530    0.6836   24.9873 C   0  0  0  0  0  0  0  0  0  0  0  0
  -23.8672   -1.6376   31.1435 O   0  0  0  0  0  0  0  0  0  0  0  0
  -25.2059    3.5372   26.3142 C   0  0  0  0  0  0  0  0  0  0  0  0
  -25.1145    4.8466   26.8806 C   0  0  0  0  0  0  0  0  0  0  0  0
  2  7  1  0
  4  8  1  0
  8  9  1  0
 12 15  1  0
 15 16  1  0
 15 17  1  0
  8 18  2  0
 16 19  2  3
 19 20  1  0
  9 10  2  0
 10 13  1  0
 13 14  2  0
 14 12  1  0
 12 11  2  0
 11  9  1  0
  1  2  2  0
  2  5  1  0
  5  6  2  0
  6  4  1  0
  4  3  2  0
  3  1  1  0
M  END

$$$$
