No_672-gen_results/8p0m/2024-11-26-14-13-15/
     RDKit          3D

 35 38  0  0  0  0  0  0  0  0999 V2000
  -28.0162   -0.8135   28.8779 C   0  0  0  0  0  0  0  0  0  0  0  0
  -28.4690   -0.7850   29.8287 C   0  0  0  0  0  0  0  0  0  0  0  0
  -26.5455   -0.8762   28.8500 C   0  0  0  0  0  0  0  0  0  0  0  0
  -25.8041   -1.0324   30.0571 C   0  0  0  0  0  0  0  0  0  0  0  0
  -27.9437   -0.9869   31.2075 C   0  0  0  0  0  0  0  0  0  0  0  0
  -26.5825   -1.0386   31.2231 C   0  0  0  0  0  0  0  0  0  0  0  0
  -24.3810   -1.1082   30.0855 C   0  0  0  0  0  0  0  0  0  0  0  0
  -23.9253   -1.6271   30.8714 O   0  0  0  0  0  0  0  0  0  0  0  0
  -23.7427   -0.2150   29.3151 O   0  0  0  0  0  0  0  0  0  0  0  0
  -22.8788    0.6543   29.7424 C   0  0  0  0  0  0  0  0  0  0  0  0
  -30.0864   -0.6651   29.8701 C   0  0  0  0  0  0  0  0  0  0  0  0
  -30.5993    0.3018   30.4704 O   0  0  0  0  0  0  0  0  0  0  0  0
  -30.6791   -1.3104   28.9653 O   0  0  0  0  0  0  0  0  0  0  0  0
  -23.2066    2.0403   29.4631 C   0  0  0  0  0  0  0  0  0  0  0  0
  -24.2487    2.4434   30.0525 O   0  0  0  0  0  0  0  0  0  0  0  0
  -25.2815    3.1357   29.4711 C   0  0  0  0  0  0  0  0  0  0  0  0
  -25.1722    3.1493   28.2119 C   0  0  0  0  0  0  0  0  0  0  0  0
  -23.9426    2.6437   27.8936 O   0  0  0  0  0  0  0  0  0  0  0  0
  -26.6467    2.4865   30.0950 C   0  0  0  0  0  0  0  0  0  0  0  0
  -25.1096    4.3706   27.6912 F   0  0  0  0  0  0  0  0  0  0  0  0
  -27.6028    2.7253   29.5082 O   0  0  0  0  0  0  0  0  0  0  0  0
  -26.6028    1.8938   31.2309 O   0  0  0  0  0  0  0  0  0  0  0  0
  -27.5591    2.2756   32.2122 C   0  0  0  0  0  0  0  0  0  0  0  0
  -27.1610    1.8812   33.4898 C   0  0  0  0  0  0  0  0  0  0  0  0
  -28.2363    1.5850   34.3551 C   0  0  0  0  0  0  0  0  0  0  0  0
  -29.5411    1.8957   33.9684 C   0  0  0  0  0  0  0  0  0  0  0  0
  -29.8073    2.2312   32.6383 C   0  0  0  0  0  0  0  0  0  0  0  0
  -28.5243    3.1539   31.9717 C   0  0  0  0  0  0  0  0  0  0  0  0
  -25.9979    2.3753   27.3553 O   0  0  0  0  0  0  0  0  0  0  0  0
  -26.7687    2.7942   26.3668 C   0  0  0  0  0  0  0  0  0  0  0  0
  -27.1595    1.8506   25.5177 C   0  0  0  0  0  0  0  0  0  0  0  0
  -28.4109    1.9301   24.8204 C   0  0  0  0  0  0  0  0  0  0  0  0
  -29.2739    2.9396   25.2519 C   0  0  0  0  0  0  0  0  0  0  0  0
  -28.7929    4.0300   26.0512 C   0  0  0  0  0  0  0  0  0  0  0  0
  -27.6082    3.9264   26.6196 C   0  0  0  0  0  0  0  0  0  0  0  0
  4  7  1  0
  7  8  2  0
  7  9  1  0
  9 10  1  0
  2 11  1  0
 11 12  2  0
 11 13  1  0
 10 14  1  0
 14 15  1  0
 15 16  1  0
 16 17  1  0
 14 18  1  0
 17 18  1  0
 16 19  1  0
 17 20  1  0
 19 21  2  0
 19 22  1  0
 22 23  1  0
 17 29  1  0
 29 30  1  0
 23 24  2  0
 24 25  1  0
 25 26  2  0
 26 27  1  0
 27 28  2  0
 28 23  1  0
 30 31  2  0
 31 32  1  0
 32 33  2  0
 33 34  1  0
 34 35  2  0
 35 30  1  0
  1  2  2  0
  2  5  1  0
  5  6  2  0
  6  4  1  0
  4  3  2  0
  3  1  1  0
M  END

$$$$
