No_661-gen_results/8p0m/2024-11-26-14-13-15/
     RDKit          3D

 16 17  0  0  0  0  0  0  0  0999 V2000
  -28.0162   -0.8135   28.8779 C   0  0  0  0  0  0  0  0  0  0  0  0
  -28.4690   -0.7850   29.8287 C   0  0  0  0  0  0  0  0  0  0  0  0
  -28.1816    0.4277   28.1134 C   0  0  0  0  0  0  0  0  0  0  0  0
  -28.9841    1.4155   28.5154 C   0  0  0  0  0  0  0  0  0  0  0  0
  -29.3802    0.1384   30.4612 C   0  0  0  0  0  0  0  0  0  0  0  0
  -29.5415    1.2736   29.7242 C   0  0  0  0  0  0  0  0  0  0  0  0
  -27.4452    0.4872   26.7726 C   0  0  0  0  0  0  0  0  0  0  0  0
  -27.8631    0.8051   25.7558 C   0  0  0  0  0  0  0  0  0  0  0  0
  -27.0800    0.7678   24.5001 C   0  0  0  0  0  0  0  0  0  0  0  0
  -26.0298    0.1277   26.8193 C   0  0  0  0  0  0  0  0  0  0  0  0
  -25.3384   -0.1677   28.1503 C   0  0  0  0  0  0  0  0  0  0  0  0
  -25.7275    0.4402   24.5600 C   0  0  0  0  0  0  0  0  0  0  0  0
  -25.1850    0.1761   25.7466 C   0  0  0  0  0  0  0  0  0  0  0  0
  -24.5130    0.8410   28.6886 C   0  0  0  0  0  0  0  0  0  0  0  0
  -23.7459    0.5251   29.7589 C   0  0  0  0  0  0  0  0  0  0  0  0
  -22.7992    1.4235   30.3538 C   0  0  0  0  0  0  0  0  0  0  0  0
  3  7  1  0
 10 11  1  0
 11 14  1  0
 14 15  2  3
 15 16  1  0
  7  8  2  0
  8  9  1  0
  9 12  2  0
 12 13  1  0
 13 10  2  0
 10  7  1  0
  1  2  2  0
  2  5  1  0
  5  6  2  0
  6  4  1  0
  4  3  2  0
  3  1  1  0
M  END

$$$$
