No_600-gen_results/8p0m/2024-11-26-14-13-15/
     RDKit          3D

 23 25  0  0  0  0  0  0  0  0999 V2000
  -28.0162   -0.8135   28.8779 C   0  0  0  0  0  0  0  0  0  0  0  0
  -28.4690   -0.7850   29.8287 C   0  0  0  0  0  0  0  0  0  0  0  0
  -26.5455   -0.8762   28.8500 C   0  0  0  0  0  0  0  0  0  0  0  0
  -25.8041   -1.0324   30.0571 C   0  0  0  0  0  0  0  0  0  0  0  0
  -27.9437   -0.9869   31.2075 C   0  0  0  0  0  0  0  0  0  0  0  0
  -26.5825   -1.0386   31.2231 C   0  0  0  0  0  0  0  0  0  0  0  0
  -24.3810   -1.1082   30.0855 C   0  0  0  0  0  0  0  0  0  0  0  0
  -23.7054    0.0955   29.8440 C   0  0  0  0  0  0  0  0  0  0  0  0
  -22.4285    0.1160   29.2171 C   0  0  0  0  0  0  0  0  0  0  0  0
  -21.8149    1.2942   28.8765 C   0  0  0  0  0  0  0  0  0  0  0  0
  -23.8165    1.2584   30.7658 C   0  0  0  0  0  0  0  0  0  0  0  0
  -23.3017    2.5123   30.4018 C   0  0  0  0  0  0  0  0  0  0  0  0
  -22.2367    2.5377   29.4459 C   0  0  0  0  0  0  0  0  0  0  0  0
  -30.3163   -0.6713   29.8542 Cl  0  0  0  0  0  0  0  0  0  0  0  0
  -25.7785   -0.7893   27.6970 N   0  0  0  0  0  0  0  0  0  0  0  0
  -26.0340    0.1015   26.6793 C   0  0  0  0  0  0  0  0  0  0  0  0
  -25.2134    0.0686   25.5386 C   0  0  0  0  0  0  0  0  0  0  0  0
  -27.0136    1.1062   26.7599 C   0  0  0  0  0  0  0  0  0  0  0  0
  -27.2310    1.9493   25.7185 C   0  0  0  0  0  0  0  0  0  0  0  0
  -28.2207    2.8853   25.8565 C   0  0  0  0  0  0  0  0  0  0  0  0
  -29.0217    2.9192   26.9499 C   0  0  0  0  0  0  0  0  0  0  0  0
  -28.7569    2.0982   28.0203 C   0  0  0  0  0  0  0  0  0  0  0  0
  -27.7670    1.1689   27.9044 C   0  0  0  0  0  0  0  0  0  0  0  0
  4  7  1  0
  7  8  1  0
  2 14  1  0
  3 15  1  0
 15 16  1  0
 16 17  2  0
 16 18  1  0
 18 19  2  0
 19 20  1  0
 20 21  2  0
 21 22  1  0
 22 23  2  0
 23 18  1  0
  8  9  2  0
  9 10  1  0
 10 13  2  0
 13 12  1  0
 12 11  2  0
 11  8  1  0
  1  2  2  0
  2  5  1  0
  5  6  2  0
  6  4  1  0
  4  3  2  0
  3  1  1  0
M  END

$$$$
