No_640-gen_results/8p0m/2024-11-26-14-13-15/
     RDKit          3D

 13 14  0  0  0  0  0  0  0  0999 V2000
  -28.0162   -0.8135   28.8779 C   0  0  0  0  0  0  0  0  0  0  0  0
  -28.4690   -0.7850   29.8287 C   0  0  0  0  0  0  0  0  0  0  0  0
  -27.1356    0.2359   28.5352 C   0  0  0  0  0  0  0  0  0  0  0  0
  -26.8050    1.0509   29.2763 C   0  0  0  0  0  0  0  0  0  0  0  0
  -28.2372    0.1503   30.9300 C   0  0  0  0  0  0  0  0  0  0  0  0
  -27.3522    1.1239   30.6071 C   0  0  0  0  0  0  0  0  0  0  0  0
  -26.3833    0.3863   27.1651 C   0  0  0  0  0  0  0  0  0  0  0  0
  -25.9668    1.1634   26.6536 C   0  0  0  0  0  0  0  0  0  0  0  0
  -25.3845    2.0055   26.9256 C   0  0  0  0  0  0  0  0  0  0  0  0
  -24.7565    2.2838   27.7766 C   0  0  0  0  0  0  0  0  0  0  0  0
  -25.0539    2.4161   29.2418 C   0  0  0  0  0  0  0  0  0  0  0  0
  -25.5190    2.2227   29.2987 C   0  0  0  0  0  0  0  0  0  0  0  0
  -26.0063    2.8690   30.3566 N   0  0  0  0  0  0  0  0  0  0  0  0
  3  7  1  0
  7  8  2  3
  8  9  1  0
  9 10  2  3
 10 11  1  0
  4 12  1  0
 11 12  1  0
 12 13  1  0
  1  2  2  0
  2  5  1  0
  5  6  2  0
  6  4  1  0
  4  3  2  0
  3  1  1  0
M  END

$$$$
