No_621-gen_results/8p0m/2024-11-26-14-13-15/
     RDKit          3D

 14 14  0  0  0  0  0  0  0  0999 V2000
  -28.0162   -0.8135   28.8779 C   0  0  0  0  0  0  0  0  0  0  0  0
  -28.4690   -0.7850   29.8287 C   0  0  0  0  0  0  0  0  0  0  0  0
  -28.1816    0.4277   28.1134 C   0  0  0  0  0  0  0  0  0  0  0  0
  -27.4498    0.6435   26.8500 C   0  0  0  0  0  0  0  0  0  0  0  0
  -26.1815    0.0357   26.7145 C   0  0  0  0  0  0  0  0  0  0  0  0
  -25.7800   -0.9326   27.6938 C   0  0  0  0  0  0  0  0  0  0  0  0
  -26.5568   -1.2134   28.7413 C   0  0  0  0  0  0  0  0  0  0  0  0
  -29.6747   -0.4261   29.9581 F   0  0  0  0  0  0  0  0  0  0  0  0
  -28.6558   -2.2681   30.2995 F   0  0  0  0  0  0  0  0  0  0  0  0
  -27.8368   -0.4218   30.9927 F   0  0  0  0  0  0  0  0  0  0  0  0
  -27.7618    1.6200   25.8536 C   0  0  0  0  0  0  0  0  0  0  0  0
  -27.1979    2.8295   26.1332 C   0  0  0  0  0  0  0  0  0  0  0  0
  -28.6957    1.3597   24.8779 C   0  0  0  0  0  0  0  0  0  0  0  0
  -29.6420    2.2457   24.5964 C   0  0  0  0  0  0  0  0  0  0  0  0
  1  2  1  0
  2  8  1  0
  2  9  1  0
  2 10  1  0
  4 11  1  0
 11 12  1  0
 11 13  1  0
 13 14  1  0
  1  3  2  0
  3  4  1  0
  4  5  2  0
  5  6  1  0
  6  7  2  0
  7  1  1  0
M  END

$$$$
