No_636-gen_results/8p0m/2024-11-26-14-13-15/
     RDKit          3D

 20 21  0  0  0  0  0  0  0  0999 V2000
  -28.0162   -0.8135   28.8779 C   0  0  0  0  0  0  0  0  0  0  0  0
  -27.0636   -0.1189   28.6079 C   0  0  0  0  0  0  0  0  0  0  0  0
  -26.9716    0.7139   27.5060 C   0  0  0  0  0  0  0  0  0  0  0  0
  -25.8205    1.4909   27.1160 C   0  0  0  0  0  0  0  0  0  0  0  0
  -24.6562    1.4242   27.9180 C   0  0  0  0  0  0  0  0  0  0  0  0
  -24.6847    0.5901   29.0659 C   0  0  0  0  0  0  0  0  0  0  0  0
  -25.8099   -0.1265   29.3338 C   0  0  0  0  0  0  0  0  0  0  0  0
  -28.0540   -1.5468   30.1892 C   0  0  0  0  0  0  0  0  0  0  0  0
  -26.8785   -1.7467   30.8493 N   0  0  0  0  0  0  0  0  0  0  0  0
  -25.8061   -0.9985   30.5502 C   0  0  0  0  0  0  0  0  0  0  0  0
  -23.4516    2.2263   27.5883 C   0  0  0  0  0  0  0  0  0  0  0  0
  -23.2679    2.7571   26.4898 O   0  0  0  0  0  0  0  0  0  0  0  0
  -22.3882    2.1433   28.4010 O   0  0  0  0  0  0  0  0  0  0  0  0
  -28.0856    0.8002   26.5385 C   0  0  0  0  0  0  0  0  0  0  0  0
  -29.1483    1.5024   26.8601 C   0  0  0  0  0  0  0  0  0  0  0  0
  -27.8385    0.5752   25.1803 C   0  0  0  0  0  0  0  0  0  0  0  0
  -29.4081    1.9677   28.0327 O   0  0  0  0  0  0  0  0  0  0  0  0
  -30.1655    1.5259   25.9998 N   0  0  0  0  0  0  0  0  0  0  0  0
  -31.4819    2.0370   26.2855 C   0  0  0  0  0  0  0  0  0  0  0  0
  -24.7392   -1.1358   31.2091 O   0  0  0  0  0  0  0  0  0  0  0  0
  2  3  1  0
  3  4  1  0
  4  5  1  0
  5  6  1  0
  2  7  1  0
  6  7  1  0
  1  8  1  0
  7 10  1  0
  9 10  1  0
  5 11  1  0
 11 12  2  0
 11 13  1  0
  3 14  1  0
 14 15  1  0
 14 16  1  0
 15 17  2  0
 15 18  1  0
 18 19  1  0
 10 20  2  0
  2  1  1  0
  8  9  1  0
M  END

$$$$
