No_629-gen_results/8p0m/2024-11-26-14-13-15/
     RDKit          3D

 35 38  0  0  0  0  0  0  0  0999 V2000
  -28.0162   -0.8135   28.8779 C   0  0  0  0  0  0  0  0  0  0  0  0
  -27.0636   -0.1190   28.6079 C   0  0  0  0  0  0  0  0  0  0  0  0
  -27.0010    0.6913   27.4910 C   0  0  0  0  0  0  0  0  0  0  0  0
  -28.1373    0.7363   26.6350 C   0  0  0  0  0  0  0  0  0  0  0  0
  -29.2360    0.0765   27.0690 C   0  0  0  0  0  0  0  0  0  0  0  0
  -29.2177   -0.6429   28.1747 C   0  0  0  0  0  0  0  0  0  0  0  0
  -30.4152    0.1590   26.1820 C   0  0  0  0  0  0  0  0  0  0  0  0
  -30.3473    0.0802   24.9534 N   0  0  0  0  0  0  0  0  0  0  0  0
  -31.5704    0.1013   26.7354 O   0  0  0  0  0  0  0  0  0  0  0  0
  -25.7104   -0.2029   29.4236 C   0  0  0  0  0  0  0  0  0  0  0  0
  -25.5972   -0.6011   30.4045 C   0  0  0  0  0  0  0  0  0  0  0  0
  -24.2778   -0.6504   31.1688 C   0  0  0  0  0  0  0  0  0  0  0  0
  -23.1503   -0.1794   30.5059 C   0  0  0  0  0  0  0  0  0  0  0  0
  -23.3141    0.3426   29.2343 C   0  0  0  0  0  0  0  0  0  0  0  0
  -24.5895    0.3263   28.5502 C   0  0  0  0  0  0  0  0  0  0  0  0
  -22.1332    0.8332   28.5194 C   0  0  0  0  0  0  0  0  0  0  0  0
  -22.2956    1.6311   27.5109 O   0  0  0  0  0  0  0  0  0  0  0  0
  -20.9196    0.5560   28.8873 O   0  0  0  0  0  0  0  0  0  0  0  0
  -31.4983   -0.0694   24.0357 C   0  0  0  0  0  0  0  0  0  0  0  0
  -29.1019    0.0989   24.1137 C   0  0  0  0  0  0  0  0  0  0  0  0
  -32.3765    0.7301   24.0942 C   0  0  0  0  0  0  0  0  0  0  0  0
  -33.6647    0.4957   23.5603 C   0  0  0  0  0  0  0  0  0  0  0  0
  -34.7521    1.4115   23.6064 C   0  0  0  0  0  0  0  0  0  0  0  0
  -34.5092    2.6519   24.2545 C   0  0  0  0  0  0  0  0  0  0  0  0
  -33.2558    2.9641   24.7903 C   0  0  0  0  0  0  0  0  0  0  0  0
  -32.2435    2.1108   24.7172 C   0  0  0  0  0  0  0  0  0  0  0  0
  -31.4285   -1.0441   23.2937 O   0  0  0  0  0  0  0  0  0  0  0  0
  -28.0888   -1.5971   29.9869 O   0  0  0  0  0  0  0  0  0  0  0  0
  -29.1587   -1.9903   30.5529 C   0  0  0  0  0  0  0  0  0  0  0  0
  -29.5091   -1.2850   31.6597 C   0  0  0  0  0  0  0  0  0  0  0  0
  -28.8979   -0.6901   32.3230 C   0  0  0  0  0  0  0  0  0  0  0  0
  -29.2177    0.1393   33.5481 C   0  0  0  0  0  0  0  0  0  0  0  0
  -30.5286    0.0074   33.9647 C   0  0  0  0  0  0  0  0  0  0  0  0
  -31.0073   -1.3972   32.0680 C   0  0  0  0  0  0  0  0  0  0  0  0
  -31.4416   -0.7117   33.1923 C   0  0  0  0  0  0  0  0  0  0  0  0
  5  7  1  0
  7  8  1  0
  7  9  2  0
  2 10  1  0
 14 16  1  0
 16 17  2  0
 16 18  1  0
  8 19  1  0
  8 20  1  0
 19 21  1  0
 19 27  2  0
  1 28  1  0
 28 29  1  0
 29 30  1  0
  1  2  1  0
  2  3  2  0
  3  4  1  0
  4  5  2  0
  5  6  1  0
  6  1  2  0
 30 31  2  0
 31 32  1  0
 32 33  2  0
 33 35  1  0
 35 34  2  0
 34 30  1  0
 10 11  2  0
 11 12  1  0
 12 13  2  0
 13 14  1  0
 14 15  2  0
 15 10  1  0
 21 22  2  0
 22 23  1  0
 23 24  2  0
 24 25  1  0
 25 26  2  0
 26 21  1  0
M  END

$$$$
