No_694-gen_results/8p0m/2024-11-26-14-13-15/
     RDKit          3D

 10 10  0  0  0  0  0  0  0  0999 V2000
  -28.0727   -1.2542   28.5316 F   0  0  0  0  0  0  0  0  0  0  0  0
  -28.2662   -0.4214   29.1931 C   0  0  0  0  0  0  0  0  0  0  0  0
  -29.4445    0.0759   29.3394 C   0  0  0  0  0  0  0  0  0  0  0  0
  -29.7073    1.1743   30.2277 C   0  0  0  0  0  0  0  0  0  0  0  0
  -28.5970    1.7109   30.9110 C   0  0  0  0  0  0  0  0  0  0  0  0
  -27.3024    1.1821   30.7905 C   0  0  0  0  0  0  0  0  0  0  0  0
  -27.1217    0.1218   29.9802 C   0  0  0  0  0  0  0  0  0  0  0  0
  -25.5877   -0.5373   29.8164 Cl  0  0  0  0  0  0  0  0  0  0  0  0
  -30.9196    1.6719   30.3503 F   0  0  0  0  0  0  0  0  0  0  0  0
  -28.7759    3.0431   32.0040 Cl  0  0  0  0  0  0  0  0  0  0  0  0
  1  2  1  0
  7  8  1  0
  4  9  1  0
  5 10  1  0
  2  3  2  0
  3  4  1  0
  4  5  2  0
  5  6  1  0
  6  7  2  0
  7  2  1  0
M  END

$$$$
