No_684-gen_results/8p0m/2024-11-26-14-13-15/
     RDKit          3D

 22 23  0  0  0  0  0  0  0  0999 V2000
  -28.0162   -0.8135   28.8779 C   0  0  0  0  0  0  0  0  0  0  0  0
  -27.0636   -0.1190   28.6079 C   0  0  0  0  0  0  0  0  0  0  0  0
  -27.0010    0.6913   27.4910 C   0  0  0  0  0  0  0  0  0  0  0  0
  -25.8548    1.4825   27.0830 C   0  0  0  0  0  0  0  0  0  0  0  0
  -24.6901    1.4526   27.8807 C   0  0  0  0  0  0  0  0  0  0  0  0
  -23.4878    2.1451   27.6011 C   0  0  0  0  0  0  0  0  0  0  0  0
  -25.8122   -0.1656   29.4299 C   0  0  0  0  0  0  0  0  0  0  0  0
  -24.6456    0.5887   29.0806 C   0  0  0  0  0  0  0  0  0  0  0  0
  -29.2288   -0.0950   29.4102 C   0  0  0  0  0  0  0  0  0  0  0  0
  -23.4277    3.0650   26.7254 N   0  0  0  0  0  0  0  0  0  0  0  0
  -22.1906    1.7153   28.1318 C   0  0  0  0  0  0  0  0  0  0  0  0
  -29.4407    0.9724   29.0938 C   0  0  0  0  0  0  0  0  0  0  0  0
  -30.5323    1.5861   29.0461 C   0  0  0  0  0  0  0  0  0  0  0  0
  -31.6668    0.8539   29.6439 C   0  0  0  0  0  0  0  0  0  0  0  0
  -30.2972   -0.9612   29.8720 C   0  0  0  0  0  0  0  0  0  0  0  0
  -31.5264   -0.4023   30.0397 C   0  0  0  0  0  0  0  0  0  0  0  0
  -21.1304    2.2325   27.5288 O   0  0  0  0  0  0  0  0  0  0  0  0
  -22.0791    0.8591   29.0835 F   0  0  0  0  0  0  0  0  0  0  0  0
  -30.1076   -2.2456   30.2350 O   0  0  0  0  0  0  0  0  0  0  0  0
  -29.0806   -2.6376   31.0544 C   0  0  0  0  0  0  0  0  0  0  0  0
  -28.4684   -3.9064   30.6610 C   0  0  0  0  0  0  0  0  0  0  0  0
  -28.9917   -4.9564   30.8950 O   0  0  0  0  0  0  0  0  0  0  0  0
  1  2  1  0
  5  6  1  0
  1  9  1  0
  6 10  2  0
  6 11  1  0
 11 17  2  0
 11 18  1  0
 15 19  1  0
 19 20  1  0
 20 21  2  3
 21 22  1  0
  2  3  2  0
  3  4  1  0
  4  5  2  0
  5  8  1  0
  8  7  2  0
  7  2  1  0
  9 12  2  0
 12 13  1  0
 13 14  2  0
 14 16  1  0
 16 15  2  0
 15  9  1  0
M  END

$$$$
