No_676-gen_results/8p0m/2024-11-26-14-13-15/
     RDKit          3D

 13 14  0  0  0  0  0  0  0  0999 V2000
  -28.0162   -0.8135   28.8779 C   0  0  0  0  0  0  0  0  0  0  0  0
  -28.4690   -0.7850   29.8287 C   0  0  0  0  0  0  0  0  0  0  0  0
  -26.5042   -0.7777   28.8766 C   0  0  0  0  0  0  0  0  0  0  0  0
  -25.8103   -0.8531   30.1028 C   0  0  0  0  0  0  0  0  0  0  0  0
  -27.9906   -0.8916   31.2257 C   0  0  0  0  0  0  0  0  0  0  0  0
  -26.6042   -0.8676   31.2652 C   0  0  0  0  0  0  0  0  0  0  0  0
  -30.2937   -0.8377   29.8355 Cl  0  0  0  0  0  0  0  0  0  0  0  0
  -24.3700   -0.8208   30.1393 C   0  0  0  0  0  0  0  0  0  0  0  0
  -23.6623   -1.3275   30.7489 C   0  0  0  0  0  0  0  0  0  0  0  0
  -23.7738    0.1466   29.1200 C   0  0  0  0  0  0  0  0  0  0  0  0
  -22.3826    0.2062   28.9964 C   0  0  0  0  0  0  0  0  0  0  0  0
  -22.2067   -1.2773   30.8730 C   0  0  0  0  0  0  0  0  0  0  0  0
  -21.6231   -0.4908   29.8603 C   0  0  0  0  0  0  0  0  0  0  0  0
  2  7  1  0
  4  8  1  0
  8  9  2  0
  9 12  1  0
 12 13  2  0
 13 11  1  0
 11 10  2  0
 10  8  1  0
  1  2  2  0
  2  5  1  0
  5  6  2  0
  6  4  1  0
  4  3  2  0
  3  1  1  0
M  END

$$$$
