No_652-gen_results/8p0m/2024-11-26-14-13-15/
     RDKit          3D

 26 28  0  0  0  0  0  0  0  0999 V2000
  -28.0162   -0.8135   28.8779 C   0  0  0  0  0  0  0  0  0  0  0  0
  -27.0636   -0.1190   28.6079 C   0  0  0  0  0  0  0  0  0  0  0  0
  -25.7647   -0.3897   29.0360 C   0  0  0  0  0  0  0  0  0  0  0  0
  -25.5296   -1.5303   29.9014 C   0  0  0  0  0  0  0  0  0  0  0  0
  -26.6888   -2.2893   30.1810 C   0  0  0  0  0  0  0  0  0  0  0  0
  -27.8727   -1.9508   29.7373 C   0  0  0  0  0  0  0  0  0  0  0  0
  -28.9304   -2.7298   30.1154 O   0  0  0  0  0  0  0  0  0  0  0  0
  -24.5394    0.4211   28.7421 C   0  0  0  0  0  0  0  0  0  0  0  0
  -23.3459    0.1143   29.1690 C   0  0  0  0  0  0  0  0  0  0  0  0
  -22.1936    0.8740   28.7554 C   0  0  0  0  0  0  0  0  0  0  0  0
  -22.3615    1.8342   27.6952 C   0  0  0  0  0  0  0  0  0  0  0  0
  -24.5980    1.3584   27.6395 C   0  0  0  0  0  0  0  0  0  0  0  0
  -23.5460    2.0826   27.2326 C   0  0  0  0  0  0  0  0  0  0  0  0
  -29.3052   -2.7582   31.4550 C   0  0  0  0  0  0  0  0  0  0  0  0
  -30.6792   -2.6243   31.6446 C   0  0  0  0  0  0  0  0  0  0  0  0
  -31.4337   -2.2524   30.6485 C   0  0  0  0  0  0  0  0  0  0  0  0
  -32.7693   -2.4195   30.7735 C   0  0  0  0  0  0  0  0  0  0  0  0
  -33.6592   -1.6053   30.0476 C   0  0  0  0  0  0  0  0  0  0  0  0
  -33.1561   -0.8818   28.9210 C   0  0  0  0  0  0  0  0  0  0  0  0
  -31.7742   -0.7462   28.7530 C   0  0  0  0  0  0  0  0  0  0  0  0
  -30.9200   -1.4166   29.6390 C   0  0  0  0  0  0  0  0  0  0  0  0
  -31.2897    0.1309   27.6462 C   0  0  0  0  0  0  0  0  0  0  0  0
  -30.7688    1.1144   27.9372 O   0  0  0  0  0  0  0  0  0  0  0  0
  -31.3304   -0.3792   26.4724 O   0  0  0  0  0  0  0  0  0  0  0  0
  -31.1944   -2.9077   32.9670 C   0  0  0  0  0  0  0  0  0  0  0  0
  -31.0490   -4.0071   33.4279 O   0  0  0  0  0  0  0  0  0  0  0  0
  6  7  1  0
  3  8  1  0
  7 14  1  0
 14 15  1  0
 15 16  1  0
 20 22  1  0
 22 23  2  0
 22 24  1  0
 15 25  1  0
 25 26  2  0
  1  2  2  0
  2  3  1  0
  3  4  2  0
  4  5  1  0
  5  6  2  0
  6  1  1  0
 16 17  2  0
 17 18  1  0
 18 19  2  0
 19 20  1  0
 20 21  2  0
 21 16  1  0
  8  9  2  0
  9 10  1  0
 10 11  2  0
 11 13  1  0
 13 12  2  0
 12  8  1  0
M  END

$$$$
