No_624-gen_results/8p0m/2024-11-26-14-13-15/
     RDKit          3D

  7  7  0  0  0  0  0  0  0  0999 V2000
  -28.0162   -0.8135   28.8779 C   0  0  0  0  0  0  0  0  0  0  0  0
  -28.4690   -0.7850   29.8287 C   0  0  0  0  0  0  0  0  0  0  0  0
  -26.6028   -1.0596   28.5384 C   0  0  0  0  0  0  0  0  0  0  0  0
  -25.7969   -1.4490   29.7273 C   0  0  0  0  0  0  0  0  0  0  0  0
  -26.4628   -1.5399   30.9726 C   0  0  0  0  0  0  0  0  0  0  0  0
  -27.7695   -1.2480   31.0791 C   0  0  0  0  0  0  0  0  0  0  0  0
  -24.1832   -1.7892   29.5546 Cl  0  0  0  0  0  0  0  0  0  0  0  0
  4  7  1  0
  1  2  2  0
  2  6  1  0
  6  5  2  0
  5  4  1  0
  4  3  2  0
  3  1  1  0
M  END

$$$$
