No_607-gen_results/8p0m/2024-11-26-14-13-15/
     RDKit          3D

 12 13  0  0  0  0  0  0  0  0999 V2000
  -28.0162   -0.8135   28.8779 C   0  0  0  0  0  0  0  0  0  0  0  0
  -28.4690   -0.7850   29.8287 C   0  0  0  0  0  0  0  0  0  0  0  0
  -26.5455   -0.8762   28.8500 C   0  0  0  0  0  0  0  0  0  0  0  0
  -25.8041   -1.0324   30.0571 C   0  0  0  0  0  0  0  0  0  0  0  0
  -26.5373   -1.0386   31.2171 C   0  0  0  0  0  0  0  0  0  0  0  0
  -27.8843   -0.9532   31.1862 C   0  0  0  0  0  0  0  0  0  0  0  0
  -24.3655   -1.1134   30.0483 C   0  0  0  0  0  0  0  0  0  0  0  0
  -23.6254   -0.9434   29.0230 C   0  0  0  0  0  0  0  0  0  0  0  0
  -22.1628   -0.8291   29.0965 C   0  0  0  0  0  0  0  0  0  0  0  0
  -23.6191   -0.2385   31.0306 C   0  0  0  0  0  0  0  0  0  0  0  0
  -22.2632   -0.1702   30.9911 C   0  0  0  0  0  0  0  0  0  0  0  0
  -21.5829   -0.0537   29.9130 C   0  0  0  0  0  0  0  0  0  0  0  0
  4  7  1  0
  1  2  2  0
  2  6  1  0
  6  5  2  0
  5  4  1  0
  4  3  2  0
  3  1  1  0
  7  8  2  0
  8  9  1  0
  9 12  2  0
 12 11  1  0
 11 10  2  0
 10  7  1  0
M  END

$$$$
