No_683-gen_results/8p0m/2024-11-26-14-13-15/
     RDKit          3D

 27 29  0  0  0  0  0  0  0  0999 V2000
  -28.0162   -0.8135   28.8779 C   0  0  0  0  0  0  0  0  0  0  0  0
  -28.4690   -0.7850   29.8287 C   0  0  0  0  0  0  0  0  0  0  0  0
  -27.0871    0.2903   28.6377 C   0  0  0  0  0  0  0  0  0  0  0  0
  -26.8317    1.2487   29.5869 C   0  0  0  0  0  0  0  0  0  0  0  0
  -28.3914    0.0801   31.0065 C   0  0  0  0  0  0  0  0  0  0  0  0
  -27.4940    1.1521   30.7841 C   0  0  0  0  0  0  0  0  0  0  0  0
  -26.3109    0.3917   27.3640 C   0  0  0  0  0  0  0  0  0  0  0  0
  -24.9686    0.2477   27.4806 C   0  0  0  0  0  0  0  0  0  0  0  0
  -26.7177    1.3600   26.4101 C   0  0  0  0  0  0  0  0  0  0  0  0
  -24.0202    0.8635   26.7161 C   0  0  0  0  0  0  0  0  0  0  0  0
  -24.4457    1.6680   25.6504 C   0  0  0  0  0  0  0  0  0  0  0  0
  -25.7807    1.9484   25.5228 C   0  0  0  0  0  0  0  0  0  0  0  0
  -28.1107    1.6083   26.1044 C   0  0  0  0  0  0  0  0  0  0  0  0
  -29.0328    0.7631   26.2817 C   0  0  0  0  0  0  0  0  0  0  0  0
  -30.4122    0.9799   26.0518 C   0  0  0  0  0  0  0  0  0  0  0  0
  -30.7466    2.2110   25.5692 C   0  0  0  0  0  0  0  0  0  0  0  0
  -28.7013    2.9469   25.6824 C   0  0  0  0  0  0  0  0  0  0  0  0
  -29.8523    3.2129   25.3700 C   0  0  0  0  0  0  0  0  0  0  0  0
  -31.4033   -0.0599   26.2783 C   0  0  0  0  0  0  0  0  0  0  0  0
  -32.2051   -0.4544   25.7377 O   0  0  0  0  0  0  0  0  0  0  0  0
  -31.0247   -0.8593   27.5119 N   0  0  0  0  0  0  0  0  0  0  0  0
  -31.9028   -1.8656   28.0484 C   0  0  0  0  0  0  0  0  0  0  0  0
  -32.9487   -1.3187   28.7604 C   0  0  0  0  0  0  0  0  0  0  0  0
  -32.9568   -0.2497   29.2342 O   0  0  0  0  0  0  0  0  0  0  0  0
  -34.0078   -2.1737   28.9974 N   0  0  0  0  0  0  0  0  0  0  0  0
  -34.0604   -3.5286   28.5577 C   0  0  0  0  0  0  0  0  0  0  0  0
  -31.8463   -2.9399   27.5715 O   0  0  0  0  0  0  0  0  0  0  0  0
  3  7  1  0
  9 13  1  0
 15 19  1  0
 19 20  2  0
 19 21  1  0
 21 22  1  0
 22 23  1  0
 23 24  2  0
 23 25  1  0
 25 26  1  0
 22 27  2  0
 13 14  2  0
 14 15  1  0
 15 16  2  0
 16 18  1  0
 18 17  2  0
 17 13  1  0
  1  2  2  0
  2  5  1  0
  5  6  2  0
  6  4  1  0
  4  3  2  0
  3  1  1  0
  7  8  2  0
  8 10  1  0
 10 11  2  0
 11 12  1  0
 12  9  2  0
  9  7  1  0
M  END

$$$$
