No_639-gen_results/8p0m/2024-11-26-14-13-15/
     RDKit          3D

 17 18  0  0  0  0  0  0  0  0999 V2000
  -28.0162   -0.8135   28.8779 C   0  0  0  0  0  0  0  0  0  0  0  0
  -27.0636   -0.1189   28.6079 C   0  0  0  0  0  0  0  0  0  0  0  0
  -26.9716    0.7139   27.5060 C   0  0  0  0  0  0  0  0  0  0  0  0
  -28.1053    0.7744   26.6421 C   0  0  0  0  0  0  0  0  0  0  0  0
  -29.2008    0.1044   27.0527 C   0  0  0  0  0  0  0  0  0  0  0  0
  -29.2096   -0.6029   28.1853 C   0  0  0  0  0  0  0  0  0  0  0  0
  -30.3702    0.2264   26.1604 C   0  0  0  0  0  0  0  0  0  0  0  0
  -31.2210   -0.4630   26.3096 O   0  0  0  0  0  0  0  0  0  0  0  0
  -30.1679    0.8392   24.9395 O   0  0  0  0  0  0  0  0  0  0  0  0
  -25.8568   -0.1888   29.3781 F   0  0  0  0  0  0  0  0  0  0  0  0
  -28.0728   -1.8161   30.3453 Cl  0  0  0  0  0  0  0  0  0  0  0  0
  -25.6623    1.4048   27.1295 C   0  0  0  0  0  0  0  0  0  0  0  0
  -25.1738    1.6856   26.2556 C   0  0  0  0  0  0  0  0  0  0  0  0
  -23.8306    2.3995   26.1497 C   0  0  0  0  0  0  0  0  0  0  0  0
  -23.1922    2.5480   27.3548 C   0  0  0  0  0  0  0  0  0  0  0  0
  -23.7782    2.0730   28.4743 C   0  0  0  0  0  0  0  0  0  0  0  0
  -24.9852    1.5431   28.5267 C   0  0  0  0  0  0  0  0  0  0  0  0
  5  7  1  0
  7  8  2  0
  7  9  1  0
  2 10  1  0
  1 11  1  0
  3 12  1  0
 12 13  2  0
 13 14  1  0
 14 15  2  0
 15 16  1  0
 16 17  2  0
 17 12  1  0
  1  2  2  0
  2  3  1  0
  3  4  2  0
  4  5  1  0
  5  6  2  0
  6  1  1  0
M  END

$$$$
