No_627-gen_results/8p0m/2024-11-26-14-13-15/
     RDKit          3D

 15 17  0  0  0  0  0  0  0  0999 V2000
  -28.0162   -0.8135   28.8779 C   0  0  0  0  0  0  0  0  0  0  0  0
  -28.4690   -0.7850   29.8287 C   0  0  0  0  0  0  0  0  0  0  0  0
  -26.6082   -0.9454   28.8569 N   0  0  0  0  0  0  0  0  0  0  0  0
  -25.7271   -0.3586   27.9991 C   0  0  0  0  0  0  0  0  0  0  0  0
  -24.3406   -0.4775   28.2916 C   0  0  0  0  0  0  0  0  0  0  0  0
  -24.1416   -1.4913   29.2988 C   0  0  0  0  0  0  0  0  0  0  0  0
  -25.8153   -1.7365   29.8057 C   0  0  0  0  0  0  0  0  0  0  0  0
  -29.9794   -0.7632   30.0255 C   0  0  0  0  0  0  0  0  0  0  0  0
  -30.6665   -1.0358   31.1615 C   0  0  0  0  0  0  0  0  0  0  0  0
  -29.9392   -1.2168   32.3814 C   0  0  0  0  0  0  0  0  0  0  0  0
  -28.5671   -1.2875   32.3460 C   0  0  0  0  0  0  0  0  0  0  0  0
  -27.9064   -1.1789   31.2294 C   0  0  0  0  0  0  0  0  0  0  0  0
  -26.4199   -1.4360   31.0808 C   0  0  0  0  0  0  0  0  0  0  0  0
  -26.0730    0.4009   26.9823 N   0  0  0  0  0  0  0  0  0  0  0  0
  -25.8824    1.2471   26.4042 C   0  0  0  0  0  0  0  0  0  0  0  0
  1  2  1  0
  1  3  1  0
  3  4  1  0
  4  5  2  0
  5  6  1  0
  3  7  1  0
  6  7  1  0
  7 13  1  0
 12 13  1  0
  4 14  1  0
 14 15  1  0
  2  8  2  0
  8  9  1  0
  9 10  2  0
 10 11  1  0
 11 12  2  0
 12  2  1  0
M  END

$$$$
