No_686-gen_results/8p0m/2024-11-26-14-13-15/
     RDKit          3D

 17 17  0  0  0  0  0  0  0  0999 V2000
  -28.0162   -0.8135   28.8779 C   0  0  0  0  0  0  0  0  0  0  0  0
  -27.0636   -0.1189   28.6079 C   0  0  0  0  0  0  0  0  0  0  0  0
  -26.9716    0.7139   27.5060 C   0  0  0  0  0  0  0  0  0  0  0  0
  -28.1053    0.7744   26.6421 C   0  0  0  0  0  0  0  0  0  0  0  0
  -29.2041    0.1179   27.0477 C   0  0  0  0  0  0  0  0  0  0  0  0
  -29.2127   -0.6088   28.1281 C   0  0  0  0  0  0  0  0  0  0  0  0
  -25.7106    1.4518   27.1380 C   0  0  0  0  0  0  0  0  0  0  0  0
  -24.3316    1.0098   27.9169 P   0  0  0  0  0  0  0  0  0  0  0  0
  -23.1973    1.6642   27.2116 O   0  0  0  0  0  0  0  0  0  0  0  0
  -24.4208    1.7651   29.2763 O   0  0  0  0  0  0  0  0  0  0  0  0
  -24.1626   -0.3996   28.1072 O   0  0  0  0  0  0  0  0  0  0  0  0
  -30.4214    0.2569   26.2124 C   0  0  0  0  0  0  0  0  0  0  0  0
  -30.4480    0.4515   25.1990 O   0  0  0  0  0  0  0  0  0  0  0  0
  -31.5679   -0.0363   26.8144 O   0  0  0  0  0  0  0  0  0  0  0  0
  -28.1020   -1.6885   30.1238 C   0  0  0  0  0  0  0  0  0  0  0  0
  -27.5062   -2.7910   30.0037 O   0  0  0  0  0  0  0  0  0  0  0  0
  -28.4710   -1.2503   31.2419 O   0  0  0  0  0  0  0  0  0  0  0  0
  3  7  1  0
  7  8  1  0
  8  9  2  0
  8 10  1  0
  8 11  1  0
  5 12  1  0
 12 13  2  0
 12 14  1  0
  1 15  1  0
 15 16  2  0
 15 17  1  0
  1  2  2  0
  2  3  1  0
  3  4  2  0
  4  5  1  0
  5  6  2  0
  6  1  1  0
M  END

$$$$
