No_695-gen_results/8p0m/2024-11-26-14-13-15/
     RDKit          3D

 13 13  0  0  0  0  0  0  0  0999 V2000
  -28.0162   -0.8135   28.8779 C   0  0  0  0  0  0  0  0  0  0  0  0
  -27.0636   -0.1190   28.6079 C   0  0  0  0  0  0  0  0  0  0  0  0
  -25.7923   -0.4302   29.0761 C   0  0  0  0  0  0  0  0  0  0  0  0
  -25.5756   -1.5654   29.9363 C   0  0  0  0  0  0  0  0  0  0  0  0
  -26.7354   -2.3004   30.2173 C   0  0  0  0  0  0  0  0  0  0  0  0
  -27.9184   -1.9537   29.7629 C   0  0  0  0  0  0  0  0  0  0  0  0
  -29.0732   -2.7835   30.1783 C   0  0  0  0  0  0  0  0  0  0  0  0
  -29.3220   -2.7952   31.3885 O   0  0  0  0  0  0  0  0  0  0  0  0
  -29.3381   -3.8869   29.5126 O   0  0  0  0  0  0  0  0  0  0  0  0
  -27.0897    1.1082   27.7484 C   0  0  0  0  0  0  0  0  0  0  0  0
  -28.1404    1.3173   27.2773 F   0  0  0  0  0  0  0  0  0  0  0  0
  -26.0704    1.6284   27.2458 F   0  0  0  0  0  0  0  0  0  0  0  0
  -24.3946   -1.8294   30.3489 F   0  0  0  0  0  0  0  0  0  0  0  0
  6  7  1  0
  7  8  2  0
  7  9  1  0
  2 10  1  0
 10 11  1  0
 10 12  1  0
  4 13  1  0
  1  2  2  0
  2  3  1  0
  3  4  2  0
  4  5  1  0
  5  6  2  0
  6  1  1  0
M  END

$$$$
