No_657-gen_results/8p0m/2024-11-26-14-13-15/
     RDKit          3D

 23 25  0  0  0  0  0  0  0  0999 V2000
  -28.1229   -1.3353   28.4874 O   0  0  0  0  0  0  0  0  0  0  0  0
  -28.5208   -0.4363   29.0779 C   0  0  0  0  0  0  0  0  0  0  0  0
  -29.6977    0.0507   28.9764 C   0  0  0  0  0  0  0  0  0  0  0  0
  -27.7059   -0.0219   30.1625 N   0  0  0  0  0  0  0  0  0  0  0  0
  -26.3949   -0.3536   30.3653 C   0  0  0  0  0  0  0  0  0  0  0  0
  -30.7741   -0.5406   29.5651 C   0  0  0  0  0  0  0  0  0  0  0  0
  -30.5852   -1.2493   30.5093 N   0  0  0  0  0  0  0  0  0  0  0  0
  -31.1051   -2.1755   31.1104 C   0  0  0  0  0  0  0  0  0  0  0  0
  -30.5973   -2.8790   32.3061 C   0  0  0  0  0  0  0  0  0  0  0  0
  -29.2853   -2.4714   32.5793 C   0  0  0  0  0  0  0  0  0  0  0  0
  -28.7028   -1.7059   32.2252 C   0  0  0  0  0  0  0  0  0  0  0  0
  -29.1714   -0.9423   30.9566 C   0  0  0  0  0  0  0  0  0  0  0  0
  -28.9036   -0.0252   31.4440 N   0  0  0  0  0  0  0  0  0  0  0  0
  -27.4912    1.5329   29.9771 C   0  0  0  0  0  0  0  0  0  0  0  0
  -28.9059    0.8025   32.2799 C   0  0  0  0  0  0  0  0  0  0  0  0
  -29.5162    0.9672   30.8289 C   0  0  0  0  0  0  0  0  0  0  0  0
  -28.8905    2.0914   30.3531 C   0  0  0  0  0  0  0  0  0  0  0  0
  -30.9659    1.3266   31.0704 C   0  0  0  0  0  0  0  0  0  0  0  0
  -28.2627    2.0413   32.7243 C   0  0  0  0  0  0  0  0  0  0  0  0
  -29.6972    0.4267   33.5353 C   0  0  0  0  0  0  0  0  0  0  0  0
  -29.7107    1.1647   34.7073 C   0  0  0  0  0  0  0  0  0  0  0  0
  -28.0405    2.5261   34.1116 C   0  0  0  0  0  0  0  0  0  0  0  0
  -28.8128    2.0996   35.0352 C   0  0  0  0  0  0  0  0  0  0  0  0
  1  2  2  0
  2  3  1  0
  2  4  1  0
  4  5  1  0
  3  6  1  0
  6  7  1  0
  7  8  1  0
  9 10  1  0
  7 12  1  0
 11 12  1  0
 12 13  1  0
  4 14  1  0
 13 15  1  0
 13 16  1  0
 14 17  1  0
 16 17  1  0
 16 18  1  0
  8  9  1  0
 10 11  1  0
 15 19  2  0
 19 22  1  0
 22 23  2  0
 23 21  1  0
 21 20  2  0
 20 15  1  0
M  END

$$$$
