No_675-gen_results/8p0m/2024-11-26-14-13-15/
     RDKit          3D

 14 14  0  0  0  0  0  0  0  0999 V2000
  -28.1229   -1.3353   28.4874 O   0  0  0  0  0  0  0  0  0  0  0  0
  -27.0637   -0.8242   28.8687 C   0  0  0  0  0  0  0  0  0  0  0  0
  -26.4017   -0.0623   28.6224 C   0  0  0  0  0  0  0  0  0  0  0  0
  -26.3805   -1.7991   29.9619 N   0  0  0  0  0  0  0  0  0  0  0  0
  -26.7771    1.0571   27.7896 C   0  0  0  0  0  0  0  0  0  0  0  0
  -25.9129    1.9788   27.2177 C   0  0  0  0  0  0  0  0  0  0  0  0
  -24.5242    2.0312   27.6989 C   0  0  0  0  0  0  0  0  0  0  0  0
  -24.1056    1.0476   28.5575 C   0  0  0  0  0  0  0  0  0  0  0  0
  -24.9060    0.0666   28.9860 C   0  0  0  0  0  0  0  0  0  0  0  0
  -27.1336   -3.0436   30.2088 C   0  0  0  0  0  0  0  0  0  0  0  0
  -22.6547    1.0775   28.9406 C   0  0  0  0  0  0  0  0  0  0  0  0
  -22.3665    0.4455   29.9555 O   0  0  0  0  0  0  0  0  0  0  0  0
  -21.7344    1.2777   28.0375 O   0  0  0  0  0  0  0  0  0  0  0  0
  -26.1714   -1.2025   31.2683 C   0  0  0  0  0  0  0  0  0  0  0  0
  1  2  2  0
  2  3  1  0
  2  4  1  0
  4 10  1  0
  8 11  1  0
 11 12  1  0
 11 13  2  0
  4 14  1  0
  3  5  2  0
  5  6  1  0
  6  7  2  0
  7  8  1  0
  8  9  2  0
  9  3  1  0
M  END

$$$$
