No_670-gen_results/8p0m/2024-11-26-14-13-15/
     RDKit          3D

 35 38  0  0  0  0  0  0  0  0999 V2000
  -28.0162   -0.8135   28.8779 C   0  0  0  0  0  0  0  0  0  0  0  0
  -27.0636   -0.1189   28.6079 C   0  0  0  0  0  0  0  0  0  0  0  0
  -25.7647   -0.3897   29.0360 C   0  0  0  0  0  0  0  0  0  0  0  0
  -24.5516    0.4058   28.7646 C   0  0  0  0  0  0  0  0  0  0  0  0
  -24.6957    1.4480   27.7988 C   0  0  0  0  0  0  0  0  0  0  0  0
  -23.5821    2.2166   27.4626 C   0  0  0  0  0  0  0  0  0  0  0  0
  -22.3211    1.8240   27.9807 C   0  0  0  0  0  0  0  0  0  0  0  0
  -22.1777    0.8172   28.8883 C   0  0  0  0  0  0  0  0  0  0  0  0
  -23.3181    0.0417   29.2597 C   0  0  0  0  0  0  0  0  0  0  0  0
  -27.8970   -1.8952   29.8587 C   0  0  0  0  0  0  0  0  0  0  0  0
  -26.6530   -2.3395   30.2732 C   0  0  0  0  0  0  0  0  0  0  0  0
  -25.5330   -1.5566   29.9092 C   0  0  0  0  0  0  0  0  0  0  0  0
  -29.2509   -2.8451   30.2832 Cl  0  0  0  0  0  0  0  0  0  0  0  0
  -23.6555    3.1942   26.5774 O   0  0  0  0  0  0  0  0  0  0  0  0
  -25.0028    3.7297   26.3927 C   0  0  0  0  0  0  0  0  0  0  0  0
  -25.5372    4.3413   27.2928 C   0  0  0  0  0  0  0  0  0  0  0  0
  -26.7397    4.7684   27.3359 N   0  0  0  0  0  0  0  0  0  0  0  0
  -27.3114    5.3796   28.3979 C   0  0  0  0  0  0  0  0  0  0  0  0
  -27.0543    5.1755   29.4780 C   0  0  0  0  0  0  0  0  0  0  0  0
  -27.6591    5.7390   30.6905 C   0  0  0  0  0  0  0  0  0  0  0  0
  -25.8466    4.4012   29.7353 C   0  0  0  0  0  0  0  0  0  0  0  0
  -25.1162    3.9520   28.6654 C   0  0  0  0  0  0  0  0  0  0  0  0
  -28.6723    5.6861   30.9868 O   0  0  0  0  0  0  0  0  0  0  0  0
  -26.7640    6.4062   31.5316 O   0  0  0  0  0  0  0  0  0  0  0  0
  -26.0703    7.1703   31.5023 C   0  0  0  0  0  0  0  0  0  0  0  0
  -24.8116    7.0300   32.0208 C   0  0  0  0  0  0  0  0  0  0  0  0
  -23.7166    7.9957   31.8528 C   0  0  0  0  0  0  0  0  0  0  0  0
  -23.9863    9.1149   31.0255 C   0  0  0  0  0  0  0  0  0  0  0  0
  -26.2378    8.3313   30.6231 C   0  0  0  0  0  0  0  0  0  0  0  0
  -25.2172    9.2857   30.4462 C   0  0  0  0  0  0  0  0  0  0  0  0
  -22.5167    7.8587   32.4933 N   0  0  0  0  0  0  0  0  0  0  0  0
  -21.4681    8.7055   32.3448 C   0  0  0  0  0  0  0  0  0  0  0  0
  -20.3063    8.5004   33.1560 C   0  0  0  0  0  0  0  0  0  0  0  0
  -22.2332    6.7101   33.2737 C   0  0  0  0  0  0  0  0  0  0  0  0
  -19.2779    9.5365   33.0071 C   0  0  0  0  0  0  0  0  0  0  0  0
  3  4  1  0
 10 13  1  0
  6 14  1  0
 14 15  1  0
 15 16  1  0
 19 20  1  0
 20 23  2  0
 20 24  1  0
 24 25  1  0
 27 31  1  0
 31 32  1  0
 32 33  2  3
 31 34  1  0
 33 35  1  0
 16 17  2  0
 17 18  1  0
 18 19  2  0
 19 21  1  0
 21 22  2  0
 22 16  1  0
 25 26  2  0
 26 27  1  0
 27 28  2  0
 28 30  1  0
 30 29  2  0
 29 25  1  0
  1  2  2  0
  2  3  1  0
  3 12  2  0
 12 11  1  0
 11 10  2  0
 10  1  1  0
  4  5  2  0
  5  6  1  0
  6  7  2  0
  7  8  1  0
  8  9  2  0
  9  4  1  0
M  END

$$$$
