No_738-gen_results/8p0m/2024-11-26-14-13-15/
     RDKit          3D

 22 23  0  0  0  0  0  0  0  0999 V2000
  -28.0162   -0.8135   28.8779 C   0  0  0  0  0  0  0  0  0  0  0  0
  -27.1876   -0.3590   28.4524 N   0  0  0  0  0  0  0  0  0  0  0  0
  -28.1059   -1.6261   30.0720 C   0  0  0  0  0  0  0  0  0  0  0  0
  -26.7940   -1.9729   30.6057 C   0  0  0  0  0  0  0  0  0  0  0  0
  -25.6390   -1.4719   30.0298 C   0  0  0  0  0  0  0  0  0  0  0  0
  -25.8498   -0.6230   28.9045 C   0  0  0  0  0  0  0  0  0  0  0  0
  -24.6498   -0.0129   28.3188 C   0  0  0  0  0  0  0  0  0  0  0  0
  -24.7073    0.8443   27.2252 C   0  0  0  0  0  0  0  0  0  0  0  0
  -25.7232    1.1738   26.5061 C   0  0  0  0  0  0  0  0  0  0  0  0
  -23.3369   -0.3764   28.8608 C   0  0  0  0  0  0  0  0  0  0  0  0
  -22.2259    0.4545   28.5254 C   0  0  0  0  0  0  0  0  0  0  0  0
  -23.5240    1.6213   26.7648 C   0  0  0  0  0  0  0  0  0  0  0  0
  -22.2674    1.3703   27.5037 C   0  0  0  0  0  0  0  0  0  0  0  0
  -29.2816   -2.1898   30.6578 C   0  0  0  0  0  0  0  0  0  0  0  0
  -29.4379   -3.3694   30.6024 O   0  0  0  0  0  0  0  0  0  0  0  0
  -30.2156   -1.3874   31.1520 N   0  0  0  0  0  0  0  0  0  0  0  0
  -30.1639    0.0787   31.2895 C   0  0  0  0  0  0  0  0  0  0  0  0
  -29.0995    0.5012   31.7283 C   0  0  0  0  0  0  0  0  0  0  0  0
  -28.7372    1.5749   31.9670 C   0  0  0  0  0  0  0  0  0  0  0  0
  -27.8324    2.2666   32.0164 C   0  0  0  0  0  0  0  0  0  0  0  0
  -26.4815    1.5758   32.0372 C   0  0  0  0  0  0  0  0  0  0  0  0
  -26.6065    0.2177   32.0905 C   0  0  0  0  0  0  0  0  0  0  0  0
  6  7  1  0
  3 14  1  0
 14 15  1  0
 14 16  1  0
 16 17  1  0
 17 18  2  3
 18 19  1  0
 19 20  2  3
 20 21  1  0
 21 22  2  0
  9  8  1  0
  7  8  2  0
  8 12  1  0
 12 13  2  0
 13 11  1  0
 11 10  2  0
 10  7  1  0
  1  2  2  0
  2  6  1  0
  6  5  2  0
  5  4  1  0
  4  3  2  0
  3  1  1  0
M  END

$$$$
