No_704-gen_results/8p0m/2024-11-26-14-13-15/
     RDKit          3D

 16 17  0  0  0  0  0  0  0  0999 V2000
  -28.0162   -0.8135   28.8779 C   0  0  0  0  0  0  0  0  0  0  0  0
  -28.4690   -0.7850   29.8287 C   0  0  0  0  0  0  0  0  0  0  0  0
  -27.0871    0.2903   28.6377 C   0  0  0  0  0  0  0  0  0  0  0  0
  -26.8317    1.2487   29.5869 C   0  0  0  0  0  0  0  0  0  0  0  0
  -28.3914    0.0801   31.0065 C   0  0  0  0  0  0  0  0  0  0  0  0
  -27.4940    1.1521   30.7841 C   0  0  0  0  0  0  0  0  0  0  0  0
  -26.3109    0.3918   27.3640 C   0  0  0  0  0  0  0  0  0  0  0  0
  -26.7673    1.0252   26.3723 C   0  0  0  0  0  0  0  0  0  0  0  0
  -24.9987   -0.1757   27.3492 C   0  0  0  0  0  0  0  0  0  0  0  0
  -28.0335    1.5623   26.2720 C   0  0  0  0  0  0  0  0  0  0  0  0
  -25.9518    1.0620   25.1066 C   0  0  0  0  0  0  0  0  0  0  0  0
  -24.5391    0.6447   25.1327 C   0  0  0  0  0  0  0  0  0  0  0  0
  -24.1737   -0.0385   26.2843 C   0  0  0  0  0  0  0  0  0  0  0  0
  -28.9236    1.1645   25.3608 C   0  0  0  0  0  0  0  0  0  0  0  0
  -28.4436    2.6000   27.1803 C   0  0  0  0  0  0  0  0  0  0  0  0
  -27.8378    3.7421   27.2946 C   0  0  0  0  0  0  0  0  0  0  0  0
  3  7  1  0
  8 10  1  0
 10 14  1  0
 10 15  1  0
 15 16  2  0
  7  8  2  0
  8 11  1  0
 11 12  2  0
 12 13  1  0
 13  9  2  0
  9  7  1  0
  1  2  2  0
  2  5  1  0
  5  6  2  0
  6  4  1  0
  4  3  2  0
  3  1  1  0
M  END

$$$$
