No_719-gen_results/8p0m/2024-11-26-14-13-15/
     RDKit          3D

 24 25  0  0  0  0  0  0  0  0999 V2000
  -28.0162   -0.8135   28.8779 C   0  0  0  0  0  0  0  0  0  0  0  0
  -27.0636   -0.1189   28.6079 C   0  0  0  0  0  0  0  0  0  0  0  0
  -25.7647   -0.3897   29.0360 C   0  0  0  0  0  0  0  0  0  0  0  0
  -25.5296   -1.5302   29.9014 C   0  0  0  0  0  0  0  0  0  0  0  0
  -26.6888   -2.2893   30.1810 C   0  0  0  0  0  0  0  0  0  0  0  0
  -27.8727   -1.9508   29.7373 C   0  0  0  0  0  0  0  0  0  0  0  0
  -24.5491    0.4100   28.7341 C   0  0  0  0  0  0  0  0  0  0  0  0
  -24.4789    1.1871   27.6843 C   0  0  0  0  0  0  0  0  0  0  0  0
  -23.2716    1.8973   27.3731 C   0  0  0  0  0  0  0  0  0  0  0  0
  -22.1063    1.7032   28.0412 C   0  0  0  0  0  0  0  0  0  0  0  0
  -23.3188    0.1792   29.4669 C   0  0  0  0  0  0  0  0  0  0  0  0
  -22.1165    0.8402   29.1011 C   0  0  0  0  0  0  0  0  0  0  0  0
  -29.2295   -2.8994   30.2078 Cl  0  0  0  0  0  0  0  0  0  0  0  0
  -23.3239    2.7573   26.3248 F   0  0  0  0  0  0  0  0  0  0  0  0
  -29.2799   -0.5276   28.4863 O   0  0  0  0  0  0  0  0  0  0  0  0
  -29.4439    0.4547   27.5437 C   0  0  0  0  0  0  0  0  0  0  0  0
  -29.8801    1.6095   28.1223 C   0  0  0  0  0  0  0  0  0  0  0  0
  -30.4147    1.6763   29.1902 O   0  0  0  0  0  0  0  0  0  0  0  0
  -29.9581    2.7338   27.3340 O   0  0  0  0  0  0  0  0  0  0  0  0
  -29.2894    0.2149   26.3704 O   0  0  0  0  0  0  0  0  0  0  0  0
  -29.6772    3.8671   27.7716 C   0  0  0  0  0  0  0  0  0  0  0  0
  -29.5000    4.8749   26.8543 C   0  0  0  0  0  0  0  0  0  0  0  0
  -29.6298    4.8027   25.6185 C   0  0  0  0  0  0  0  0  0  0  0  0
  -30.0414    3.5493   25.1501 C   0  0  0  0  0  0  0  0  0  0  0  0
  3  7  1  0
  6 13  1  0
  9 14  1  0
  1 15  1  0
 15 16  1  0
 16 17  1  0
 17 18  2  0
 17 19  1  0
 16 20  2  0
 19 21  1  0
 21 22  2  3
 22 23  1  0
 23 24  1  0
  7  8  2  0
  8  9  1  0
  9 10  2  0
 10 12  1  0
 12 11  2  0
 11  7  1  0
  1  2  2  0
  2  3  1  0
  3  4  2  0
  4  5  1  0
  5  6  2  0
  6  1  1  0
M  END

$$$$
