No_79-gen_results/8p0m/2024-11-26-14-13-15/
     RDKit          3D

 16 18  0  0  0  0  0  0  0  0999 V2000
  -28.0162   -0.8135   28.8779 C   0  0  0  0  0  0  0  0  0  0  0  0
  -28.4690   -0.7850   29.8287 C   0  0  0  0  0  0  0  0  0  0  0  0
  -26.5042   -0.7777   28.8766 C   0  0  0  0  0  0  0  0  0  0  0  0
  -25.7622   -0.0022   27.9705 C   0  0  0  0  0  0  0  0  0  0  0  0
  -26.0931    0.6131   27.0948 C   0  0  0  0  0  0  0  0  0  0  0  0
  -25.2924    1.2851   26.1396 C   0  0  0  0  0  0  0  0  0  0  0  0
  -23.9069    1.3541   26.4095 C   0  0  0  0  0  0  0  0  0  0  0  0
  -23.3994    0.7728   27.5633 C   0  0  0  0  0  0  0  0  0  0  0  0
  -24.2633    0.1055   28.3863 C   0  0  0  0  0  0  0  0  0  0  0  0
  -29.9502   -0.5494   29.9539 C   0  0  0  0  0  0  0  0  0  0  0  0
  -30.6784   -0.8324   31.0373 C   0  0  0  0  0  0  0  0  0  0  0  0
  -29.9878   -1.2092   32.2520 C   0  0  0  0  0  0  0  0  0  0  0  0
  -28.6647   -1.4597   32.2690 C   0  0  0  0  0  0  0  0  0  0  0  0
  -27.9263   -1.3165   31.1013 C   0  0  0  0  0  0  0  0  0  0  0  0
  -26.5395   -1.4915   31.0570 C   0  0  0  0  0  0  0  0  0  0  0  0
  -25.8329   -1.2345   30.0838 C   0  0  0  0  0  0  0  0  0  0  0  0
  1  2  1  0
  1  3  1  0
  3  4  1  0
 14 15  1  0
  3 16  1  0
 15 16  1  0
  2 10  2  0
 10 11  1  0
 11 12  2  0
 12 13  1  0
 13 14  2  0
 14  2  1  0
  4  5  2  0
  5  6  1  0
  6  7  2  0
  7  8  1  0
  8  9  2  0
  9  4  1  0
M  END

$$$$
