No_752-gen_results/8p0m/2024-11-26-14-13-15/
     RDKit          3D

 35 37  0  0  0  0  0  0  0  0999 V2000
  -28.0162   -0.8135   28.8779 C   0  0  0  0  0  0  0  0  0  0  0  0
  -27.0636   -0.1189   28.6079 C   0  0  0  0  0  0  0  0  0  0  0  0
  -26.9716    0.7139   27.5060 C   0  0  0  0  0  0  0  0  0  0  0  0
  -28.1053    0.7744   26.6421 C   0  0  0  0  0  0  0  0  0  0  0  0
  -29.2041    0.1179   27.0477 C   0  0  0  0  0  0  0  0  0  0  0  0
  -29.2127   -0.6088   28.1281 C   0  0  0  0  0  0  0  0  0  0  0  0
  -30.3709    0.2326   26.1381 C   0  0  0  0  0  0  0  0  0  0  0  0
  -31.2520   -0.4036   26.3042 O   0  0  0  0  0  0  0  0  0  0  0  0
  -30.4407    1.2587   25.2951 O   0  0  0  0  0  0  0  0  0  0  0  0
  -25.8105    1.3552   27.1733 F   0  0  0  0  0  0  0  0  0  0  0  0
  -28.0325   -1.6074   30.0675 N   0  0  0  0  0  0  0  0  0  0  0  0
  -28.7839   -1.6232   31.0391 C   0  0  0  0  0  0  0  0  0  0  0  0
  -27.3002   -2.8947   29.8618 C   0  0  0  0  0  0  0  0  0  0  0  0
  -25.8920   -2.7396   29.7403 C   0  0  0  0  0  0  0  0  0  0  0  0
  -25.0885   -3.7242   29.1511 C   0  0  0  0  0  0  0  0  0  0  0  0
  -23.7160   -3.4062   28.8799 C   0  0  0  0  0  0  0  0  0  0  0  0
  -23.2462   -2.0942   29.0060 C   0  0  0  0  0  0  0  0  0  0  0  0
  -24.0547   -1.1140   29.6204 C   0  0  0  0  0  0  0  0  0  0  0  0
  -25.3578   -1.4384   29.9538 C   0  0  0  0  0  0  0  0  0  0  0  0
  -28.7944   -0.4276   31.8489 C   0  0  0  0  0  0  0  0  0  0  0  0
  -29.5940   -0.2767   32.9190 C   0  0  0  0  0  0  0  0  0  0  0  0
  -30.2489   -1.9424   30.8338 C   0  0  0  0  0  0  0  0  0  0  0  0
  -31.0849   -2.0468   32.0671 C   0  0  0  0  0  0  0  0  0  0  0  0
  -31.0632   -0.6992   32.7919 C   0  0  0  0  0  0  0  0  0  0  0  0
  -27.7548   -3.9591   30.0076 O   0  0  0  0  0  0  0  0  0  0  0  0
  -32.4319   -2.2120   31.7050 F   0  0  0  0  0  0  0  0  0  0  0  0
  -30.6427   -3.1282   32.9548 C   0  0  0  0  0  0  0  0  0  0  0  0
  -30.2547   -4.1834   32.5684 N   0  0  0  0  0  0  0  0  0  0  0  0
  -29.6824   -5.1461   33.2972 C   0  0  0  0  0  0  0  0  0  0  0  0
  -30.6404   -4.8089   31.2919 C   0  0  0  0  0  0  0  0  0  0  0  0
  -29.0416   -4.6424   34.3388 F   0  0  0  0  0  0  0  0  0  0  0  0
  -30.5158   -6.1042   33.7994 O   0  0  0  0  0  0  0  0  0  0  0  0
  -23.4008    0.1796   29.8374 C   0  0  0  0  0  0  0  0  0  0  0  0
  -22.8657    1.0131   29.4476 Cl  0  0  0  0  0  0  0  0  0  0  0  0
  -23.3030    0.1660   31.4402 C   0  0  0  0  0  0  0  0  0  0  0  0
  5  7  1  0
  7  8  2  0
  7  9  1  0
  3 10  1  0
  1 11  1  0
 11 12  1  0
 11 13  1  0
 13 14  1  0
 12 20  2  0
 20 21  1  0
 12 22  1  0
 22 23  1  0
 21 24  1  0
 23 24  1  0
 13 25  2  0
 23 26  1  0
 23 27  1  0
 27 28  1  0
 28 29  1  0
 28 30  1  0
 29 31  1  0
 29 32  1  0
 18 33  1  0
 33 34  1  0
 33 35  1  0
  1  2  2  0
  2  3  1  0
  3  4  2  0
  4  5  1  0
  5  6  2  0
  6  1  1  0
 14 15  2  0
 15 16  1  0
 16 17  2  0
 17 18  1  0
 18 19  2  0
 19 14  1  0
M  END

$$$$
