No_795-gen_results/8p0m/2024-11-26-14-13-15/
     RDKit          3D

 15 16  0  0  0  0  0  0  0  0999 V2000
  -28.0162   -0.8135   28.8779 C   0  0  0  0  0  0  0  0  0  0  0  0
  -28.4690   -0.7850   29.8287 C   0  0  0  0  0  0  0  0  0  0  0  0
  -26.5042   -0.7777   28.8766 C   0  0  0  0  0  0  0  0  0  0  0  0
  -25.8103   -0.8531   30.1028 C   0  0  0  0  0  0  0  0  0  0  0  0
  -27.9906   -0.8916   31.2257 C   0  0  0  0  0  0  0  0  0  0  0  0
  -26.6042   -0.8676   31.2652 C   0  0  0  0  0  0  0  0  0  0  0  0
  -30.0739   -0.8360   29.8615 C   0  0  0  0  0  0  0  0  0  0  0  0
  -30.5608   -0.4417   28.9417 O   0  0  0  0  0  0  0  0  0  0  0  0
  -30.7428   -1.0431   31.0560 N   0  0  0  0  0  0  0  0  0  0  0  0
  -32.1782   -1.0348   31.0369 C   0  0  0  0  0  0  0  0  0  0  0  0
  -32.8952   -0.4962   30.4759 C   0  0  0  0  0  0  0  0  0  0  0  0
  -34.3173   -0.5634   30.5420 C   0  0  0  0  0  0  0  0  0  0  0  0
  -32.6199   -1.9161   32.1528 C   0  0  0  0  0  0  0  0  0  0  0  0
  -33.9877   -2.0216   32.3228 C   0  0  0  0  0  0  0  0  0  0  0  0
  -34.8178   -1.3171   31.5426 C   0  0  0  0  0  0  0  0  0  0  0  0
  2  7  1  0
  7  8  2  0
  7  9  1  0
  9 10  1  0
  1  2  2  0
  2  5  1  0
  5  6  2  0
  6  4  1  0
  4  3  2  0
  3  1  1  0
 10 11  2  0
 11 12  1  0
 12 15  2  0
 15 14  1  0
 14 13  2  0
 13 10  1  0
M  END

$$$$
