No_730-gen_results/8p0m/2024-11-26-14-13-15/
     RDKit          3D

 18 20  0  0  0  0  0  0  0  0999 V2000
  -28.0162   -0.8135   28.8779 C   0  0  0  0  0  0  0  0  0  0  0  0
  -28.4690   -0.7850   29.8287 C   0  0  0  0  0  0  0  0  0  0  0  0
  -27.0871    0.2903   28.6377 C   0  0  0  0  0  0  0  0  0  0  0  0
  -26.2516    0.4114   27.4223 C   0  0  0  0  0  0  0  0  0  0  0  0
  -29.4309   -1.9307   30.2714 C   0  0  0  0  0  0  0  0  0  0  0  0
  -25.1465    1.2405   27.3564 C   0  0  0  0  0  0  0  0  0  0  0  0
  -24.2561    1.3035   26.2886 C   0  0  0  0  0  0  0  0  0  0  0  0
  -23.1371    2.1371   26.3371 C   0  0  0  0  0  0  0  0  0  0  0  0
  -22.4829    2.1966   27.4856 C   0  0  0  0  0  0  0  0  0  0  0  0
  -23.1759    1.8382   28.7039 C   0  0  0  0  0  0  0  0  0  0  0  0
  -24.3798    1.2303   28.5931 C   0  0  0  0  0  0  0  0  0  0  0  0
  -28.1869    0.1997   30.9664 C   0  0  0  0  0  0  0  0  0  0  0  0
  -27.3641    1.1777   30.7635 C   0  0  0  0  0  0  0  0  0  0  0  0
  -26.7186    1.2600   29.5646 C   0  0  0  0  0  0  0  0  0  0  0  0
  -25.2047    1.2494   29.8047 N   0  0  0  0  0  0  0  0  0  0  0  0
  -24.5805    1.0904   31.0345 C   0  0  0  0  0  0  0  0  0  0  0  0
  -26.7802   -0.0231   26.2876 O   0  0  0  0  0  0  0  0  0  0  0  0
  -29.2445   -2.6713   31.0952 O   0  0  0  0  0  0  0  0  0  0  0  0
  3  4  1  0
  4  6  1  0
 11 15  1  0
 14 15  1  0
 15 16  1  0
  4 17  2  0
  5 18  2  0
  5  2  1  0
  1  2  2  0
  2 12  1  0
 12 13  2  0
 13 14  1  0
 14  3  2  0
  3  1  1  0
  6  7  2  0
  7  8  1  0
  8  9  2  0
  9 10  1  0
 10 11  2  0
 11  6  1  0
M  END

$$$$
