No_731-gen_results/8p0m/2024-11-26-14-13-15/
     RDKit          3D

 23 25  0  0  0  0  0  0  0  0999 V2000
  -28.0162   -0.8135   28.8779 C   0  0  0  0  0  0  0  0  0  0  0  0
  -28.4690   -0.7850   29.8287 C   0  0  0  0  0  0  0  0  0  0  0  0
  -27.0871    0.2903   28.6377 C   0  0  0  0  0  0  0  0  0  0  0  0
  -26.2516    0.4114   27.4223 C   0  0  0  0  0  0  0  0  0  0  0  0
  -28.3913    0.1041   30.9805 C   0  0  0  0  0  0  0  0  0  0  0  0
  -27.5332    1.1666   30.7866 C   0  0  0  0  0  0  0  0  0  0  0  0
  -26.8281    1.2557   29.6454 C   0  0  0  0  0  0  0  0  0  0  0  0
  -25.1385    0.6749   27.2306 C   0  0  0  0  0  0  0  0  0  0  0  0
  -24.3158    0.8672   28.4418 C   0  0  0  0  0  0  0  0  0  0  0  0
  -22.9393    1.2963   28.0767 C   0  0  0  0  0  0  0  0  0  0  0  0
  -22.6164    1.8590   26.8858 C   0  0  0  0  0  0  0  0  0  0  0  0
  -23.7130    1.9604   26.0320 C   0  0  0  0  0  0  0  0  0  0  0  0
  -24.8289    1.3650   26.0887 C   0  0  0  0  0  0  0  0  0  0  0  0
  -27.0644   -0.0432   26.2006 C   0  0  0  0  0  0  0  0  0  0  0  0
  -27.9208    1.0326   25.7333 C   0  0  0  0  0  0  0  0  0  0  0  0
  -28.7769    0.7087   24.7004 C   0  0  0  0  0  0  0  0  0  0  0  0
  -30.0312    0.5985   25.1420 C   0  0  0  0  0  0  0  0  0  0  0  0
  -31.0171    1.2961   24.8255 C   0  0  0  0  0  0  0  0  0  0  0  0
  -30.8809    2.0431   23.5244 C   0  0  0  0  0  0  0  0  0  0  0  0
  -29.6108    2.2425   23.0193 C   0  0  0  0  0  0  0  0  0  0  0  0
  -28.7501    2.1141   23.8734 C   0  0  0  0  0  0  0  0  0  0  0  0
  -28.3764   -0.3593   23.7433 C   0  0  0  0  0  0  0  0  0  0  0  0
  -27.8663    2.1833   26.3495 O   0  0  0  0  0  0  0  0  0  0  0  0
  3  4  1  0
  4 14  1  0
 14 15  1  0
 15 16  1  0
 16 17  1  0
 18 19  1  0
 16 21  1  0
 20 21  1  0
 16 22  1  0
 15 23  2  0
  4  8  1  0
 17 18  1  0
 19 20  1  0
  8  9  2  0
  9 10  1  0
 10 11  2  0
 11 12  1  0
 12 13  2  0
 13  8  1  0
  1  2  2  0
  2  5  1  0
  5  6  2  0
  6  7  1  0
  7  3  2  0
  3  1  1  0
M  END

$$$$
