No_726-gen_results/8p0m/2024-11-26-14-13-15/
     RDKit          3D

 35 38  0  0  0  0  0  0  0  0999 V2000
  -28.0162   -0.8135   28.8779 C   0  0  0  0  0  0  0  0  0  0  0  0
  -28.4690   -0.7850   29.8287 C   0  0  0  0  0  0  0  0  0  0  0  0
  -28.1816    0.4277   28.1134 C   0  0  0  0  0  0  0  0  0  0  0  0
  -28.9841    1.4155   28.5154 C   0  0  0  0  0  0  0  0  0  0  0  0
  -29.3802    0.1384   30.4612 C   0  0  0  0  0  0  0  0  0  0  0  0
  -29.5415    1.2736   29.7242 C   0  0  0  0  0  0  0  0  0  0  0  0
  -27.4586    0.4934   26.7701 C   0  0  0  0  0  0  0  0  0  0  0  0
  -26.0264    0.3840   26.7617 C   0  0  0  0  0  0  0  0  0  0  0  0
  -25.2897    0.9319   25.7830 C   0  0  0  0  0  0  0  0  0  0  0  0
  -23.8971    0.9071   25.8407 C   0  0  0  0  0  0  0  0  0  0  0  0
  -23.2504    0.7158   27.0661 C   0  0  0  0  0  0  0  0  0  0  0  0
  -21.8940    0.9725   27.3672 C   0  0  0  0  0  0  0  0  0  0  0  0
  -24.0706    0.4177   28.2609 C   0  0  0  0  0  0  0  0  0  0  0  0
  -25.4353    0.2431   28.1045 C   0  0  0  0  0  0  0  0  0  0  0  0
  -21.2404    1.0556   28.3869 C   0  0  0  0  0  0  0  0  0  0  0  0
  -21.9611    0.5098   29.5869 C   0  0  0  0  0  0  0  0  0  0  0  0
  -23.4163    0.2685   29.5075 C   0  0  0  0  0  0  0  0  0  0  0  0
  -28.2316    0.4447   25.6291 C   0  0  0  0  0  0  0  0  0  0  0  0
  -28.4375   -0.3672   24.9883 O   0  0  0  0  0  0  0  0  0  0  0  0
  -28.7065    1.7608   25.3032 N   0  0  0  0  0  0  0  0  0  0  0  0
  -29.4822    1.9614   24.0578 C   0  0  0  0  0  0  0  0  0  0  0  0
  -30.8877    2.0858   24.2880 C   0  0  0  0  0  0  0  0  0  0  0  0
  -31.3120    3.0144   24.9049 C   0  0  0  0  0  0  0  0  0  0  0  0
  -32.7815    3.2688   25.1160 C   0  0  0  0  0  0  0  0  0  0  0  0
  -33.6037    2.4414   24.3965 C   0  0  0  0  0  0  0  0  0  0  0  0
  -33.1046    1.5018   23.5357 C   0  0  0  0  0  0  0  0  0  0  0  0
  -31.7394    1.3446   23.4137 C   0  0  0  0  0  0  0  0  0  0  0  0
  -30.4420    2.2650   30.2258 O   0  0  0  0  0  0  0  0  0  0  0  0
  -28.2951   -1.9389   30.6975 F   0  0  0  0  0  0  0  0  0  0  0  0
  -24.0757   -0.1901   30.7218 C   0  0  0  0  0  0  0  0  0  0  0  0
  -24.7485    0.8082   31.4198 C   0  0  0  0  0  0  0  0  0  0  0  0
  -25.6152    0.4514   32.5409 C   0  0  0  0  0  0  0  0  0  0  0  0
  -26.4162    1.4037   33.1602 C   0  0  0  0  0  0  0  0  0  0  0  0
  -26.4308    2.7349   32.6895 C   0  0  0  0  0  0  0  0  0  0  0  0
  -25.5661    3.1039   31.6374 C   0  0  0  0  0  0  0  0  0  0  0  0
  3  7  1  0
  7  8  1  0
  7 18  1  0
 18 19  2  0
 18 20  1  0
 20 21  1  0
 21 22  1  0
  6 28  1  0
  2 29  1  0
 17 30  1  0
 30 31  1  0
 31 32  2  3
 32 33  1  0
 33 34  2  3
 34 35  1  0
 11 12  1  0
 12 15  2  0
 15 16  1  0
 16 17  2  0
 17 13  1  0
  8  9  2  0
  9 10  1  0
 10 11  2  0
 11 13  1  0
 13 14  2  0
 14  8  1  0
 22 23  2  0
 23 24  1  0
 24 25  2  0
 25 26  1  0
 26 27  2  0
 27 22  1  0
  1  2  2  0
  2  5  1  0
  5  6  2  0
  6  4  1  0
  4  3  2  0
  3  1  1  0
M  END

$$$$
