No_796-gen_results/8p0m/2024-11-26-14-13-15/
     RDKit          3D

 13 13  0  0  0  0  0  0  0  0999 V2000
  -28.0162   -0.8135   28.8779 C   0  0  0  0  0  0  0  0  0  0  0  0
  -27.0636   -0.1189   28.6079 C   0  0  0  0  0  0  0  0  0  0  0  0
  -26.9716    0.7139   27.5060 C   0  0  0  0  0  0  0  0  0  0  0  0
  -25.8205    1.4909   27.1160 C   0  0  0  0  0  0  0  0  0  0  0  0
  -24.6562    1.4242   27.9180 C   0  0  0  0  0  0  0  0  0  0  0  0
  -24.6847    0.5901   29.0659 C   0  0  0  0  0  0  0  0  0  0  0  0
  -25.8099   -0.1265   29.3338 C   0  0  0  0  0  0  0  0  0  0  0  0
  -28.7097   -0.5805   30.0246 N   0  0  0  0  0  0  0  0  0  0  0  0
  -23.4637    2.1746   27.6094 C   0  0  0  0  0  0  0  0  0  0  0  0
  -22.6019    2.2793   28.4858 O   0  0  0  0  0  0  0  0  0  0  0  0
  -23.2734    2.5547   26.3663 O   0  0  0  0  0  0  0  0  0  0  0  0
  -28.5101    0.4011   30.7208 C   0  0  0  0  0  0  0  0  0  0  0  0
  -29.3432    0.5095   32.0426 C   0  0  0  0  0  0  0  0  0  0  0  0
  1  8  1  0
  5  9  1  0
  9 10  1  0
  9 11  2  0
  8 12  2  3
 12 13  1  0
  1  2  1  0
  2  3  2  0
  3  4  1  0
  4  5  2  0
  5  6  1  0
  6  7  2  0
  7  2  1  0
M  END

$$$$
