No_773-gen_results/8p0m/2024-11-26-14-13-15/
     RDKit          3D

 18 19  0  0  0  0  0  0  0  0999 V2000
  -28.0162   -0.8135   28.8779 C   0  0  0  0  0  0  0  0  0  0  0  0
  -28.4690   -0.7850   29.8287 C   0  0  0  0  0  0  0  0  0  0  0  0
  -27.1356    0.2359   28.5352 C   0  0  0  0  0  0  0  0  0  0  0  0
  -26.8745    1.2825   29.3982 C   0  0  0  0  0  0  0  0  0  0  0  0
  -28.3613    0.1987   30.9244 C   0  0  0  0  0  0  0  0  0  0  0  0
  -27.5277    1.2234   30.6356 C   0  0  0  0  0  0  0  0  0  0  0  0
  -26.3987    0.2949   27.2279 C   0  0  0  0  0  0  0  0  0  0  0  0
  -26.8982    0.0442   25.8959 Cl  0  0  0  0  0  0  0  0  0  0  0  0
  -24.9028    0.4953   27.3918 C   0  0  0  0  0  0  0  0  0  0  0  0
  -24.3479    1.6225   26.7280 C   0  0  0  0  0  0  0  0  0  0  0  0
  -22.9555    1.8820   26.8475 C   0  0  0  0  0  0  0  0  0  0  0  0
  -22.2599    1.1917   27.9118 C   0  0  0  0  0  0  0  0  0  0  0  0
  -22.8697    0.2576   28.6652 C   0  0  0  0  0  0  0  0  0  0  0  0
  -24.2038   -0.1089   28.4900 C   0  0  0  0  0  0  0  0  0  0  0  0
  -20.9792    1.5900   28.0777 O   0  0  0  0  0  0  0  0  0  0  0  0
  -29.4263   -1.9814   30.3495 C   0  0  0  0  0  0  0  0  0  0  0  0
  -29.9490   -1.8812   31.4524 O   0  0  0  0  0  0  0  0  0  0  0  0
  -29.1226   -3.1309   29.9257 O   0  0  0  0  0  0  0  0  0  0  0  0
  3  7  1  0
  7  8  1  0
  7  9  1  0
 12 15  1  0
  2 16  1  0
 16 17  2  0
 16 18  1  0
  9 10  2  0
 10 11  1  0
 11 12  2  0
 12 13  1  0
 13 14  2  0
 14  9  1  0
  1  2  2  0
  2  5  1  0
  5  6  2  0
  6  4  1  0
  4  3  2  0
  3  1  1  0
M  END

$$$$
