No_727-gen_results/8p0m/2024-11-26-14-13-15/
     RDKit          3D

 16 18  0  0  0  0  0  0  0  0999 V2000
  -28.0162   -0.8135   28.8779 C   0  0  0  0  0  0  0  0  0  0  0  0
  -28.4690   -0.7850   29.8287 C   0  0  0  0  0  0  0  0  0  0  0  0
  -26.5042   -0.7777   28.8766 C   0  0  0  0  0  0  0  0  0  0  0  0
  -25.8103   -0.8531   30.1028 C   0  0  0  0  0  0  0  0  0  0  0  0
  -27.9906   -0.8916   31.2257 C   0  0  0  0  0  0  0  0  0  0  0  0
  -26.6042   -0.8676   31.2652 C   0  0  0  0  0  0  0  0  0  0  0  0
  -24.1648   -0.7915   30.1717 Cl  0  0  0  0  0  0  0  0  0  0  0  0
  -30.0988   -0.8363   29.8511 C   0  0  0  0  0  0  0  0  0  0  0  0
  -30.5260   -0.4368   28.9158 O   0  0  0  0  0  0  0  0  0  0  0  0
  -30.7904   -1.3431   30.9041 N   0  0  0  0  0  0  0  0  0  0  0  0
  -32.2264   -1.3720   30.8397 C   0  0  0  0  0  0  0  0  0  0  0  0
  -32.7596   -2.1493   31.6153 C   0  0  0  0  0  0  0  0  0  0  0  0
  -32.0894   -2.8092   32.7296 C   0  0  0  0  0  0  0  0  0  0  0  0
  -30.6850   -2.7844   32.7539 C   0  0  0  0  0  0  0  0  0  0  0  0
  -30.0501   -2.0085   32.0479 C   0  0  0  0  0  0  0  0  0  0  0  0
  -28.5581   -1.9872   31.9201 C   0  0  0  0  0  0  0  0  0  0  0  0
  4  7  1  0
  2  8  1  0
  8  9  2  0
  8 10  1  0
 10 11  1  0
 12 13  1  0
 10 15  1  0
 14 15  1  0
  5 16  1  0
 15 16  1  0
 11 12  1  0
 13 14  1  0
  1  2  2  0
  2  5  1  0
  5  6  2  0
  6  4  1  0
  4  3  2  0
  3  1  1  0
M  END

$$$$
