No_777-gen_results/8p0m/2024-11-26-14-13-15/
     RDKit          3D

 16 18  0  0  0  0  0  0  0  0999 V2000
  -28.0162   -0.8135   28.8779 C   0  0  0  0  0  0  0  0  0  0  0  0
  -27.0636   -0.1189   28.6079 C   0  0  0  0  0  0  0  0  0  0  0  0
  -26.9716    0.7139   27.5060 C   0  0  0  0  0  0  0  0  0  0  0  0
  -25.8205    1.4910   27.1160 C   0  0  0  0  0  0  0  0  0  0  0  0
  -24.8579    1.3421   27.6008 C   0  0  0  0  0  0  0  0  0  0  0  0
  -24.6224    0.5295   28.8144 C   0  0  0  0  0  0  0  0  0  0  0  0
  -25.7344   -0.1811   29.1908 C   0  0  0  0  0  0  0  0  0  0  0  0
  -27.8903   -1.5560   30.0405 N   0  0  0  0  0  0  0  0  0  0  0  0
  -23.5284    2.1448   27.3012 C   0  0  0  0  0  0  0  0  0  0  0  0
  -22.5514    2.3059   28.2492 C   0  0  0  0  0  0  0  0  0  0  0  0
  -22.4532    1.2427   29.2127 C   0  0  0  0  0  0  0  0  0  0  0  0
  -23.4632    0.5101   29.6082 C   0  0  0  0  0  0  0  0  0  0  0  0
  -28.9924   -2.2624   30.5562 C   0  0  0  0  0  0  0  0  0  0  0  0
  -30.1660   -1.8772   30.1995 C   0  0  0  0  0  0  0  0  0  0  0  0
  -30.3357   -0.8978   29.2305 C   0  0  0  0  0  0  0  0  0  0  0  0
  -29.2941   -0.2854   28.6750 C   0  0  0  0  0  0  0  0  0  0  0  0
  2  1  1  0
  2  3  2  0
  3  4  1  0
  4  5  2  0
  6  7  2  0
  7  2  1  0
  1  8  2  0
  8 13  1  0
 13 14  2  0
 14 15  1  0
 15 16  2  0
 16  1  1  0
  5  6  1  0
  6 12  1  0
 12 11  2  0
 11 10  1  0
 10  9  2  0
  9  5  1  0
M  END

$$$$
