No_733-gen_results/8p0m/2024-11-26-14-13-15/
     RDKit          3D

 11 11  0  0  0  0  0  0  0  0999 V2000
  -28.0162   -0.8135   28.8779 C   0  0  0  0  0  0  0  0  0  0  0  0
  -27.0636   -0.1189   28.6079 C   0  0  0  0  0  0  0  0  0  0  0  0
  -26.9716    0.7139   27.5060 C   0  0  0  0  0  0  0  0  0  0  0  0
  -28.1053    0.7744   26.6421 C   0  0  0  0  0  0  0  0  0  0  0  0
  -28.0677    1.4872   25.5121 C   0  0  0  0  0  0  0  0  0  0  0  0
  -29.2691   -0.5335   28.2245 C   0  0  0  0  0  0  0  0  0  0  0  0
  -29.2230    0.1355   27.0328 C   0  0  0  0  0  0  0  0  0  0  0  0
  -28.0436   -1.6551   30.1512 C   0  0  0  0  0  0  0  0  0  0  0  0
  -27.0330   -2.4564   30.3355 N   0  0  0  0  0  0  0  0  0  0  0  0
  -29.0183   -1.7802   30.8601 O   0  0  0  0  0  0  0  0  0  0  0  0
  -27.7823    2.1776   24.7947 C   0  0  0  0  0  0  0  0  0  0  0  0
  4  5  1  0
  1  8  1  0
  8  9  1  0
  8 10  2  0
  5 11  3  0
  1  2  2  0
  2  3  1  0
  3  4  2  0
  4  7  1  0
  7  6  2  0
  6  1  1  0
M  END

$$$$
