No_729-gen_results/8p0m/2024-11-26-14-13-15/
     RDKit          3D

 15 16  0  0  0  0  0  0  0  0999 V2000
  -28.0162   -0.8135   28.8779 C   0  0  0  0  0  0  0  0  0  0  0  0
  -27.0636   -0.1190   28.6079 C   0  0  0  0  0  0  0  0  0  0  0  0
  -26.9515    1.1286   28.9566 N   0  0  0  0  0  0  0  0  0  0  0  0
  -29.1088   -0.2102   29.6318 C   0  0  0  0  0  0  0  0  0  0  0  0
  -29.0881    1.0629   29.9416 C   0  0  0  0  0  0  0  0  0  0  0  0
  -27.9547    1.7679   29.5913 C   0  0  0  0  0  0  0  0  0  0  0  0
  -25.9103   -0.6251   27.9767 N   0  0  0  0  0  0  0  0  0  0  0  0
  -24.5687   -0.3869   28.4545 C   0  0  0  0  0  0  0  0  0  0  0  0
  -24.3515   -0.3068   29.6883 C   0  0  0  0  0  0  0  0  0  0  0  0
  -23.0101   -0.0892   30.1756 C   0  0  0  0  0  0  0  0  0  0  0  0
  -21.9804    0.0107   29.2135 C   0  0  0  0  0  0  0  0  0  0  0  0
  -22.2536    0.1182   27.8952 C   0  0  0  0  0  0  0  0  0  0  0  0
  -23.5925   -0.0886   27.4806 C   0  0  0  0  0  0  0  0  0  0  0  0
  -30.1661   -1.0352   29.9410 O   0  0  0  0  0  0  0  0  0  0  0  0
  -30.0119   -2.1085   30.7046 C   0  0  0  0  0  0  0  0  0  0  0  0
  2  7  1  0
  7  8  1  0
  4 14  1  0
 14 15  1  0
  1  2  2  0
  2  3  1  0
  3  6  2  0
  6  5  1  0
  5  4  2  0
  4  1  1  0
  8  9  2  0
  9 10  1  0
 10 11  2  0
 11 12  1  0
 12 13  2  0
 13  8  1  0
M  END

$$$$
