No_73-gen_results/8p0m/2024-11-26-14-13-15/
     RDKit          3D

 19 20  0  0  0  0  0  0  0  0999 V2000
  -28.0162   -0.8135   28.8779 C   0  0  0  0  0  0  0  0  0  0  0  0
  -27.0636   -0.1189   28.6079 C   0  0  0  0  0  0  0  0  0  0  0  0
  -27.0010    0.6913   27.4910 C   0  0  0  0  0  0  0  0  0  0  0  0
  -28.1420    0.8282   26.7994 C   0  0  0  0  0  0  0  0  0  0  0  0
  -29.2898   -0.4871   28.3661 C   0  0  0  0  0  0  0  0  0  0  0  0
  -29.2849    0.2608   27.2623 C   0  0  0  0  0  0  0  0  0  0  0  0
  -27.9741   -1.5885   30.0639 O   0  0  0  0  0  0  0  0  0  0  0  0
  -30.4253    0.4800   26.3062 C   0  0  0  0  0  0  0  0  0  0  0  0
  -30.4232    0.6351   25.1705 O   0  0  0  0  0  0  0  0  0  0  0  0
  -31.6170    0.5860   26.9029 O   0  0  0  0  0  0  0  0  0  0  0  0
  -25.6482   -0.3689   29.3472 C   0  0  0  0  0  0  0  0  0  0  0  0
  -24.8232    0.3475   29.7350 C   0  0  0  0  0  0  0  0  0  0  0  0
  -23.5217   -0.0089   30.1440 C   0  0  0  0  0  0  0  0  0  0  0  0
  -23.2580   -1.3665   30.2780 C   0  0  0  0  0  0  0  0  0  0  0  0
  -25.2365   -1.8520   29.3386 C   0  0  0  0  0  0  0  0  0  0  0  0
  -24.0955   -2.2520   29.7839 C   0  0  0  0  0  0  0  0  0  0  0  0
  -25.0519    1.8879   29.7502 C   0  0  0  0  0  0  0  0  0  0  0  0
  -25.2995    2.6804   30.8115 N   0  0  0  0  0  0  0  0  0  0  0  0
  -25.6143    3.9432   30.7318 C   0  0  0  0  0  0  0  0  0  0  0  0
  1  7  1  0
  6  8  1  0
  8  9  2  0
  8 10  1  0
  2 11  1  0
 12 17  1  0
 17 18  2  3
 18 19  1  0
  1  2  2  0
  2  3  1  0
  3  4  2  0
  4  6  1  0
  6  5  2  0
  5  1  1  0
 11 12  2  0
 12 13  1  0
 13 14  2  0
 14 16  1  0
 16 15  2  0
 15 11  1  0
M  END

$$$$
