No_745-gen_results/8p0m/2024-11-26-14-13-15/
     RDKit          3D

 20 21  0  0  0  0  0  0  0  0999 V2000
  -28.0162   -0.8135   28.8779 C   0  0  0  0  0  0  0  0  0  0  0  0
  -27.0636   -0.1189   28.6079 C   0  0  0  0  0  0  0  0  0  0  0  0
  -27.0010    0.6913   27.4910 C   0  0  0  0  0  0  0  0  0  0  0  0
  -25.8548    1.4825   27.0830 C   0  0  0  0  0  0  0  0  0  0  0  0
  -24.6901    1.4526   27.8807 C   0  0  0  0  0  0  0  0  0  0  0  0
  -24.7379    0.6010   29.0416 C   0  0  0  0  0  0  0  0  0  0  0  0
  -25.8234   -0.1688   29.3887 C   0  0  0  0  0  0  0  0  0  0  0  0
  -28.7568   -0.5479   30.0191 N   0  0  0  0  0  0  0  0  0  0  0  0
  -29.7597   -1.3260   30.5171 C   0  0  0  0  0  0  0  0  0  0  0  0
  -30.2314   -2.2937   29.8869 C   0  0  0  0  0  0  0  0  0  0  0  0
  -30.7225   -3.1853   30.2949 N   0  0  0  0  0  0  0  0  0  0  0  0
  -31.1452   -4.3774   29.5864 C   0  0  0  0  0  0  0  0  0  0  0  0
  -23.5283    2.2072   27.5606 C   0  0  0  0  0  0  0  0  0  0  0  0
  -22.3302    2.3132   28.5967 Cl  0  0  0  0  0  0  0  0  0  0  0  0
  -23.3713    2.7089   26.2054 C   0  0  0  0  0  0  0  0  0  0  0  0
  -32.0595   -4.1656   28.5852 C   0  0  0  0  0  0  0  0  0  0  0  0
  -31.9837   -2.8732   28.0517 C   0  0  0  0  0  0  0  0  0  0  0  0
  -31.2235   -1.8905   28.7464 C   0  0  0  0  0  0  0  0  0  0  0  0
  -32.6882   -2.5360   26.8245 C   0  0  0  0  0  0  0  0  0  0  0  0
  -32.9871   -3.3001   26.0286 O   0  0  0  0  0  0  0  0  0  0  0  0
  1  2  1  0
  1  8  1  0
  8  9  1  0
  9 10  1  0
 10 11  1  0
 11 12  1  0
  5 13  1  0
 13 14  1  0
 13 15  1  0
 12 16  1  0
 16 17  1  0
 10 18  1  0
 17 18  1  0
 17 19  1  0
 19 20  2  0
  2  3  2  0
  3  4  1  0
  4  5  2  0
  5  6  1  0
  6  7  2  0
  7  2  1  0
M  END

$$$$
