No_7-gen_results/8p0m/2024-11-26-14-13-15/
     RDKit          3D

 35 36  0  0  0  0  0  0  0  0999 V2000
  -28.0162   -0.8135   28.8779 C   0  0  0  0  0  0  0  0  0  0  0  0
  -28.4690   -0.7850   29.8287 C   0  0  0  0  0  0  0  0  0  0  0  0
  -26.5042   -0.7777   28.8766 C   0  0  0  0  0  0  0  0  0  0  0  0
  -25.8103   -0.8531   30.1028 C   0  0  0  0  0  0  0  0  0  0  0  0
  -27.9906   -0.8916   31.2257 C   0  0  0  0  0  0  0  0  0  0  0  0
  -26.6042   -0.8676   31.2652 C   0  0  0  0  0  0  0  0  0  0  0  0
  -24.5004   -0.7818   30.1446 O   0  0  0  0  0  0  0  0  0  0  0  0
  -23.6886   -1.2456   29.3147 C   0  0  0  0  0  0  0  0  0  0  0  0
  -30.0995   -0.8277   29.8680 C   0  0  0  0  0  0  0  0  0  0  0  0
  -30.7304   -1.6946   30.2421 O   0  0  0  0  0  0  0  0  0  0  0  0
  -30.6377    0.2155   29.3236 O   0  0  0  0  0  0  0  0  0  0  0  0
  -22.3761   -0.6207   29.2617 C   0  0  0  0  0  0  0  0  0  0  0  0
  -23.9344   -2.3666   28.5632 C   0  0  0  0  0  0  0  0  0  0  0  0
  -21.9312    0.3397   28.7419 C   0  0  0  0  0  0  0  0  0  0  0  0
  -20.5834    0.5621   28.2579 C   0  0  0  0  0  0  0  0  0  0  0  0
  -22.9065    1.4400   28.3693 C   0  0  0  0  0  0  0  0  0  0  0  0
  -22.5254    2.3455   27.4719 O   0  0  0  0  0  0  0  0  0  0  0  0
  -23.9550    1.5873   28.9069 O   0  0  0  0  0  0  0  0  0  0  0  0
  -31.8994    0.2771   28.9035 C   0  0  0  0  0  0  0  0  0  0  0  0
  -32.2053   -0.2290   27.6846 C   0  0  0  0  0  0  0  0  0  0  0  0
  -32.9720   -1.4764   27.3146 Cl  0  0  0  0  0  0  0  0  0  0  0  0
  -31.5287    0.3800   26.6015 N   0  0  0  0  0  0  0  0  0  0  0  0
  -31.5896   -0.1616   25.3072 C   0  0  0  0  0  0  0  0  0  0  0  0
  -30.3409   -0.5340   24.7524 C   0  0  0  0  0  0  0  0  0  0  0  0
  -29.2336   -0.3394   25.2265 C   0  0  0  0  0  0  0  0  0  0  0  0
  -28.5885    0.7940   24.9699 C   0  0  0  0  0  0  0  0  0  0  0  0
  -27.6444    1.3625   25.4638 C   0  0  0  0  0  0  0  0  0  0  0  0
  -27.3030    1.9398   26.4764 C   0  0  0  0  0  0  0  0  0  0  0  0
  -26.0466    2.5500   26.8645 C   0  0  0  0  0  0  0  0  0  0  0  0
  -25.0238    2.2637   25.9963 C   0  0  0  0  0  0  0  0  0  0  0  0
  -25.1666    1.5013   24.8570 C   0  0  0  0  0  0  0  0  0  0  0  0
  -26.4025    1.0281   24.5855 C   0  0  0  0  0  0  0  0  0  0  0  0
  -29.3698    1.7521   24.1332 C   0  0  0  0  0  0  0  0  0  0  0  0
  -32.6403   -0.1142   24.7640 O   0  0  0  0  0  0  0  0  0  0  0  0
  -30.5019   -1.5477   23.6933 C   0  0  0  0  0  0  0  0  0  0  0  0
  4  7  1  0
  7  8  1  0
  2  9  1  0
  9 10  2  0
  9 11  1  0
  8 12  2  3
  8 13  1  0
 12 14  1  0
 14 15  2  0
 14 16  1  0
 16 17  2  0
 16 18  1  0
 11 19  1  0
 19 20  1  0
 20 21  1  0
 20 22  2  3
 22 23  1  0
 23 24  1  0
 24 25  1  0
 25 26  2  3
 26 27  1  0
 26 33  1  0
 23 34  2  0
 24 35  1  0
 27 28  2  0
 28 29  1  0
 29 30  2  0
 30 31  1  0
 31 32  2  0
 32 27  1  0
  1  2  2  0
  2  5  1  0
  5  6  2  0
  6  4  1  0
  4  3  2  0
  3  1  1  0
M  END

$$$$
