No_798-gen_results/8p0m/2024-11-26-14-13-15/
     RDKit          3D

 24 26  0  0  0  0  0  0  0  0999 V2000
  -28.0162   -0.8135   28.8779 C   0  0  0  0  0  0  0  0  0  0  0  0
  -27.0636   -0.1189   28.6079 C   0  0  0  0  0  0  0  0  0  0  0  0
  -25.7647   -0.3897   29.0360 C   0  0  0  0  0  0  0  0  0  0  0  0
  -25.5296   -1.5302   29.9014 C   0  0  0  0  0  0  0  0  0  0  0  0
  -26.6888   -2.2893   30.1810 C   0  0  0  0  0  0  0  0  0  0  0  0
  -27.8727   -1.9508   29.7373 C   0  0  0  0  0  0  0  0  0  0  0  0
  -28.9304   -2.7298   30.1154 O   0  0  0  0  0  0  0  0  0  0  0  0
  -24.5394    0.4211   28.7421 C   0  0  0  0  0  0  0  0  0  0  0  0
  -24.5259    1.2743   27.7265 C   0  0  0  0  0  0  0  0  0  0  0  0
  -23.3174    1.9856   27.4033 C   0  0  0  0  0  0  0  0  0  0  0  0
  -22.1311    1.7374   28.0503 C   0  0  0  0  0  0  0  0  0  0  0  0
  -23.2983    0.1369   29.3770 C   0  0  0  0  0  0  0  0  0  0  0  0
  -22.1005    0.8185   29.0410 C   0  0  0  0  0  0  0  0  0  0  0  0
  -28.7772   -3.9930   30.6463 C   0  0  0  0  0  0  0  0  0  0  0  0
  -29.8119   -4.8583   30.2319 C   0  0  0  0  0  0  0  0  0  0  0  0
  -30.2978   -4.8464   29.1612 O   0  0  0  0  0  0  0  0  0  0  0  0
  -30.1744   -5.8990   31.1403 N   0  0  0  0  0  0  0  0  0  0  0  0
  -29.6875   -5.9682   32.5170 C   0  0  0  0  0  0  0  0  0  0  0  0
  -31.1473   -6.8779   30.7177 C   0  0  0  0  0  0  0  0  0  0  0  0
  -23.3950    2.8949   26.3829 O   0  0  0  0  0  0  0  0  0  0  0  0
  -24.1091    3.8967   26.4145 C   0  0  0  0  0  0  0  0  0  0  0  0
  -31.1739   -8.0234   31.3963 C   0  0  0  0  0  0  0  0  0  0  0  0
  -29.8320   -7.1470   33.2024 C   0  0  0  0  0  0  0  0  0  0  0  0
  -30.6248   -8.1561   32.6778 C   0  0  0  0  0  0  0  0  0  0  0  0
  6  7  1  0
  3  8  1  0
  7 14  1  0
 14 15  1  0
 15 16  2  0
 15 17  1  0
 17 18  1  0
 17 19  1  0
 10 20  1  0
 20 21  1  0
 22 24  1  0
 23 24  1  0
 18 23  1  0
 22 19  1  0
  1  2  2  0
  2  3  1  0
  3  4  2  0
  4  5  1  0
  5  6  2  0
  6  1  1  0
  8  9  2  0
  9 10  1  0
 10 11  2  0
 11 13  1  0
 13 12  2  0
 12  8  1  0
M  END

$$$$
