No_790-gen_results/8p0m/2024-11-26-14-13-15/
     RDKit          3D

 22 23  0  0  0  0  0  0  0  0999 V2000
  -28.0162   -0.8135   28.8779 C   0  0  0  0  0  0  0  0  0  0  0  0
  -28.4690   -0.7850   29.8287 C   0  0  0  0  0  0  0  0  0  0  0  0
  -26.5042   -0.7777   28.8766 C   0  0  0  0  0  0  0  0  0  0  0  0
  -25.8103   -0.8531   30.1028 C   0  0  0  0  0  0  0  0  0  0  0  0
  -27.9906   -0.8916   31.2257 C   0  0  0  0  0  0  0  0  0  0  0  0
  -26.6042   -0.8676   31.2652 C   0  0  0  0  0  0  0  0  0  0  0  0
  -30.0739   -0.8360   29.8615 C   0  0  0  0  0  0  0  0  0  0  0  0
  -30.7170    0.0956   30.4784 N   0  0  0  0  0  0  0  0  0  0  0  0
  -30.5285    1.1120   30.6398 C   0  0  0  0  0  0  0  0  0  0  0  0
  -29.6836    1.8894   29.9572 N   0  0  0  0  0  0  0  0  0  0  0  0
  -29.5541    3.0897   29.8681 C   0  0  0  0  0  0  0  0  0  0  0  0
  -28.5608    3.6864   28.9909 C   0  0  0  0  0  0  0  0  0  0  0  0
  -27.7446    2.8069   28.2547 C   0  0  0  0  0  0  0  0  0  0  0  0
  -26.7214    3.3888   27.5310 C   0  0  0  0  0  0  0  0  0  0  0  0
  -25.7083    2.5135   26.9358 C   0  0  0  0  0  0  0  0  0  0  0  0
  -24.4513    2.5244   27.5056 C   0  0  0  0  0  0  0  0  0  0  0  0
  -23.7932    1.3669   27.9591 C   0  0  0  0  0  0  0  0  0  0  0  0
  -22.4033    1.4592   28.3128 C   0  0  0  0  0  0  0  0  0  0  0  0
  -21.8325    0.2752   28.8246 C   0  0  0  0  0  0  0  0  0  0  0  0
  -22.5835   -0.9170   28.9733 C   0  0  0  0  0  0  0  0  0  0  0  0
  -23.7662   -1.0193   28.4020 C   0  0  0  0  0  0  0  0  0  0  0  0
  -24.4270    0.1859   27.9677 C   0  0  0  0  0  0  0  0  0  0  0  0
  2  7  1  0
  7  8  1  0
  8  9  1  0
  9 10  2  3
 10 11  1  0
 11 12  2  3
 12 13  1  0
 13 14  1  0
 14 15  1  0
 15 16  1  0
 16 17  1  0
 17 18  2  0
 18 19  1  0
 19 20  2  0
 20 21  1  0
 21 22  2  0
 22 17  1  0
  1  2  2  0
  2  5  1  0
  5  6  2  0
  6  4  1  0
  4  3  2  0
  3  1  1  0
M  END

$$$$
