No_779-gen_results/8p0m/2024-11-26-14-13-15/
     RDKit          3D

 34 37  0  0  0  0  0  0  0  0999 V2000
  -28.0162   -0.8135   28.8779 C   0  0  0  0  0  0  0  0  0  0  0  0
  -28.4690   -0.7850   29.8287 C   0  0  0  0  0  0  0  0  0  0  0  0
  -26.6340   -1.0216   28.8020 N   0  0  0  0  0  0  0  0  0  0  0  0
  -25.9202   -1.0424   29.7773 C   0  0  0  0  0  0  0  0  0  0  0  0
  -24.1616   -1.3104   29.7981 Cl  0  0  0  0  0  0  0  0  0  0  0  0
  -27.8397   -0.9214   31.1776 C   0  0  0  0  0  0  0  0  0  0  0  0
  -26.4377   -1.1030   31.1352 C   0  0  0  0  0  0  0  0  0  0  0  0
  -30.0381   -0.6447   30.2197 C   0  0  0  0  0  0  0  0  0  0  0  0
  -30.6702   -1.1419   30.8703 N   0  0  0  0  0  0  0  0  0  0  0  0
  -30.6037    0.1443   29.2533 O   0  0  0  0  0  0  0  0  0  0  0  0
  -30.2855   -2.0869   31.9103 C   0  0  0  0  0  0  0  0  0  0  0  0
  -32.1722   -0.8993   30.9531 C   0  0  0  0  0  0  0  0  0  0  0  0
  -32.7407   -0.1553   31.6717 C   0  0  0  0  0  0  0  0  0  0  0  0
  -34.1477    0.0931   31.6839 C   0  0  0  0  0  0  0  0  0  0  0  0
  -34.8840   -0.6520   30.7568 C   0  0  0  0  0  0  0  0  0  0  0  0
  -34.2701   -1.5235   29.9143 C   0  0  0  0  0  0  0  0  0  0  0  0
  -32.8802   -1.7040   29.9704 C   0  0  0  0  0  0  0  0  0  0  0  0
  -34.9912   -2.3102   28.9261 C   0  0  0  0  0  0  0  0  0  0  0  0
  -34.7431   -3.5349   28.6471 C   0  0  0  0  0  0  0  0  0  0  0  0
  -33.7450   -4.1757   29.3998 C   0  0  0  0  0  0  0  0  0  0  0  0
  -33.3289   -5.6010   29.0662 C   0  0  0  0  0  0  0  0  0  0  0  0
  -32.4986   -6.1786   29.9698 C   0  0  0  0  0  0  0  0  0  0  0  0
  -31.9667   -7.3989   29.6969 C   0  0  0  0  0  0  0  0  0  0  0  0
  -32.1629   -7.9876   28.3834 C   0  0  0  0  0  0  0  0  0  0  0  0
  -32.9034   -7.2701   27.4817 C   0  0  0  0  0  0  0  0  0  0  0  0
  -33.4197   -6.0333   27.7718 C   0  0  0  0  0  0  0  0  0  0  0  0
  -30.1377   -1.5986   33.2054 C   0  0  0  0  0  0  0  0  0  0  0  0
  -29.8379   -2.4527   34.2600 C   0  0  0  0  0  0  0  0  0  0  0  0
  -29.5893   -3.8011   33.9554 C   0  0  0  0  0  0  0  0  0  0  0  0
  -30.0664   -3.3958   31.6389 C   0  0  0  0  0  0  0  0  0  0  0  0
  -29.7108   -4.2567   32.6634 C   0  0  0  0  0  0  0  0  0  0  0  0
  -30.1728   -3.8971   30.2641 C   0  0  0  0  0  0  0  0  0  0  0  0
  -29.3353   -4.8306   29.9791 O   0  0  0  0  0  0  0  0  0  0  0  0
  -31.0370   -3.5042   29.4536 O   0  0  0  0  0  0  0  0  0  0  0  0
  4  5  1  0
  2  8  1  0
  8  9  1  0
  8 10  2  0
  9 11  1  0
  9 12  1  0
 16 18  1  0
 18 19  2  3
 19 20  1  0
 30 32  1  0
 32 33  2  0
 32 34  1  0
 20 21  1  0
 11 27  2  0
 27 28  1  0
 28 29  2  0
 29 31  1  0
 31 30  2  0
 30 11  1  0
  1  2  2  0
  2  6  1  0
  6  7  2  0
  7  4  1  0
  4  3  2  0
  3  1  1  0
 21 22  2  0
 22 23  1  0
 23 24  2  0
 24 25  1  0
 25 26  2  0
 26 21  1  0
 12 13  2  0
 13 14  1  0
 14 15  2  0
 15 16  1  0
 16 17  2  0
 17 12  1  0
M  END

$$$$
