No_772-gen_results/8p0m/2024-11-26-14-13-15/
     RDKit          3D

 25 26  0  0  0  0  0  0  0  0999 V2000
  -28.0162   -0.8135   28.8779 C   0  0  0  0  0  0  0  0  0  0  0  0
  -27.0636   -0.1189   28.6079 C   0  0  0  0  0  0  0  0  0  0  0  0
  -25.7647   -0.3897   29.0360 C   0  0  0  0  0  0  0  0  0  0  0  0
  -25.5296   -1.5302   29.9014 C   0  0  0  0  0  0  0  0  0  0  0  0
  -26.6888   -2.2893   30.1810 C   0  0  0  0  0  0  0  0  0  0  0  0
  -27.8727   -1.9508   29.7373 C   0  0  0  0  0  0  0  0  0  0  0  0
  -24.2480    0.6530   28.6314 Br  0  0  0  0  0  0  0  0  0  0  0  0
  -28.9273   -2.7292   30.0627 F   0  0  0  0  0  0  0  0  0  0  0  0
  -27.1687    1.1333   27.7050 C   0  0  0  0  0  0  0  0  0  0  0  0
  -27.3682    0.8957   26.3683 C   0  0  0  0  0  0  0  0  0  0  0  0
  -27.4802   -0.2552   25.8292 C   0  0  0  0  0  0  0  0  0  0  0  0
  -27.7134   -0.4416   24.4166 C   0  0  0  0  0  0  0  0  0  0  0  0
  -27.9942    0.7611   23.7103 C   0  0  0  0  0  0  0  0  0  0  0  0
  -27.5804    2.0183   25.3989 C   0  0  0  0  0  0  0  0  0  0  0  0
  -27.8860    1.9661   24.2024 C   0  0  0  0  0  0  0  0  0  0  0  0
  -27.2383    2.4136   28.3937 C   0  0  0  0  0  0  0  0  0  0  0  0
  -26.4656    3.1589   29.2169 Br  0  0  0  0  0  0  0  0  0  0  0  0
  -28.6869    2.9801   28.1478 C   0  0  0  0  0  0  0  0  0  0  0  0
  -28.7732    3.9902   27.4972 N   0  0  0  0  0  0  0  0  0  0  0  0
  -29.8299    4.3473   26.7180 C   0  0  0  0  0  0  0  0  0  0  0  0
  -30.7694    3.6032   26.4466 C   0  0  0  0  0  0  0  0  0  0  0  0
  -31.4085    3.4648   25.1851 C   0  0  0  0  0  0  0  0  0  0  0  0
  -32.2565    2.4759   24.8670 C   0  0  0  0  0  0  0  0  0  0  0  0
  -32.5954    1.5823   25.8533 C   0  0  0  0  0  0  0  0  0  0  0  0
  -32.0109    1.5928   27.1102 C   0  0  0  0  0  0  0  0  0  0  0  0
  3  7  1  0
  6  8  1  0
  2  9  1  0
  9 10  1  0
  9 16  1  0
 16 17  1  0
 16 18  1  0
 18 19  1  0
 19 20  1  0
 20 21  2  3
 21 22  1  0
 22 23  2  3
 23 24  1  0
 24 25  2  0
  1  2  2  0
  2  3  1  0
  3  4  2  0
  4  5  1  0
  5  6  2  0
  6  1  1  0
 10 11  2  0
 11 12  1  0
 12 13  2  0
 13 15  1  0
 15 14  2  0
 14 10  1  0
M  END

$$$$
