No_76-gen_results/8p0m/2024-11-26-14-13-15/
     RDKit          3D

 11 12  0  0  0  0  0  0  0  0999 V2000
  -28.1229   -1.3353   28.4874 O   0  0  0  0  0  0  0  0  0  0  0  0
  -27.4806   -0.4044   28.7094 C   0  0  0  0  0  0  0  0  0  0  0  0
  -26.3804   -0.0867   27.9394 C   0  0  0  0  0  0  0  0  0  0  0  0
  -27.8993    0.6459   29.6320 N   0  0  0  0  0  0  0  0  0  0  0  0
  -25.4476    0.7231   28.5094 N   0  0  0  0  0  0  0  0  0  0  0  0
  -24.1961    0.9768   28.0598 C   0  0  0  0  0  0  0  0  0  0  0  0
  -23.2296    1.5101   28.9299 C   0  0  0  0  0  0  0  0  0  0  0  0
  -27.0473    1.5904   30.1038 C   0  0  0  0  0  0  0  0  0  0  0  0
  -25.4833    1.3350   29.9020 C   0  0  0  0  0  0  0  0  0  0  0  0
  -23.4113    1.9607   30.1184 C   0  0  0  0  0  0  0  0  0  0  0  0
  -24.6506    1.9488   30.5817 C   0  0  0  0  0  0  0  0  0  0  0  0
  1  2  2  0
  2  3  1  0
  2  4  1  0
  3  5  1  0
  5  6  1  0
  6  7  1  0
  4  8  1  0
  5  9  1  0
  8  9  1  0
  9 11  1  0
 10 11  1  0
  7 10  1  0
M  END

$$$$
