No_768-gen_results/8p0m/2024-11-26-14-13-15/
     RDKit          3D

 15 16  0  0  0  0  0  0  0  0999 V2000
  -28.1229   -1.3353   28.4874 O   0  0  0  0  0  0  0  0  0  0  0  0
  -27.0637   -0.8242   28.8687 C   0  0  0  0  0  0  0  0  0  0  0  0
  -25.9464   -1.0396   28.8492 C   0  0  0  0  0  0  0  0  0  0  0  0
  -25.3522   -2.2524   28.5471 C   0  0  0  0  0  0  0  0  0  0  0  0
  -27.2573    0.6208   29.4840 N   0  0  0  0  0  0  0  0  0  0  0  0
  -26.2615    1.3937   29.8365 C   0  0  0  0  0  0  0  0  0  0  0  0
  -24.9553    0.9041   29.8149 C   0  0  0  0  0  0  0  0  0  0  0  0
  -24.6763   -0.2883   29.3924 C   0  0  0  0  0  0  0  0  0  0  0  0
  -25.7251   -3.3933   28.9956 C   0  0  0  0  0  0  0  0  0  0  0  0
  -25.1223   -4.6852   28.7781 C   0  0  0  0  0  0  0  0  0  0  0  0
  -26.8148   -3.4926   30.0317 C   0  0  0  0  0  0  0  0  0  0  0  0
  -27.2658   -4.7551   30.3590 N   0  0  0  0  0  0  0  0  0  0  0  0
  -25.5753   -5.7723   29.4215 N   0  0  0  0  0  0  0  0  0  0  0  0
  -26.5792   -5.6845   30.2443 C   0  0  0  0  0  0  0  0  0  0  0  0
  -23.9386   -4.8319   28.2185 N   0  0  0  0  0  0  0  0  0  0  0  0
  1  2  2  0
  2  3  1  0
  3  4  1  0
  2  5  1  0
  6  7  1  0
  3  8  1  0
  4  9  1  0
 10 15  1  0
  8  7  1  0
  6  5  1  0
  9 10  2  0
 10 13  1  0
 13 14  2  0
 14 12  1  0
 12 11  2  0
 11  9  1  0
M  END

$$$$
