No_718-gen_results/8p0m/2024-11-26-14-13-15/
     RDKit          3D

  7  6  0  0  0  0  0  0  0  0999 V2000
  -28.0727   -1.2542   28.5316 F   0  0  0  0  0  0  0  0  0  0  0  0
  -27.3591   -0.3792   28.7224 C   0  0  0  0  0  0  0  0  0  0  0  0
  -26.3180   -0.6608   29.1159 F   0  0  0  0  0  0  0  0  0  0  0  0
  -27.2545    0.4794   27.4896 C   0  0  0  0  0  0  0  0  0  0  0  0
  -27.9307    0.4754   29.6895 F   0  0  0  0  0  0  0  0  0  0  0  0
  -25.9910    0.8564   27.1684 C   0  0  0  0  0  0  0  0  0  0  0  0
  -24.8575    0.3707   27.8504 C   0  0  0  0  0  0  0  0  0  0  0  0
  1  2  1  0
  2  3  1  0
  2  4  1  0
  2  5  1  0
  4  6  1  0
  6  7  2  0
M  END

$$$$
