No_710-gen_results/8p0m/2024-11-26-14-13-15/
     RDKit          3D

 18 18  0  0  0  0  0  0  0  0999 V2000
  -28.0162   -0.8135   28.8779 C   0  0  0  0  0  0  0  0  0  0  0  0
  -27.0636   -0.1190   28.6079 C   0  0  0  0  0  0  0  0  0  0  0  0
  -27.0010    0.6913   27.4910 C   0  0  0  0  0  0  0  0  0  0  0  0
  -28.1373    0.7363   26.6350 C   0  0  0  0  0  0  0  0  0  0  0  0
  -29.2360    0.0765   27.0690 C   0  0  0  0  0  0  0  0  0  0  0  0
  -29.2177   -0.6429   28.1747 C   0  0  0  0  0  0  0  0  0  0  0  0
  -28.0253   -1.7815   30.3211 Cl  0  0  0  0  0  0  0  0  0  0  0  0
  -30.3564    0.1438   26.2451 N   0  0  0  0  0  0  0  0  0  0  0  0
  -25.5272   -0.2028   29.5632 Cl  0  0  0  0  0  0  0  0  0  0  0  0
  -30.2770   -0.0423   24.9101 C   0  0  0  0  0  0  0  0  0  0  0  0
  -30.0434   -0.9007   24.4059 C   0  0  0  0  0  0  0  0  0  0  0  0
  -29.9872   -2.2004   25.0612 C   0  0  0  0  0  0  0  0  0  0  0  0
  -31.2578   -2.6767   25.2647 C   0  0  0  0  0  0  0  0  0  0  0  0
  -32.1071   -2.5149   26.0776 N   0  0  0  0  0  0  0  0  0  0  0  0
  -32.9785   -2.9992   26.5430 C   0  0  0  0  0  0  0  0  0  0  0  0
  -33.2406   -3.6286   27.4021 C   0  0  0  0  0  0  0  0  0  0  0  0
  -32.1928   -3.7462   28.3590 C   0  0  0  0  0  0  0  0  0  0  0  0
  -34.1434   -2.7798   25.6653 O   0  0  0  0  0  0  0  0  0  0  0  0
  1  7  1  0
  5  8  1  0
  2  9  1  0
  8 10  2  3
 10 11  1  0
 11 12  2  3
 12 13  1  0
 13 14  2  3
 14 15  1  0
 15 16  1  0
 16 17  2  0
 15 18  2  0
  1  2  2  0
  2  3  1  0
  3  4  2  0
  4  5  1  0
  5  6  2  0
  6  1  1  0
M  END

$$$$
