No_728-gen_results/8p0m/2024-11-26-14-13-15/
     RDKit          3D

 22 23  0  0  0  0  0  0  0  0999 V2000
  -28.0162   -0.8135   28.8779 C   0  0  0  0  0  0  0  0  0  0  0  0
  -27.0636   -0.1189   28.6079 C   0  0  0  0  0  0  0  0  0  0  0  0
  -26.9716    0.7139   27.5060 C   0  0  0  0  0  0  0  0  0  0  0  0
  -28.1053    0.7744   26.6421 C   0  0  0  0  0  0  0  0  0  0  0  0
  -29.2008    0.1044   27.0527 C   0  0  0  0  0  0  0  0  0  0  0  0
  -28.0219   -1.5899   30.0879 C   0  0  0  0  0  0  0  0  0  0  0  0
  -29.1640   -0.6394   28.1484 C   0  0  0  0  0  0  0  0  0  0  0  0
  -27.1133   -2.3915   30.2340 F   0  0  0  0  0  0  0  0  0  0  0  0
  -28.0143   -0.8882   31.2715 F   0  0  0  0  0  0  0  0  0  0  0  0
  -29.2318   -2.3085   30.1852 F   0  0  0  0  0  0  0  0  0  0  0  0
  -30.3765    0.2074   26.1592 C   0  0  0  0  0  0  0  0  0  0  0  0
  -30.3900    0.2140   24.9760 O   0  0  0  0  0  0  0  0  0  0  0  0
  -31.5680    0.1197   26.7605 O   0  0  0  0  0  0  0  0  0  0  0  0
  -25.6922    1.4118   27.1561 C   0  0  0  0  0  0  0  0  0  0  0  0
  -24.6649    0.8113   26.9915 C   0  0  0  0  0  0  0  0  0  0  0  0
  -23.3886    1.5652   26.8011 C   0  0  0  0  0  0  0  0  0  0  0  0
  -22.1142    1.1932   27.2243 C   0  0  0  0  0  0  0  0  0  0  0  0
  -22.0619    0.0951   28.1534 C   0  0  0  0  0  0  0  0  0  0  0  0
  -23.2735   -0.6296   28.4594 C   0  0  0  0  0  0  0  0  0  0  0  0
  -24.4771   -0.2471   27.9056 C   0  0  0  0  0  0  0  0  0  0  0  0
  -25.9731    2.3960   25.9860 C   0  0  0  0  0  0  0  0  0  0  0  0
  -20.5476   -0.3246   28.7825 Cl  0  0  0  0  0  0  0  0  0  0  0  0
  1  6  1  0
  6  8  1  0
  6  9  1  0
  6 10  1  0
  5 11  1  0
 11 12  2  0
 11 13  1  0
  3 14  1  0
 14 21  1  0
 18 22  1  0
 14 15  1  0
 15 16  2  0
 16 17  1  0
 17 18  2  0
 18 19  1  0
 19 20  2  0
 20 15  1  0
  1  2  2  0
  2  3  1  0
  3  4  2  0
  4  5  1  0
  5  7  2  0
  7  1  1  0
M  END

$$$$
