No_70-gen_results/8p0m/2024-11-26-14-13-15/
     RDKit          3D

 26 28  0  0  0  0  0  0  0  0999 V2000
  -28.0162   -0.8135   28.8779 C   0  0  0  0  0  0  0  0  0  0  0  0
  -27.0636   -0.1189   28.6079 C   0  0  0  0  0  0  0  0  0  0  0  0
  -26.8756    1.1325   28.9134 C   0  0  0  0  0  0  0  0  0  0  0  0
  -25.6883    1.9515   28.5672 C   0  0  0  0  0  0  0  0  0  0  0  0
  -24.6394    1.2834   27.8753 C   0  0  0  0  0  0  0  0  0  0  0  0
  -23.4556    1.9996   27.5653 C   0  0  0  0  0  0  0  0  0  0  0  0
  -25.7633   -0.7885   28.1430 C   0  0  0  0  0  0  0  0  0  0  0  0
  -24.6284   -0.0980   27.7264 C   0  0  0  0  0  0  0  0  0  0  0  0
  -22.9705    2.0713   26.5004 O   0  0  0  0  0  0  0  0  0  0  0  0
  -22.7183    2.4748   28.6164 O   0  0  0  0  0  0  0  0  0  0  0  0
  -28.0154   -1.2787   30.3423 C   0  0  0  0  0  0  0  0  0  0  0  0
  -28.9982   -1.1914   31.0891 C   0  0  0  0  0  0  0  0  0  0  0  0
  -29.9738   -1.1158   30.8528 C   0  0  0  0  0  0  0  0  0  0  0  0
  -30.3735   -0.8527   29.5017 C   0  0  0  0  0  0  0  0  0  0  0  0
  -29.3307   -0.3783   28.6983 C   0  0  0  0  0  0  0  0  0  0  0  0
  -29.6144    0.0750   27.4453 O   0  0  0  0  0  0  0  0  0  0  0  0
  -31.5960   -0.4943   29.0744 O   0  0  0  0  0  0  0  0  0  0  0  0
  -25.6647    3.3783   28.7900 C   0  0  0  0  0  0  0  0  0  0  0  0
  -25.8141    3.7181   29.8761 O   0  0  0  0  0  0  0  0  0  0  0  0
  -25.9666    4.1194   27.7286 O   0  0  0  0  0  0  0  0  0  0  0  0
  -32.0971    0.5937   29.1378 C   0  0  0  0  0  0  0  0  0  0  0  0
  -32.5947    1.0929   28.1361 C   0  0  0  0  0  0  0  0  0  0  0  0
  -33.1158    2.4923   28.1530 C   0  0  0  0  0  0  0  0  0  0  0  0
  -33.1026    3.1801   29.3776 C   0  0  0  0  0  0  0  0  0  0  0  0
  -32.5025    2.5590   30.4728 C   0  0  0  0  0  0  0  0  0  0  0  0
  -31.9562    1.3442   30.3948 C   0  0  0  0  0  0  0  0  0  0  0  0
  2  3  1  0
  3  4  1  0
  4  5  1  0
  5  6  1  0
  2  7  1  0
  5  8  1  0
  7  8  1  0
  6  9  2  0
  6 10  1  0
  1 11  1  0
 11 12  1  0
 12 13  1  0
  1 15  1  0
 14 15  1  0
 15 16  2  0
 14 17  1  0
  4 18  1  0
 18 19  1  0
 18 20  2  0
 17 21  1  0
  2  1  1  0
 13 14  1  0
 21 22  2  0
 22 23  1  0
 23 24  2  0
 24 25  1  0
 25 26  2  0
 26 21  1  0
M  END

$$$$
