No_742-gen_results/8p0m/2024-11-26-14-13-15/
     RDKit          3D

 23 25  0  0  0  0  0  0  0  0999 V2000
  -28.1493   -0.8198   28.9079 Cl  0  0  0  0  0  0  0  0  0  0  0  0
  -26.9116   -0.0797   28.9452 C   0  0  0  0  0  0  0  0  0  0  0  0
  -26.1080   -0.1167   27.9325 N   0  0  0  0  0  0  0  0  0  0  0  0
  -24.7481   -0.2847   27.9648 C   0  0  0  0  0  0  0  0  0  0  0  0
  -24.0999    0.0517   28.8286 C   0  0  0  0  0  0  0  0  0  0  0  0
  -22.6177   -0.0070   28.9817 C   0  0  0  0  0  0  0  0  0  0  0  0
  -24.6710    0.5879   30.1639 C   0  0  0  0  0  0  0  0  0  0  0  0
  -26.1972    0.2336   30.2384 C   0  0  0  0  0  0  0  0  0  0  0  0
  -21.4897    0.5268   28.8387 N   0  0  0  0  0  0  0  0  0  0  0  0
  -26.7529    0.1381   26.6121 C   0  0  0  0  0  0  0  0  0  0  0  0
  -26.7096    1.5333   26.2216 C   0  0  0  0  0  0  0  0  0  0  0  0
  -25.6099    2.0862   26.3367 C   0  0  0  0  0  0  0  0  0  0  0  0
  -25.4719    3.5787   26.4489 C   0  0  0  0  0  0  0  0  0  0  0  0
  -26.6817    4.2561   26.1675 C   0  0  0  0  0  0  0  0  0  0  0  0
  -27.8945    3.5854   26.0675 C   0  0  0  0  0  0  0  0  0  0  0  0
  -27.9158    2.2172   26.1247 C   0  0  0  0  0  0  0  0  0  0  0  0
  -29.1710    1.5315   25.9722 C   0  0  0  0  0  0  0  0  0  0  0  0
  -29.5453    1.0509   24.8311 C   0  0  0  0  0  0  0  0  0  0  0  0
  -30.7091    0.2479   24.6468 C   0  0  0  0  0  0  0  0  0  0  0  0
  -31.4578   -0.1275   25.7680 C   0  0  0  0  0  0  0  0  0  0  0  0
  -31.0815    0.3590   27.0133 C   0  0  0  0  0  0  0  0  0  0  0  0
  -29.9437    1.1831   27.1826 C   0  0  0  0  0  0  0  0  0  0  0  0
  -24.3592    4.1853   26.4263 F   0  0  0  0  0  0  0  0  0  0  0  0
  1  2  1  0
  2  3  1  0
  3  4  1  0
  5  6  1  0
  5  7  1  0
  2  8  1  0
  6  9  3  0
  3 10  1  0
 10 11  1  0
 16 17  1  0
 13 23  1  0
  8  7  1  0
  5  4  1  0
 17 18  2  0
 18 19  1  0
 19 20  2  0
 20 21  1  0
 21 22  2  0
 22 17  1  0
 11 12  2  0
 12 13  1  0
 13 14  2  0
 14 15  1  0
 15 16  2  0
 16 11  1  0
M  END

$$$$
