No_703-gen_results/8p0m/2024-11-26-14-13-15/
     RDKit          3D

 19 21  0  0  0  0  0  0  0  0999 V2000
  -28.0162   -0.8135   28.8779 C   0  0  0  0  0  0  0  0  0  0  0  0
  -27.0636   -0.1189   28.6079 C   0  0  0  0  0  0  0  0  0  0  0  0
  -26.9287    1.1713   29.0083 C   0  0  0  0  0  0  0  0  0  0  0  0
  -27.9560    1.7411   29.7840 C   0  0  0  0  0  0  0  0  0  0  0  0
  -29.0569   -0.3271   29.7466 C   0  0  0  0  0  0  0  0  0  0  0  0
  -28.9828    0.9722   30.1516 C   0  0  0  0  0  0  0  0  0  0  0  0
  -25.9911   -0.6119   27.8566 O   0  0  0  0  0  0  0  0  0  0  0  0
  -24.9038   -1.1483   28.5775 C   0  0  0  0  0  0  0  0  0  0  0  0
  -23.7733   -0.9238   28.7488 C   0  0  0  0  0  0  0  0  0  0  0  0
  -25.2670   -2.5528   29.1249 C   0  0  0  0  0  0  0  0  0  0  0  0
  -23.1847    0.4310   28.3210 C   0  0  0  0  0  0  0  0  0  0  0  0
  -21.8336    0.7493   28.5075 C   0  0  0  0  0  0  0  0  0  0  0  0
  -21.3396    1.9890   28.0678 C   0  0  0  0  0  0  0  0  0  0  0  0
  -22.2307    2.7516   27.3235 C   0  0  0  0  0  0  0  0  0  0  0  0
  -23.7268    1.4808   27.5065 C   0  0  0  0  0  0  0  0  0  0  0  0
  -24.3041   -3.2812   29.4920 N   0  0  0  0  0  0  0  0  0  0  0  0
  -22.9438   -1.8839   29.4192 C   0  0  0  0  0  0  0  0  0  0  0  0
  -24.5805    1.9226   26.6734 C   0  0  0  0  0  0  0  0  0  0  0  0
  -24.5078    2.8871   26.1938 C   0  0  0  0  0  0  0  0  0  0  0  0
  2  7  1  0
  7  8  1  0
  8  9  2  0
  8 10  1  0
  9 11  1  0
 11 12  2  0
 12 13  1  0
 13 14  2  0
 11 15  1  0
 14 15  1  0
 10 16  2  0
  9 17  1  0
 16 17  1  0
 15 18  1  0
 18 19  2  0
  1  2  2  0
  2  3  1  0
  3  4  2  0
  4  6  1  0
  6  5  2  0
  5  1  1  0
M  END

$$$$
