No_760-gen_results/8p0m/2024-11-26-14-13-15/
     RDKit          3D

 19 19  0  0  0  0  0  0  0  0999 V2000
  -28.0162   -0.8135   28.8779 C   0  0  0  0  0  0  0  0  0  0  0  0
  -27.0636   -0.1189   28.6079 C   0  0  0  0  0  0  0  0  0  0  0  0
  -26.9716    0.7139   27.5060 C   0  0  0  0  0  0  0  0  0  0  0  0
  -25.8205    1.4909   27.1160 C   0  0  0  0  0  0  0  0  0  0  0  0
  -24.6562    1.4242   27.9180 C   0  0  0  0  0  0  0  0  0  0  0  0
  -24.6847    0.5901   29.0659 C   0  0  0  0  0  0  0  0  0  0  0  0
  -25.8099   -0.1265   29.3338 C   0  0  0  0  0  0  0  0  0  0  0  0
  -29.2444   -0.0768   29.2011 C   0  0  0  0  0  0  0  0  0  0  0  0
  -30.3707   -0.8034   29.6891 C   0  0  0  0  0  0  0  0  0  0  0  0
  -23.4608    2.1939   27.6006 C   0  0  0  0  0  0  0  0  0  0  0  0
  -22.5628    2.0657   28.3707 F   0  0  0  0  0  0  0  0  0  0  0  0
  -23.7086    3.4986   27.4585 F   0  0  0  0  0  0  0  0  0  0  0  0
  -22.9854    1.7895   26.3532 F   0  0  0  0  0  0  0  0  0  0  0  0
  -31.4052   -0.8052   29.1332 O   0  0  0  0  0  0  0  0  0  0  0  0
  -30.2276   -1.5270   30.7987 O   0  0  0  0  0  0  0  0  0  0  0  0
  -28.9492    1.0152   30.1019 N   0  0  0  0  0  0  0  0  0  0  0  0
  -29.0546    2.3183   29.7125 C   0  0  0  0  0  0  0  0  0  0  0  0
  -29.7014    2.7378   28.6480 C   0  0  0  0  0  0  0  0  0  0  0  0
  -29.6278    4.1046   28.2968 C   0  0  0  0  0  0  0  0  0  0  0  0
  1  8  1  0
  8  9  1  0
  5 10  1  0
 10 11  1  0
 10 12  1  0
 10 13  1  0
  9 14  2  0
  9 15  1  0
  8 16  1  0
 16 17  1  0
 17 18  2  3
 18 19  1  0
  1  2  1  0
  2  3  2  0
  3  4  1  0
  4  5  2  0
  5  6  1  0
  6  7  2  0
  7  2  1  0
M  END

$$$$
