No_743-gen_results/8p0m/2024-11-26-14-13-15/
     RDKit          3D

 26 28  0  0  0  0  0  0  0  0999 V2000
  -28.0162   -0.8135   28.8779 C   0  0  0  0  0  0  0  0  0  0  0  0
  -27.0636   -0.1189   28.6079 C   0  0  0  0  0  0  0  0  0  0  0  0
  -25.7923   -0.4302   29.0761 C   0  0  0  0  0  0  0  0  0  0  0  0
  -24.5456    0.3494   28.8225 C   0  0  0  0  0  0  0  0  0  0  0  0
  -23.2409    0.0217   29.3323 C   0  0  0  0  0  0  0  0  0  0  0  0
  -27.8820   -1.8995   29.8633 C   0  0  0  0  0  0  0  0  0  0  0  0
  -26.6706   -2.3272   30.3212 C   0  0  0  0  0  0  0  0  0  0  0  0
  -25.5433   -1.5852   29.9316 C   0  0  0  0  0  0  0  0  0  0  0  0
  -22.1918    0.8302   29.0004 C   0  0  0  0  0  0  0  0  0  0  0  0
  -22.1472    1.7783   28.0287 C   0  0  0  0  0  0  0  0  0  0  0  0
  -24.5322    1.3987   27.8163 C   0  0  0  0  0  0  0  0  0  0  0  0
  -23.3620    2.0694   27.4607 C   0  0  0  0  0  0  0  0  0  0  0  0
  -29.0683   -2.7198   30.2979 C   0  0  0  0  0  0  0  0  0  0  0  0
  -29.0092   -3.9279   30.2794 O   0  0  0  0  0  0  0  0  0  0  0  0
  -30.2255   -2.1356   30.3547 O   0  0  0  0  0  0  0  0  0  0  0  0
  -23.6288    3.0793   26.5887 O   0  0  0  0  0  0  0  0  0  0  0  0
  -31.1410   -2.5116   31.1109 C   0  0  0  0  0  0  0  0  0  0  0  0
  -32.2538   -1.6309   31.2028 C   0  0  0  0  0  0  0  0  0  0  0  0
  -32.1770   -0.5652   30.7381 O   0  0  0  0  0  0  0  0  0  0  0  0
  -33.4192   -2.0433   31.7872 N   0  0  0  0  0  0  0  0  0  0  0  0
  -34.6037   -1.2029   31.8550 C   0  0  0  0  0  0  0  0  0  0  0  0
  -35.5748   -1.5196   32.2347 C   0  0  0  0  0  0  0  0  0  0  0  0
  -36.8093   -0.6518   32.2521 C   0  0  0  0  0  0  0  0  0  0  0  0
  -36.6407    0.6501   31.7126 C   0  0  0  0  0  0  0  0  0  0  0  0
  -35.3940    0.9937   31.2112 C   0  0  0  0  0  0  0  0  0  0  0  0
  -34.3449    0.1640   31.2510 C   0  0  0  0  0  0  0  0  0  0  0  0
  3  4  1  0
  6 13  1  0
 13 14  2  0
 13 15  1  0
 12 16  1  0
 15 17  1  0
 17 18  1  0
 18 19  2  0
 18 20  1  0
 20 21  1  0
  1  2  2  0
  2  3  1  0
  3  8  2  0
  8  7  1  0
  7  6  2  0
  6  1  1  0
  4  5  2  0
  5  9  1  0
  9 10  2  0
 10 12  1  0
 12 11  2  0
 11  4  1  0
 21 22  2  0
 22 23  1  0
 23 24  2  0
 24 25  1  0
 25 26  2  0
 26 21  1  0
M  END

$$$$
