No_739-gen_results/8p0m/2024-11-26-14-13-15/
     RDKit          3D

 16 18  0  0  0  0  0  0  0  0999 V2000
  -28.0162   -0.8135   28.8779 C   0  0  0  0  0  0  0  0  0  0  0  0
  -28.4690   -0.7850   29.8287 C   0  0  0  0  0  0  0  0  0  0  0  0
  -26.4397   -1.2211   28.7817 Cl  0  0  0  0  0  0  0  0  0  0  0  0
  -29.8965   -0.4651   29.9695 C   0  0  0  0  0  0  0  0  0  0  0  0
  -30.5364   -0.0853   28.7782 C   0  0  0  0  0  0  0  0  0  0  0  0
  -29.8040   -0.0361   27.6569 C   0  0  0  0  0  0  0  0  0  0  0  0
  -28.4971   -0.3404   27.6454 C   0  0  0  0  0  0  0  0  0  0  0  0
  -30.3653    0.3533   26.4519 O   0  0  0  0  0  0  0  0  0  0  0  0
  -31.9800    0.2969   28.7951 C   0  0  0  0  0  0  0  0  0  0  0  0
  -32.8076   -0.1384   29.5233 C   0  0  0  0  0  0  0  0  0  0  0  0
  -34.1846    0.3170   29.5310 C   0  0  0  0  0  0  0  0  0  0  0  0
  -34.5273    1.2204   28.5122 C   0  0  0  0  0  0  0  0  0  0  0  0
  -33.5903    1.6670   27.6326 C   0  0  0  0  0  0  0  0  0  0  0  0
  -32.2909    1.2851   27.7309 C   0  0  0  0  0  0  0  0  0  0  0  0
  -31.6176    0.8183   26.4356 C   0  0  0  0  0  0  0  0  0  0  0  0
  -32.1919    1.2165   24.9344 Cl  0  0  0  0  0  0  0  0  0  0  0  0
  1  3  1  0
  6  8  1  0
  5  9  1  0
  8 15  1  0
 14 15  1  0
 15 16  1  0
  9 10  2  0
 10 11  1  0
 11 12  2  0
 12 13  1  0
 13 14  2  0
 14  9  1  0
  1  2  2  0
  2  4  1  0
  4  5  2  0
  5  6  1  0
  6  7  2  0
  7  1  1  0
M  END

$$$$
