No_774-gen_results/8p0m/2024-11-26-14-13-15/
     RDKit          3D

 26 28  0  0  0  0  0  0  0  0999 V2000
  -28.0162   -0.8135   28.8779 C   0  0  0  0  0  0  0  0  0  0  0  0
  -28.4690   -0.7850   29.8287 C   0  0  0  0  0  0  0  0  0  0  0  0
  -26.5455   -0.8762   28.8500 C   0  0  0  0  0  0  0  0  0  0  0  0
  -25.8041   -1.0324   30.0571 C   0  0  0  0  0  0  0  0  0  0  0  0
  -30.0055   -0.7457   29.8978 C   0  0  0  0  0  0  0  0  0  0  0  0
  -26.5747   -1.0565   31.2005 C   0  0  0  0  0  0  0  0  0  0  0  0
  -27.9251   -0.9738   31.1683 C   0  0  0  0  0  0  0  0  0  0  0  0
  -30.7095   -1.5277   30.1699 O   0  0  0  0  0  0  0  0  0  0  0  0
  -30.4614    0.6115   29.8089 N   0  0  0  0  0  0  0  0  0  0  0  0
  -29.6898    1.7422   29.5850 C   0  0  0  0  0  0  0  0  0  0  0  0
  -30.4253    2.8102   29.3269 C   0  0  0  0  0  0  0  0  0  0  0  0
  -29.7651    4.1056   29.1457 C   0  0  0  0  0  0  0  0  0  0  0  0
  -28.3298    4.1479   29.1732 C   0  0  0  0  0  0  0  0  0  0  0  0
  -27.6252    2.9499   29.4104 C   0  0  0  0  0  0  0  0  0  0  0  0
  -28.3060    1.7568   29.6427 C   0  0  0  0  0  0  0  0  0  0  0  0
  -25.5441   -0.8026   27.4277 Cl  0  0  0  0  0  0  0  0  0  0  0  0
  -26.1403    3.0970   29.4615 C   0  0  0  0  0  0  0  0  0  0  0  0
  -25.4473    2.8972   28.6245 N   0  0  0  0  0  0  0  0  0  0  0  0
  -24.1378    2.5091   28.7422 C   0  0  0  0  0  0  0  0  0  0  0  0
  -25.7059    3.6433   30.6305 O   0  0  0  0  0  0  0  0  0  0  0  0
  -23.4164    2.3768   27.4615 C   0  0  0  0  0  0  0  0  0  0  0  0
  -25.8579    3.0694   27.2176 C   0  0  0  0  0  0  0  0  0  0  0  0
  -22.2172    1.7874   27.2944 C   0  0  0  0  0  0  0  0  0  0  0  0
  -24.2129    2.6758   26.2967 C   0  0  0  0  0  0  0  0  0  0  0  0
  -21.5862    1.9656   26.2625 F   0  0  0  0  0  0  0  0  0  0  0  0
  -21.7065    1.0627   28.2478 F   0  0  0  0  0  0  0  0  0  0  0  0
  2  5  1  0
  5  8  2  0
  5  9  1  0
  9 10  1  0
  3 16  1  0
 14 17  1  0
 17 18  1  0
 18 19  1  0
 17 20  2  0
 19 21  2  0
 18 22  1  0
 21 23  1  0
 21 24  1  0
 22 24  2  0
 23 25  1  0
 23 26  1  0
 10 11  2  0
 11 12  1  0
 12 13  2  0
 13 14  1  0
 14 15  2  0
 15 10  1  0
  1  2  2  0
  2  7  1  0
  7  6  2  0
  6  4  1  0
  4  3  2  0
  3  1  1  0
M  END

$$$$
