No_755-gen_results/8p0m/2024-11-26-14-13-15/
     RDKit          3D

 35 38  0  0  0  0  0  0  0  0999 V2000
  -28.0162   -0.8135   28.8779 C   0  0  0  0  0  0  0  0  0  0  0  0
  -27.0636   -0.1190   28.6079 C   0  0  0  0  0  0  0  0  0  0  0  0
  -26.9287    1.1713   29.0083 C   0  0  0  0  0  0  0  0  0  0  0  0
  -25.7702    2.0341   28.6884 C   0  0  0  0  0  0  0  0  0  0  0  0
  -24.7141    1.4431   27.9188 C   0  0  0  0  0  0  0  0  0  0  0  0
  -24.8590    0.0783   27.5836 C   0  0  0  0  0  0  0  0  0  0  0  0
  -25.9647   -0.6606   27.9164 C   0  0  0  0  0  0  0  0  0  0  0  0
  -27.9820   -1.6112   30.1028 N   0  0  0  0  0  0  0  0  0  0  0  0
  -23.5351    2.1704   27.5550 C   0  0  0  0  0  0  0  0  0  0  0  0
  -23.4187    3.0100   26.9973 O   0  0  0  0  0  0  0  0  0  0  0  0
  -22.3480    1.4860   27.9792 O   0  0  0  0  0  0  0  0  0  0  0  0
  -29.2108   -0.5893   28.5143 O   0  0  0  0  0  0  0  0  0  0  0  0
  -29.0414   -2.4963   30.5784 C   0  0  0  0  0  0  0  0  0  0  0  0
  -26.6877   -1.8940   30.7796 C   0  0  0  0  0  0  0  0  0  0  0  0
  -28.8643   -3.8433   30.2544 C   0  0  0  0  0  0  0  0  0  0  0  0
  -29.7648   -4.6894   30.4218 O   0  0  0  0  0  0  0  0  0  0  0  0
  -27.6885   -4.3391   29.8941 O   0  0  0  0  0  0  0  0  0  0  0  0
  -25.6486    3.4175   29.0645 C   0  0  0  0  0  0  0  0  0  0  0  0
  -25.4726    3.6590   30.3078 O   0  0  0  0  0  0  0  0  0  0  0  0
  -26.2112    4.3803   28.3270 N   0  0  0  0  0  0  0  0  0  0  0  0
  -26.7239    4.3113   27.0201 C   0  0  0  0  0  0  0  0  0  0  0  0
  -26.1503    5.8115   28.7899 C   0  0  0  0  0  0  0  0  0  0  0  0
  -26.5126    6.7025   28.0601 C   0  0  0  0  0  0  0  0  0  0  0  0
  -27.1482    6.5835   26.8353 C   0  0  0  0  0  0  0  0  0  0  0  0
  -27.2912    5.3131   26.3841 C   0  0  0  0  0  0  0  0  0  0  0  0
  -21.2141    1.6314   27.2780 C   0  0  0  0  0  0  0  0  0  0  0  0
  -30.9692   -4.3654   30.1550 C   0  0  0  0  0  0  0  0  0  0  0  0
  -31.6323   -5.3477   29.5014 C   0  0  0  0  0  0  0  0  0  0  0  0
  -32.4460   -5.0427   28.4982 C   0  0  0  0  0  0  0  0  0  0  0  0
  -32.9118   -3.6732   28.3206 C   0  0  0  0  0  0  0  0  0  0  0  0
  -32.2061   -2.7094   29.0082 C   0  0  0  0  0  0  0  0  0  0  0  0
  -31.2645   -3.0531   29.8432 C   0  0  0  0  0  0  0  0  0  0  0  0
  -30.4593   -2.0294   30.4013 O   0  0  0  0  0  0  0  0  0  0  0  0
  -33.2538   -6.0497   27.7265 C   0  0  0  0  0  0  0  0  0  0  0  0
  -33.2037   -7.1664   27.7526 N   0  0  0  0  0  0  0  0  0  0  0  0
  1  2  1  0
  1  8  1  0
  5  9  1  0
  9 10  2  0
  9 11  1  0
  1 12  2  0
  8 13  1  0
  8 14  1  0
 13 15  1  0
 15 16  1  0
 15 17  2  0
  4 18  1  0
 18 19  2  0
 18 20  1  0
 20 21  1  0
 20 22  1  0
 23 24  1  0
 11 26  1  0
 16 27  1  0
 13 33  1  0
 32 33  1  0
 29 34  1  0
 34 35  1  0
 21 25  1  0
 25 24  1  0
 23 22  1  0
  2  3  2  0
  3  4  1  0
  4  5  2  0
  5  6  1  0
  6  7  2  0
  7  2  1  0
 27 28  2  0
 28 29  1  0
 29 30  2  0
 30 31  1  0
 31 32  2  0
 32 27  1  0
M  END

$$$$
