No_789-gen_results/8p0m/2024-11-26-14-13-15/
     RDKit          3D

 33 36  0  0  0  0  0  0  0  0999 V2000
  -28.0162   -0.8135   28.8779 C   0  0  0  0  0  0  0  0  0  0  0  0
  -27.0636   -0.1190   28.6079 C   0  0  0  0  0  0  0  0  0  0  0  0
  -26.9716    0.7139   27.5060 C   0  0  0  0  0  0  0  0  0  0  0  0
  -28.1053    0.7744   26.6421 C   0  0  0  0  0  0  0  0  0  0  0  0
  -28.0677    1.4872   25.5121 C   0  0  0  0  0  0  0  0  0  0  0  0
  -29.2691   -0.5335   28.2245 C   0  0  0  0  0  0  0  0  0  0  0  0
  -29.2230    0.1355   27.0328 C   0  0  0  0  0  0  0  0  0  0  0  0
  -30.3265    0.1946   26.3497 F   0  0  0  0  0  0  0  0  0  0  0  0
  -28.0316   -1.6666   30.1669 C   0  0  0  0  0  0  0  0  0  0  0  0
  -27.0859   -2.4607   30.3530 O   0  0  0  0  0  0  0  0  0  0  0  0
  -29.0146   -1.6623   30.9998 N   0  0  0  0  0  0  0  0  0  0  0  0
  -29.2849   -2.3094   31.8144 C   0  0  0  0  0  0  0  0  0  0  0  0
  -30.6075   -2.4520   32.2473 C   0  0  0  0  0  0  0  0  0  0  0  0
  -31.3292   -1.4759   31.8002 C   0  0  0  0  0  0  0  0  0  0  0  0
  -30.3192   -0.8236   30.8145 C   0  0  0  0  0  0  0  0  0  0  0  0
  -32.6264   -1.0453   31.8556 C   0  0  0  0  0  0  0  0  0  0  0  0
  -33.3209   -1.5301   31.2710 F   0  0  0  0  0  0  0  0  0  0  0  0
  -32.6445    0.3656   31.5815 F   0  0  0  0  0  0  0  0  0  0  0  0
  -32.9040   -1.0093   33.1700 F   0  0  0  0  0  0  0  0  0  0  0  0
  -26.9029    1.9251   24.8785 C   0  0  0  0  0  0  0  0  0  0  0  0
  -29.2475    1.7220   24.6419 C   0  0  0  0  0  0  0  0  0  0  0  0
  -25.6673    1.8868   25.5819 C   0  0  0  0  0  0  0  0  0  0  0  0
  -24.4224    2.3660   25.2987 C   0  0  0  0  0  0  0  0  0  0  0  0
  -25.7300    1.2054   27.0185 C   0  0  0  0  0  0  0  0  0  0  0  0
  -23.7459    3.3929   26.1563 C   0  0  0  0  0  0  0  0  0  0  0  0
  -23.4052    1.1256   25.4304 C   0  0  0  0  0  0  0  0  0  0  0  0
  -25.8607   -0.2291   29.3075 O   0  0  0  0  0  0  0  0  0  0  0  0
  -25.5096    0.6872   30.2999 C   0  0  0  0  0  0  0  0  0  0  0  0
  -25.1118    0.2271   31.4856 C   0  0  0  0  0  0  0  0  0  0  0  0
  -25.4663    0.9536   32.6826 C   0  0  0  0  0  0  0  0  0  0  0  0
  -25.7057    2.3568   32.5770 C   0  0  0  0  0  0  0  0  0  0  0  0
  -25.7060    2.8069   31.5459 C   0  0  0  0  0  0  0  0  0  0  0  0
  -25.8136    2.0698   30.2310 C   0  0  0  0  0  0  0  0  0  0  0  0
  7  8  1  0
  1  9  1  0
  9 10  2  0
  9 11  1  0
 11 12  1  0
 12 13  2  0
 13 14  1  0
 11 15  1  0
 14 15  1  0
 14 16  1  0
 16 17  1  0
 16 18  1  0
 16 19  1  0
  5 21  1  0
 22 23  1  0
 23 25  1  0
 23 26  1  0
  2 27  1  0
 27 28  1  0
 28 29  2  0
 29 30  1  0
 30 31  2  0
 31 32  1  0
 32 33  2  0
 33 28  1  0
  4  5  2  0
  5 20  1  0
 20 22  2  0
 22 24  1  0
 24  3  2  0
  1  2  2  0
  2  3  1  0
  3  4  1  0
  4  7  1  0
  7  6  2  0
  6  1  1  0
M  END

$$$$
