No_784-gen_results/8p0m/2024-11-26-14-13-15/
     RDKit          3D

 25 26  0  0  0  0  0  0  0  0999 V2000
  -28.0162   -0.8135   28.8779 C   0  0  0  0  0  0  0  0  0  0  0  0
  -27.0636   -0.1189   28.6079 C   0  0  0  0  0  0  0  0  0  0  0  0
  -26.9287    1.1713   29.0083 C   0  0  0  0  0  0  0  0  0  0  0  0
  -25.7702    2.0341   28.6884 C   0  0  0  0  0  0  0  0  0  0  0  0
  -24.7141    1.4431   27.9188 C   0  0  0  0  0  0  0  0  0  0  0  0
  -24.8590    0.0783   27.5836 C   0  0  0  0  0  0  0  0  0  0  0  0
  -25.9647   -0.6606   27.9164 C   0  0  0  0  0  0  0  0  0  0  0  0
  -27.9821   -1.6367   30.0748 N   0  0  0  0  0  0  0  0  0  0  0  0
  -29.2163   -0.4132   28.6627 O   0  0  0  0  0  0  0  0  0  0  0  0
  -29.0156   -2.4825   30.5856 C   0  0  0  0  0  0  0  0  0  0  0  0
  -23.5339    2.1607   27.5674 C   0  0  0  0  0  0  0  0  0  0  0  0
  -23.3276    2.7167   26.7258 F   0  0  0  0  0  0  0  0  0  0  0  0
  -23.0256    2.8066   28.7271 F   0  0  0  0  0  0  0  0  0  0  0  0
  -26.6591   -2.0477   30.6317 C   0  0  0  0  0  0  0  0  0  0  0  0
  -29.3644   -2.1460   31.8800 C   0  0  0  0  0  0  0  0  0  0  0  0
  -29.0830   -0.9114   32.2773 C   0  0  0  0  0  0  0  0  0  0  0  0
  -29.5301    0.1231   31.8975 C   0  0  0  0  0  0  0  0  0  0  0  0
  -29.2688    1.4491   32.4716 C   0  0  0  0  0  0  0  0  0  0  0  0
  -28.4191    1.4949   33.5712 C   0  0  0  0  0  0  0  0  0  0  0  0
  -28.2255   -0.8345   33.6131 C   0  0  0  0  0  0  0  0  0  0  0  0
  -27.9196    0.3509   34.1599 C   0  0  0  0  0  0  0  0  0  0  0  0
  -22.4111    1.1265   27.6383 F   0  0  0  0  0  0  0  0  0  0  0  0
  -30.0193   -3.1752   32.6528 C   0  0  0  0  0  0  0  0  0  0  0  0
  -29.9858   -4.2715   32.5049 O   0  0  0  0  0  0  0  0  0  0  0  0
  -30.6281   -2.7380   33.7960 O   0  0  0  0  0  0  0  0  0  0  0  0
  1  2  1  0
  1  8  1  0
  1  9  2  0
  8 10  1  0
  5 11  1  0
 11 12  1  0
 11 13  1  0
  8 14  1  0
 10 15  1  0
 15 16  1  0
 11 22  1  0
 15 23  1  0
 23 24  2  0
 23 25  1  0
  2  3  2  0
  3  4  1  0
  4  5  2  0
  5  6  1  0
  6  7  2  0
  7  2  1  0
 16 17  2  0
 17 18  1  0
 18 19  2  0
 19 21  1  0
 21 20  2  0
 20 16  1  0
M  END

$$$$
