No_724-gen_results/8p0m/2024-11-26-14-13-15/
     RDKit          3D

 13 13  0  0  0  0  0  0  0  0999 V2000
  -28.0162   -0.8135   28.8779 C   0  0  0  0  0  0  0  0  0  0  0  0
  -28.4690   -0.7850   29.8287 C   0  0  0  0  0  0  0  0  0  0  0  0
  -26.5042   -0.7777   28.8766 C   0  0  0  0  0  0  0  0  0  0  0  0
  -25.8103   -0.8531   30.1028 C   0  0  0  0  0  0  0  0  0  0  0  0
  -27.9906   -0.8916   31.2257 C   0  0  0  0  0  0  0  0  0  0  0  0
  -26.6042   -0.8676   31.2652 C   0  0  0  0  0  0  0  0  0  0  0  0
  -24.3894   -0.8049   30.1638 C   0  0  0  0  0  0  0  0  0  0  0  0
  -23.6962   -1.3814   31.3181 Cl  0  0  0  0  0  0  0  0  0  0  0  0
  -23.5935   -0.2403   29.1179 C   0  0  0  0  0  0  0  0  0  0  0  0
  -22.2168   -0.2542   29.1703 C   0  0  0  0  0  0  0  0  0  0  0  0
  -21.4623    0.5407   28.2305 C   0  0  0  0  0  0  0  0  0  0  0  0
  -22.1641    1.3791   27.3462 C   0  0  0  0  0  0  0  0  0  0  0  0
  -23.5457    1.5079   27.4112 C   0  0  0  0  0  0  0  0  0  0  0  0
  4  7  1  0
  7  8  1  0
  7  9  1  0
  9 10  2  3
 10 11  1  0
 11 12  2  3
 12 13  1  0
  1  2  2  0
  2  5  1  0
  5  6  2  0
  6  4  1  0
  4  3  2  0
  3  1  1  0
M  END

$$$$
