No_725-gen_results/8p0m/2024-11-26-14-13-15/
     RDKit          3D

 35 38  0  0  0  0  0  0  0  0999 V2000
  -28.0162   -0.8135   28.8779 C   0  0  0  0  0  0  0  0  0  0  0  0
  -27.0636   -0.1190   28.6079 C   0  0  0  0  0  0  0  0  0  0  0  0
  -25.7923   -0.4302   29.0761 C   0  0  0  0  0  0  0  0  0  0  0  0
  -24.5456    0.3494   28.8225 C   0  0  0  0  0  0  0  0  0  0  0  0
  -24.6586    1.4196   27.8878 C   0  0  0  0  0  0  0  0  0  0  0  0
  -25.9471    1.6811   27.3792 C   0  0  0  0  0  0  0  0  0  0  0  0
  -27.0439    0.9739   27.6871 C   0  0  0  0  0  0  0  0  0  0  0  0
  -28.0485   -1.5981   30.1629 C   0  0  0  0  0  0  0  0  0  0  0  0
  -26.7598   -2.0713   30.6119 C   0  0  0  0  0  0  0  0  0  0  0  0
  -25.6104   -1.4023   30.1709 C   0  0  0  0  0  0  0  0  0  0  0  0
  -23.4418    2.1630   27.5308 C   0  0  0  0  0  0  0  0  0  0  0  0
  -22.3078    1.8281   27.9245 O   0  0  0  0  0  0  0  0  0  0  0  0
  -23.6106    3.1675   26.7056 O   0  0  0  0  0  0  0  0  0  0  0  0
  -28.3112    1.2875   26.9727 C   0  0  0  0  0  0  0  0  0  0  0  0
  -29.1108    1.9407   27.3940 O   0  0  0  0  0  0  0  0  0  0  0  0
  -28.3559    0.7056   25.7530 O   0  0  0  0  0  0  0  0  0  0  0  0
  -29.0847   -1.8899   30.6995 O   0  0  0  0  0  0  0  0  0  0  0  0
  -29.6446   -3.1533   30.5706 C   0  0  0  0  0  0  0  0  0  0  0  0
  -31.0018   -3.1382   30.1534 C   0  0  0  0  0  0  0  0  0  0  0  0
  -31.7908   -3.5415   30.9976 C   0  0  0  0  0  0  0  0  0  0  0  0
  -31.4506   -4.6590   31.9567 C   0  0  0  0  0  0  0  0  0  0  0  0
  -30.0670   -4.7361   32.3205 C   0  0  0  0  0  0  0  0  0  0  0  0
  -29.2252   -4.1316   31.5178 C   0  0  0  0  0  0  0  0  0  0  0  0
  -29.0598    1.3035   24.8046 C   0  0  0  0  0  0  0  0  0  0  0  0
  -29.8288    0.3206   24.0894 C   0  0  0  0  0  0  0  0  0  0  0  0
  -30.7090   -0.2897   25.0095 C   0  0  0  0  0  0  0  0  0  0  0  0
  -31.5285   -1.3981   24.4748 C   0  0  0  0  0  0  0  0  0  0  0  0
  -32.2548   -2.2235   25.3312 C   0  0  0  0  0  0  0  0  0  0  0  0
  -32.3725   -1.9327   26.6814 C   0  0  0  0  0  0  0  0  0  0  0  0
  -31.6302   -0.8206   27.1771 C   0  0  0  0  0  0  0  0  0  0  0  0
  -30.8385   -0.1131   26.3625 C   0  0  0  0  0  0  0  0  0  0  0  0
  -31.5254   -0.5473   28.4930 O   0  0  0  0  0  0  0  0  0  0  0  0
  -31.7508    0.7438   28.9269 C   0  0  0  0  0  0  0  0  0  0  0  0
  -32.8393    0.8524   29.8765 C   0  0  0  0  0  0  0  0  0  0  0  0
  -33.1466    2.0855   30.1525 C   0  0  0  0  0  0  0  0  0  0  0  0
  5 11  1  0
 11 12  2  0
 11 13  1  0
  7 14  1  0
 14 15  2  0
 14 16  1  0
  8 17  1  0
 17 18  1  0
 16 24  1  0
 24 25  1  0
 25 26  1  0
 30 32  1  0
 32 33  1  0
 33 34  1  0
 34 35  2  0
 18 19  2  0
 19 20  1  0
 20 21  2  0
 21 22  1  0
 22 23  2  0
 23 18  1  0
  3  4  1  0
  4  5  2  0
  5  6  1  0
  6  7  2  0
  7  2  1  0
  1  2  2  0
  2  3  1  0
  3 10  2  0
 10  9  1  0
  9  8  2  0
  8  1  1  0
 26 27  2  0
 27 28  1  0
 28 29  2  0
 29 30  1  0
 30 31  2  0
 31 26  1  0
M  END

$$$$
