No_716-gen_results/8p0m/2024-11-26-14-13-15/
     RDKit          3D

 22 23  0  0  0  0  0  0  0  0999 V2000
  -28.0162   -0.8135   28.8779 C   0  0  0  0  0  0  0  0  0  0  0  0
  -27.0636   -0.1190   28.6079 C   0  0  0  0  0  0  0  0  0  0  0  0
  -27.0010    0.6913   27.4910 C   0  0  0  0  0  0  0  0  0  0  0  0
  -28.1373    0.7363   26.6350 C   0  0  0  0  0  0  0  0  0  0  0  0
  -29.2360    0.0765   27.0690 C   0  0  0  0  0  0  0  0  0  0  0  0
  -29.2177   -0.6429   28.1747 C   0  0  0  0  0  0  0  0  0  0  0  0
  -28.0030   -1.6604   30.1266 C   0  0  0  0  0  0  0  0  0  0  0  0
  -28.6910   -1.7921   30.8886 O   0  0  0  0  0  0  0  0  0  0  0  0
  -26.8652   -2.5159   30.0807 O   0  0  0  0  0  0  0  0  0  0  0  0
  -30.4292    0.1677   26.1966 C   0  0  0  0  0  0  0  0  0  0  0  0
  -30.9978    1.0430   26.1780 F   0  0  0  0  0  0  0  0  0  0  0  0
  -31.2131   -0.9008   26.6725 F   0  0  0  0  0  0  0  0  0  0  0  0
  -30.1176   -0.3171   24.9318 F   0  0  0  0  0  0  0  0  0  0  0  0
  -25.7539    1.4290   27.0603 C   0  0  0  0  0  0  0  0  0  0  0  0
  -24.6083    1.0287   27.5387 C   0  0  0  0  0  0  0  0  0  0  0  0
  -23.4293    1.7982   27.4185 C   0  0  0  0  0  0  0  0  0  0  0  0
  -22.2280    1.5189   28.0475 C   0  0  0  0  0  0  0  0  0  0  0  0
  -22.1531    0.3598   28.8123 C   0  0  0  0  0  0  0  0  0  0  0  0
  -23.2516   -0.5356   28.9067 C   0  0  0  0  0  0  0  0  0  0  0  0
  -24.4154   -0.1547   28.3110 C   0  0  0  0  0  0  0  0  0  0  0  0
  -25.7263    1.5499   25.4999 C   0  0  0  0  0  0  0  0  0  0  0  0
  -26.0766    2.9555   27.6298 C   0  0  0  0  0  0  0  0  0  0  0  0
  1  7  1  0
  7  8  2  0
  7  9  1  0
  5 10  1  0
 10 11  1  0
 10 12  1  0
 10 13  1  0
  3 14  1  0
 14 15  1  0
 14 21  1  0
 14 22  1  0
 15 16  2  0
 16 17  1  0
 17 18  2  0
 18 19  1  0
 19 20  2  0
 20 15  1  0
  1  2  2  0
  2  3  1  0
  3  4  2  0
  4  5  1  0
  5  6  2  0
  6  1  1  0
M  END

$$$$
