No_701-gen_results/8p0m/2024-11-26-14-13-15/
     RDKit          3D

 26 29  0  0  0  0  0  0  0  0999 V2000
  -28.0162   -0.8135   28.8779 C   0  0  0  0  0  0  0  0  0  0  0  0
  -27.0636   -0.1190   28.6079 C   0  0  0  0  0  0  0  0  0  0  0  0
  -27.0010    0.6913   27.4910 C   0  0  0  0  0  0  0  0  0  0  0  0
  -25.8548    1.4825   27.0830 C   0  0  0  0  0  0  0  0  0  0  0  0
  -24.6901    1.4526   27.8807 C   0  0  0  0  0  0  0  0  0  0  0  0
  -24.7379    0.6010   29.0416 C   0  0  0  0  0  0  0  0  0  0  0  0
  -25.8234   -0.1688   29.3887 C   0  0  0  0  0  0  0  0  0  0  0  0
  -28.0376   -1.5350   30.2052 C   0  0  0  0  0  0  0  0  0  0  0  0
  -26.8472   -1.6620   30.9516 C   0  0  0  0  0  0  0  0  0  0  0  0
  -25.7455   -0.9236   30.5912 C   0  0  0  0  0  0  0  0  0  0  0  0
  -23.5005    2.2219   27.5437 C   0  0  0  0  0  0  0  0  0  0  0  0
  -23.5986    2.8563   26.5959 F   0  0  0  0  0  0  0  0  0  0  0  0
  -22.3779    1.9592   28.0540 F   0  0  0  0  0  0  0  0  0  0  0  0
  -28.9819   -2.3578   30.5880 F   0  0  0  0  0  0  0  0  0  0  0  0
  -28.1314    0.8013   26.5543 C   0  0  0  0  0  0  0  0  0  0  0  0
  -28.1539    0.5352   25.4111 O   0  0  0  0  0  0  0  0  0  0  0  0
  -29.2195    1.4893   27.0652 N   0  0  0  0  0  0  0  0  0  0  0  0
  -30.4432    1.6588   26.3362 C   0  0  0  0  0  0  0  0  0  0  0  0
  -31.3740    2.2347   27.0690 C   0  0  0  0  0  0  0  0  0  0  0  0
  -31.2573    2.5120   28.4044 C   0  0  0  0  0  0  0  0  0  0  0  0
  -30.0495    2.2693   29.1074 C   0  0  0  0  0  0  0  0  0  0  0  0
  -29.0491    1.7449   28.4869 C   0  0  0  0  0  0  0  0  0  0  0  0
  -29.9175    2.4106   30.5886 C   0  0  0  0  0  0  0  0  0  0  0  0
  -28.7019    2.2789   31.2171 C   0  0  0  0  0  0  0  0  0  0  0  0
  -27.5691    2.0711   30.3391 C   0  0  0  0  0  0  0  0  0  0  0  0
  -27.8190    1.8312   29.0717 C   0  0  0  0  0  0  0  0  0  0  0  0
  5 11  1  0
 11 12  1  0
 11 13  1  0
  8 14  1  0
  3 15  1  0
 15 16  2  0
 15 17  1  0
 17 18  1  0
 19 20  1  0
 17 22  1  0
 18 19  1  0
 20 21  1  0
  2  3  1  0
  3  4  2  0
  4  5  1  0
  5  6  2  0
  6  7  1  0
  1  2  2  0
  2  7  1  0
  7 10  2  0
 10  9  1  0
  9  8  2  0
  8  1  1  0
 21 22  2  0
 22 26  1  0
 26 25  2  0
 25 24  1  0
 24 23  2  0
 23 21  1  0
M  END

$$$$
