No_764-gen_results/8p0m/2024-11-26-14-13-15/
     RDKit          3D

 10 10  0  0  0  0  0  0  0  0999 V2000
  -28.0162   -0.8135   28.8779 C   0  0  0  0  0  0  0  0  0  0  0  0
  -27.0636   -0.1189   28.6079 C   0  0  0  0  0  0  0  0  0  0  0  0
  -26.8756    1.1325   28.9134 C   0  0  0  0  0  0  0  0  0  0  0  0
  -27.9014    1.8066   29.6436 C   0  0  0  0  0  0  0  0  0  0  0  0
  -29.0458   -0.2316   29.7181 C   0  0  0  0  0  0  0  0  0  0  0  0
  -28.9402    1.0517   30.0597 C   0  0  0  0  0  0  0  0  0  0  0  0
  -26.0208   -0.6774   27.8774 F   0  0  0  0  0  0  0  0  0  0  0  0
  -29.9120    1.5959   30.7993 F   0  0  0  0  0  0  0  0  0  0  0  0
  -25.4919    2.0780   28.3767 Cl  0  0  0  0  0  0  0  0  0  0  0  0
  -30.3455   -1.3070   30.2449 Cl  0  0  0  0  0  0  0  0  0  0  0  0
  2  7  1  0
  6  8  1  0
  3  9  1  0
  5 10  1  0
  1  2  2  0
  2  3  1  0
  3  4  2  0
  4  6  1  0
  6  5  2  0
  5  1  1  0
M  END

$$$$
