No_707-gen_results/8p0m/2024-11-26-14-13-15/
     RDKit          3D

 13 13  0  0  0  0  0  0  0  0999 V2000
  -28.0162   -0.8135   28.8779 C   0  0  0  0  0  0  0  0  0  0  0  0
  -28.4690   -0.7850   29.8287 C   0  0  0  0  0  0  0  0  0  0  0  0
  -26.5042   -0.7777   28.8766 C   0  0  0  0  0  0  0  0  0  0  0  0
  -25.8103   -0.8531   30.1028 C   0  0  0  0  0  0  0  0  0  0  0  0
  -27.9906   -0.8916   31.2257 C   0  0  0  0  0  0  0  0  0  0  0  0
  -26.6042   -0.8676   31.2652 C   0  0  0  0  0  0  0  0  0  0  0  0
  -24.4452   -0.9530   30.3506 C   0  0  0  0  0  0  0  0  0  0  0  0
  -23.8789   -0.6380   31.3091 N   0  0  0  0  0  0  0  0  0  0  0  0
  -23.6579   -1.3406   29.3260 O   0  0  0  0  0  0  0  0  0  0  0  0
  -22.3837   -0.6528   31.5632 C   0  0  0  0  0  0  0  0  0  0  0  0
  -30.0862   -0.8196   29.9851 C   0  0  0  0  0  0  0  0  0  0  0  0
  -30.6180   -1.8676   30.0791 O   0  0  0  0  0  0  0  0  0  0  0  0
  -30.7261    0.2631   29.7974 O   0  0  0  0  0  0  0  0  0  0  0  0
  4  7  1  0
  7  8  2  3
  7  9  1  0
  8 10  1  0
  2 11  1  0
 11 12  1  0
 11 13  2  0
  1  2  2  0
  2  5  1  0
  5  6  2  0
  6  4  1  0
  4  3  2  0
  3  1  1  0
M  END

$$$$
