No_734-gen_results/8p0m/2024-11-26-14-13-15/
     RDKit          3D

 15 16  0  0  0  0  0  0  0  0999 V2000
  -28.0162   -0.8135   28.8779 C   0  0  0  0  0  0  0  0  0  0  0  0
  -28.4690   -0.7850   29.8287 C   0  0  0  0  0  0  0  0  0  0  0  0
  -26.5455   -0.8762   28.8500 C   0  0  0  0  0  0  0  0  0  0  0  0
  -25.8974   -0.8267   29.8894 C   0  0  0  0  0  0  0  0  0  0  0  0
  -27.9129   -0.8385   31.1942 C   0  0  0  0  0  0  0  0  0  0  0  0
  -26.5519   -0.8324   31.1775 C   0  0  0  0  0  0  0  0  0  0  0  0
  -29.9716   -0.7904   29.9222 N   0  0  0  0  0  0  0  0  0  0  0  0
  -30.7264   -1.6293   30.4307 C   0  0  0  0  0  0  0  0  0  0  0  0
  -32.1099   -1.5531   30.2484 C   0  0  0  0  0  0  0  0  0  0  0  0
  -30.6083    0.2219   29.1853 C   0  0  0  0  0  0  0  0  0  0  0  0
  -31.9103    0.3188   28.9905 C   0  0  0  0  0  0  0  0  0  0  0  0
  -32.4433    1.3640   28.2076 C   0  0  0  0  0  0  0  0  0  0  0  0
  -32.6419   -0.6714   29.5986 C   0  0  0  0  0  0  0  0  0  0  0  0
  -33.5839    1.7173   28.1019 C   0  0  0  0  0  0  0  0  0  0  0  0
  -34.0820    2.7387   27.1993 C   0  0  0  0  0  0  0  0  0  0  0  0
  2  7  1  0
  7  8  1  0
  7 10  1  0
 11 12  1  0
  9 13  1  0
 11 13  1  0
 12 14  2  3
 14 15  1  0
  8  9  1  0
 11 10  1  0
  1  2  2  0
  2  5  1  0
  5  6  2  0
  6  4  1  0
  4  3  2  0
  3  1  1  0
M  END

$$$$
