No_771-gen_results/8p0m/2024-11-26-14-13-15/
     RDKit          3D

 35 38  0  0  0  0  0  0  0  0999 V2000
  -28.1229   -1.3353   28.4874 O   0  0  0  0  0  0  0  0  0  0  0  0
  -27.0637   -0.8242   28.8687 C   0  0  0  0  0  0  0  0  0  0  0  0
  -25.9773   -1.1378   28.8137 N   0  0  0  0  0  0  0  0  0  0  0  0
  -24.7669   -0.3464   29.1634 C   0  0  0  0  0  0  0  0  0  0  0  0
  -27.2179    0.4262   29.8414 C   0  0  0  0  0  0  0  0  0  0  0  0
  -24.9707    0.7239   29.9800 C   0  0  0  0  0  0  0  0  0  0  0  0
  -26.2112    1.1889   30.2071 C   0  0  0  0  0  0  0  0  0  0  0  0
  -23.5148   -0.8261   28.9381 N   0  0  0  0  0  0  0  0  0  0  0  0
  -22.4546   -0.1859   29.1448 C   0  0  0  0  0  0  0  0  0  0  0  0
  -21.2282   -0.6856   28.7467 C   0  0  0  0  0  0  0  0  0  0  0  0
  -22.4218    0.8173   29.9600 O   0  0  0  0  0  0  0  0  0  0  0  0
  -28.7186    0.7548   29.9951 C   0  0  0  0  0  0  0  0  0  0  0  0
  -29.3414    1.2540   29.3158 C   0  0  0  0  0  0  0  0  0  0  0  0
  -28.8649    1.8440   28.0054 C   0  0  0  0  0  0  0  0  0  0  0  0
  -27.9482    2.6963   28.0124 C   0  0  0  0  0  0  0  0  0  0  0  0
  -27.9788    3.7710   28.8388 C   0  0  0  0  0  0  0  0  0  0  0  0
  -27.2931    4.7252   28.7902 C   0  0  0  0  0  0  0  0  0  0  0  0
  -26.1300    4.8120   27.8327 C   0  0  0  0  0  0  0  0  0  0  0  0
  -26.0199    3.7393   26.9529 C   0  0  0  0  0  0  0  0  0  0  0  0
  -26.9216    2.7177   27.0030 C   0  0  0  0  0  0  0  0  0  0  0  0
  -29.4327    1.2823   26.7921 C   0  0  0  0  0  0  0  0  0  0  0  0
  -30.7134    0.8969   26.7431 C   0  0  0  0  0  0  0  0  0  0  0  0
  -31.1920    0.3301   25.5432 C   0  0  0  0  0  0  0  0  0  0  0  0
  -30.3237    0.1972   24.4328 C   0  0  0  0  0  0  0  0  0  0  0  0
  -28.9879    0.5933   24.5226 C   0  0  0  0  0  0  0  0  0  0  0  0
  -28.5259    1.1672   25.7034 C   0  0  0  0  0  0  0  0  0  0  0  0
  -27.2385    1.8959   25.7289 C   0  0  0  0  0  0  0  0  0  0  0  0
  -29.0899    0.3620   31.4508 C   0  0  0  0  0  0  0  0  0  0  0  0
  -30.2198    0.2787   31.7756 N   0  0  0  0  0  0  0  0  0  0  0  0
  -28.1610    0.1399   32.3200 O   0  0  0  0  0  0  0  0  0  0  0  0
  -30.7452   -0.1190   33.0942 C   0  0  0  0  0  0  0  0  0  0  0  0
  -32.5443   -0.2052   25.4489 C   0  0  0  0  0  0  0  0  0  0  0  0
  -32.8581   -0.5266   24.3931 F   0  0  0  0  0  0  0  0  0  0  0  0
  -33.3754    0.7477   25.9289 F   0  0  0  0  0  0  0  0  0  0  0  0
  -32.6281   -1.3074   26.2762 F   0  0  0  0  0  0  0  0  0  0  0  0
  1  2  2  0
  2  3  1  0
  3  4  1  0
  2  5  1  0
  4  6  1  0
  5  7  1  0
  6  7  1  0
  4  8  2  3
  8  9  1  0
  9 10  1  0
  9 11  2  0
  5 12  1  0
 12 13  2  3
 13 14  1  0
 14 15  1  0
 14 21  1  0
 20 27  1  0
 26 27  1  0
 12 28  1  0
 28 29  1  0
 28 30  2  0
 29 31  1  0
 23 32  1  0
 32 33  1  0
 32 34  1  0
 32 35  1  0
 15 16  2  0
 16 17  1  0
 17 18  2  0
 18 19  1  0
 19 20  2  0
 20 15  1  0
 21 22  2  0
 22 23  1  0
 23 24  2  0
 24 25  1  0
 25 26  2  0
 26 21  1  0
M  END

$$$$
