No_780-gen_results/8p0m/2024-11-26-14-13-15/
     RDKit          3D

 11 11  0  0  0  0  0  0  0  0999 V2000
  -28.1146   -0.6256   29.0813 Br  0  0  0  0  0  0  0  0  0  0  0  0
  -27.4917    0.8142   29.3550 C   0  0  0  0  0  0  0  0  0  0  0  0
  -26.7100    1.4117   28.9943 C   0  0  0  0  0  0  0  0  0  0  0  0
  -25.7523    1.7880   28.6749 C   0  0  0  0  0  0  0  0  0  0  0  0
  -24.5833    1.3776   27.8915 C   0  0  0  0  0  0  0  0  0  0  0  0
  -23.4964    2.1059   27.4890 C   0  0  0  0  0  0  0  0  0  0  0  0
  -22.3484    1.4442   27.1016 C   0  0  0  0  0  0  0  0  0  0  0  0
  -21.8426    0.6640   27.9527 C   0  0  0  0  0  0  0  0  0  0  0  0
  -22.6926   -0.2051   28.7765 C   0  0  0  0  0  0  0  0  0  0  0  0
  -24.0190    0.3345   28.8796 C   0  0  0  0  0  0  0  0  0  0  0  0
  -25.7956    3.4148   28.5496 C   0  0  0  0  0  0  0  0  0  0  0  0
  1  2  1  0
  2  3  2  3
  3  4  1  0
  4  5  1  0
  4 11  1  0
  5  6  2  0
  6  7  1  0
  7  8  2  0
  8  9  1  0
  9 10  2  0
 10  5  1  0
M  END

$$$$
