No_766-gen_results/8p0m/2024-11-26-14-13-15/
     RDKit          3D

 35 39  0  0  0  0  0  0  0  0999 V2000
  -28.0162   -0.8135   28.8779 C   0  0  0  0  0  0  0  0  0  0  0  0
  -27.0636   -0.1190   28.6079 C   0  0  0  0  0  0  0  0  0  0  0  0
  -25.7923   -0.4302   29.0761 C   0  0  0  0  0  0  0  0  0  0  0  0
  -24.5456    0.3494   28.8225 C   0  0  0  0  0  0  0  0  0  0  0  0
  -24.6586    1.4196   27.8878 C   0  0  0  0  0  0  0  0  0  0  0  0
  -25.9471    1.6811   27.3792 C   0  0  0  0  0  0  0  0  0  0  0  0
  -27.0439    0.9739   27.6871 C   0  0  0  0  0  0  0  0  0  0  0  0
  -29.1882   -0.1472   29.0918 N   0  0  0  0  0  0  0  0  0  0  0  0
  -29.6010    0.1627   30.3267 C   0  0  0  0  0  0  0  0  0  0  0  0
  -30.0469    0.0268   27.9837 C   0  0  0  0  0  0  0  0  0  0  0  0
  -23.4667    2.1669   27.6155 C   0  0  0  0  0  0  0  0  0  0  0  0
  -22.5016    1.8497   27.2208 N   0  0  0  0  0  0  0  0  0  0  0  0
  -23.7170    3.4892   27.6014 F   0  0  0  0  0  0  0  0  0  0  0  0
  -31.3991   -0.3067   28.1956 C   0  0  0  0  0  0  0  0  0  0  0  0
  -32.2157    0.1589   27.3562 C   0  0  0  0  0  0  0  0  0  0  0  0
  -33.6133   -0.1279   27.5303 C   0  0  0  0  0  0  0  0  0  0  0  0
  -34.0350   -0.8611   28.6516 C   0  0  0  0  0  0  0  0  0  0  0  0
  -33.0925   -1.3054   29.5204 C   0  0  0  0  0  0  0  0  0  0  0  0
  -31.7628   -1.0424   29.3704 C   0  0  0  0  0  0  0  0  0  0  0  0
  -30.9818   -0.2859   30.5947 C   0  0  0  0  0  0  0  0  0  0  0  0
  -29.5322    0.3153   26.9171 O   0  0  0  0  0  0  0  0  0  0  0  0
  -31.4465   -0.5900   31.9351 C   0  0  0  0  0  0  0  0  0  0  0  0
  -31.1195   -1.6212   32.6458 C   0  0  0  0  0  0  0  0  0  0  0  0
  -32.3079    0.4989   32.3556 C   0  0  0  0  0  0  0  0  0  0  0  0
  -32.8310    0.3738   33.6865 C   0  0  0  0  0  0  0  0  0  0  0  0
  -31.6224   -1.7168   33.9663 C   0  0  0  0  0  0  0  0  0  0  0  0
  -32.4619   -0.7001   34.4706 C   0  0  0  0  0  0  0  0  0  0  0  0
  -27.9194   -1.9469   29.4103 O   0  0  0  0  0  0  0  0  0  0  0  0
  -32.7014    1.6318   31.5585 C   0  0  0  0  0  0  0  0  0  0  0  0
  -32.5425    2.7857   31.8431 C   0  0  0  0  0  0  0  0  0  0  0  0
  -32.6700    3.8475   31.2023 C   0  0  0  0  0  0  0  0  0  0  0  0
  -33.2319    3.6919   29.8666 C   0  0  0  0  0  0  0  0  0  0  0  0
  -33.4560    2.4273   29.4074 C   0  0  0  0  0  0  0  0  0  0  0  0
  -33.1522    1.3671   30.2631 C   0  0  0  0  0  0  0  0  0  0  0  0
  -34.3756    1.0821   30.3728 N   0  0  0  0  0  0  0  0  0  0  0  0
  1  2  1  0
  1  8  1  0
  8  9  1  0
  8 10  1  0
  5 11  1  0
 11 12  2  0
 11 13  1  0
 10 14  1  0
  9 20  1  0
 19 20  1  0
 10 21  2  0
 20 22  1  0
  1 28  2  0
 24 29  1  0
 34 35  1  0
 22 23  2  0
 23 26  1  0
 26 27  2  0
 27 25  1  0
 25 24  2  0
 24 22  1  0
  2  3  2  0
  3  4  1  0
  4  5  2  0
  5  6  1  0
  6  7  2  0
  7  2  1  0
 14 15  2  0
 15 16  1  0
 16 17  2  0
 17 18  1  0
 18 19  2  0
 19 14  1  0
 29 30  2  0
 30 31  1  0
 31 32  2  0
 32 33  1  0
 33 34  2  0
 34 29  1  0
M  END

$$$$
