No_74-gen_results/8p0m/2024-11-26-14-13-15/
     RDKit          3D

 14 15  0  0  0  0  0  0  0  0999 V2000
  -28.0162   -0.8135   28.8779 C   0  0  0  0  0  0  0  0  0  0  0  0
  -27.0636   -0.1189   28.6079 C   0  0  0  0  0  0  0  0  0  0  0  0
  -27.0010    0.6913   27.4910 C   0  0  0  0  0  0  0  0  0  0  0  0
  -28.1373    0.7363   26.6350 C   0  0  0  0  0  0  0  0  0  0  0  0
  -28.1438    1.4323   25.4881 C   0  0  0  0  0  0  0  0  0  0  0  0
  -29.2801   -0.5524   28.2480 C   0  0  0  0  0  0  0  0  0  0  0  0
  -29.2552    0.0950   27.0446 C   0  0  0  0  0  0  0  0  0  0  0  0
  -28.2044    1.4987   24.4412 C   0  0  0  0  0  0  0  0  0  0  0  0
  -28.3936    2.5732   23.5551 C   0  0  0  0  0  0  0  0  0  0  0  0
  -28.2846    2.9095   25.8008 C   0  0  0  0  0  0  0  0  0  0  0  0
  -28.1836    3.5995   27.0290 C   0  0  0  0  0  0  0  0  0  0  0  0
  -28.3817    3.6354   24.5103 C   0  0  0  0  0  0  0  0  0  0  0  0
  -29.1751    4.5025   27.2054 C   0  0  0  0  0  0  0  0  0  0  0  0
  -29.1798    5.2188   28.4607 C   0  0  0  0  0  0  0  0  0  0  0  0
  4  5  1  0
  5  8  2  0
  8  9  1  0
  5 10  1  0
 10 11  1  0
  9 12  1  0
 10 12  1  0
 11 13  2  3
 13 14  1  0
  1  2  2  0
  2  3  1  0
  3  4  2  0
  4  7  1  0
  7  6  2  0
  6  1  1  0
M  END

$$$$
