No_758-gen_results/8p0m/2024-11-26-14-13-15/
     RDKit          3D

 15 15  0  0  0  0  0  0  0  0999 V2000
  -28.0162   -0.8135   28.8779 C   0  0  0  0  0  0  0  0  0  0  0  0
  -27.0636   -0.1189   28.6079 C   0  0  0  0  0  0  0  0  0  0  0  0
  -26.9716    0.7139   27.5060 C   0  0  0  0  0  0  0  0  0  0  0  0
  -28.1053    0.7744   26.6421 C   0  0  0  0  0  0  0  0  0  0  0  0
  -29.2041    0.1179   27.0477 C   0  0  0  0  0  0  0  0  0  0  0  0
  -29.2127   -0.6088   28.1281 C   0  0  0  0  0  0  0  0  0  0  0  0
  -30.3709    0.2326   26.1381 C   0  0  0  0  0  0  0  0  0  0  0  0
  -30.3086    0.1051   24.9412 O   0  0  0  0  0  0  0  0  0  0  0  0
  -31.5062    0.6703   26.6087 O   0  0  0  0  0  0  0  0  0  0  0  0
  -25.6643    1.4033   27.1243 C   0  0  0  0  0  0  0  0  0  0  0  0
  -24.5312    1.0373   27.7279 C   0  0  0  0  0  0  0  0  0  0  0  0
  -23.3051    1.8003   27.4012 C   0  0  0  0  0  0  0  0  0  0  0  0
  -22.0914    1.5753   28.0889 C   0  0  0  0  0  0  0  0  0  0  0  0
  -22.0143    0.5392   29.0174 C   0  0  0  0  0  0  0  0  0  0  0  0
  -23.1337   -0.2686   29.3315 C   0  0  0  0  0  0  0  0  0  0  0  0
  5  7  1  0
  7  8  2  0
  7  9  1  0
  3 10  1  0
 10 11  2  3
 11 12  1  0
 12 13  2  3
 13 14  1  0
 14 15  2  0
  1  2  2  0
  2  3  1  0
  3  4  2  0
  4  5  1  0
  5  6  2  0
  6  1  1  0
M  END

$$$$
