No_736-gen_results/8p0m/2024-11-26-14-13-15/
     RDKit          3D

 25 26  0  0  0  0  0  0  0  0999 V2000
  -28.0162   -0.8135   28.8779 C   0  0  0  0  0  0  0  0  0  0  0  0
  -27.0636   -0.1189   28.6079 C   0  0  0  0  0  0  0  0  0  0  0  0
  -25.7923   -0.4302   29.0761 C   0  0  0  0  0  0  0  0  0  0  0  0
  -25.5756   -1.5654   29.9363 C   0  0  0  0  0  0  0  0  0  0  0  0
  -26.7354   -2.3004   30.2173 C   0  0  0  0  0  0  0  0  0  0  0  0
  -27.9184   -1.9537   29.7629 C   0  0  0  0  0  0  0  0  0  0  0  0
  -27.1148    1.3528   27.5928 P   0  0  0  0  0  0  0  0  0  0  0  0
  -26.4547    1.0674   26.4861 O   0  0  0  0  0  0  0  0  0  0  0  0
  -26.3948    2.4638   28.3403 O   0  0  0  0  0  0  0  0  0  0  0  0
  -28.5635    1.7235   27.4555 O   0  0  0  0  0  0  0  0  0  0  0  0
  -29.0568   -2.7676   30.2165 C   0  0  0  0  0  0  0  0  0  0  0  0
  -30.1023   -2.4916   30.0983 O   0  0  0  0  0  0  0  0  0  0  0  0
  -28.7316   -3.9361   30.7837 O   0  0  0  0  0  0  0  0  0  0  0  0
  -26.5537    2.9035   29.4081 C   0  0  0  0  0  0  0  0  0  0  0  0
  -26.0600    4.2670   29.6272 C   0  0  0  0  0  0  0  0  0  0  0  0
  -25.8605    5.0606   28.5575 C   0  0  0  0  0  0  0  0  0  0  0  0
  -26.8282    5.0425   30.5971 O   0  0  0  0  0  0  0  0  0  0  0  0
  -25.6445    6.3266   28.6848 O   0  0  0  0  0  0  0  0  0  0  0  0
  -28.0498    4.9323   30.6751 C   0  0  0  0  0  0  0  0  0  0  0  0
  -28.9143    5.5820   30.3740 C   0  0  0  0  0  0  0  0  0  0  0  0
  -30.3371    5.3467   30.5500 C   0  0  0  0  0  0  0  0  0  0  0  0
  -30.6422    4.1162   31.1865 C   0  0  0  0  0  0  0  0  0  0  0  0
  -29.6789    3.2312   31.5505 C   0  0  0  0  0  0  0  0  0  0  0  0
  -28.3719    3.5709   31.3509 C   0  0  0  0  0  0  0  0  0  0  0  0
  -25.8628    4.6059   27.3199 F   0  0  0  0  0  0  0  0  0  0  0  0
  2  7  1  0
  7  8  2  0
  7  9  1  0
  7 10  1  0
  6 11  1  0
 11 12  2  0
 11 13  1  0
  9 14  1  0
 14 15  1  0
 15 16  1  0
 15 17  1  0
 16 18  2  0
 17 19  1  0
 16 25  1  0
  1  2  2  0
  2  3  1  0
  3  4  2  0
  4  5  1  0
  5  6  2  0
  6  1  1  0
 19 20  2  0
 20 21  1  0
 21 22  2  0
 22 23  1  0
 23 24  2  0
 24 19  1  0
M  END

$$$$
