No_714-gen_results/8p0m/2024-11-26-14-13-15/
     RDKit          3D

 28 32  0  0  0  0  0  0  0  0999 V2000
  -28.0162   -0.8135   28.8779 C   0  0  0  0  0  0  0  0  0  0  0  0
  -27.0636   -0.1189   28.6079 C   0  0  0  0  0  0  0  0  0  0  0  0
  -25.7647   -0.3897   29.0360 C   0  0  0  0  0  0  0  0  0  0  0  0
  -24.5516    0.4058   28.7646 C   0  0  0  0  0  0  0  0  0  0  0  0
  -23.2300    0.1178   29.2575 C   0  0  0  0  0  0  0  0  0  0  0  0
  -22.1393    0.9427   28.9224 C   0  0  0  0  0  0  0  0  0  0  0  0
  -27.8294   -1.9287   29.8545 C   0  0  0  0  0  0  0  0  0  0  0  0
  -26.5882   -2.3272   30.2682 C   0  0  0  0  0  0  0  0  0  0  0  0
  -25.4565   -1.5432   29.9146 C   0  0  0  0  0  0  0  0  0  0  0  0
  -22.2302    1.9089   27.8723 C   0  0  0  0  0  0  0  0  0  0  0  0
  -24.5538    1.4700   27.7617 C   0  0  0  0  0  0  0  0  0  0  0  0
  -23.4471    2.1666   27.3764 C   0  0  0  0  0  0  0  0  0  0  0  0
  -28.9783   -2.7708   30.2578 C   0  0  0  0  0  0  0  0  0  0  0  0
  -28.8311   -4.0718   30.4871 N   0  0  0  0  0  0  0  0  0  0  0  0
  -29.8732   -4.9593   30.3153 C   0  0  0  0  0  0  0  0  0  0  0  0
  -31.0370   -4.5797   30.8644 C   0  0  0  0  0  0  0  0  0  0  0  0
  -31.3563   -3.1564   30.7934 C   0  0  0  0  0  0  0  0  0  0  0  0
  -30.2717   -2.2437   30.5088 C   0  0  0  0  0  0  0  0  0  0  0  0
  -32.1572   -5.5611   30.9571 C   0  0  0  0  0  0  0  0  0  0  0  0
  -33.2477   -5.4269   31.0731 O   0  0  0  0  0  0  0  0  0  0  0  0
  -31.6688   -6.9171   30.9969 N   0  0  0  0  0  0  0  0  0  0  0  0
  -30.4060   -7.3582   31.0118 C   0  0  0  0  0  0  0  0  0  0  0  0
  -29.3944   -6.3378   30.8101 C   0  0  0  0  0  0  0  0  0  0  0  0
  -32.6822   -7.9813   31.2264 C   0  0  0  0  0  0  0  0  0  0  0  0
  -30.5059   -0.9563   30.4773 F   0  0  0  0  0  0  0  0  0  0  0  0
  -32.3137   -9.0877   30.7859 C   0  0  0  0  0  0  0  0  0  0  0  0
  -30.9565   -9.5879   30.9655 C   0  0  0  0  0  0  0  0  0  0  0  0
  -29.9567   -8.5888   30.7833 C   0  0  0  0  0  0  0  0  0  0  0  0
  3  4  1  0
  7 13  1  0
 16 19  1  0
 19 20  2  0
 19 21  1  0
 21 22  1  0
 15 23  1  0
 22 23  1  0
 21 24  1  0
 18 25  1  0
 24 26  1  0
 22 28  1  0
 27 28  1  0
 27 26  1  0
  1  2  2  0
  2  3  1  0
  3  9  2  0
  9  8  1  0
  8  7  2  0
  7  1  1  0
  4  5  2  0
  5  6  1  0
  6 10  2  0
 10 12  1  0
 12 11  2  0
 11  4  1  0
 13 14  2  0
 14 15  1  0
 15 16  2  0
 16 17  1  0
 17 18  2  0
 18 13  1  0
M  END

$$$$
