No_737-gen_results/8p0m/2024-11-26-14-13-15/
     RDKit          3D

 21 22  0  0  0  0  0  0  0  0999 V2000
  -28.0162   -0.8135   28.8779 C   0  0  0  0  0  0  0  0  0  0  0  0
  -28.4690   -0.7850   29.8287 C   0  0  0  0  0  0  0  0  0  0  0  0
  -27.1356    0.2359   28.5352 C   0  0  0  0  0  0  0  0  0  0  0  0
  -26.8745    1.2825   29.3982 C   0  0  0  0  0  0  0  0  0  0  0  0
  -28.3613    0.1987   30.9244 C   0  0  0  0  0  0  0  0  0  0  0  0
  -27.5277    1.2234   30.6356 C   0  0  0  0  0  0  0  0  0  0  0  0
  -26.2960    0.2786   27.0255 Cl  0  0  0  0  0  0  0  0  0  0  0  0
  -29.3326   -1.8813   30.2453 O   0  0  0  0  0  0  0  0  0  0  0  0
  -25.9764    2.4048   29.0740 C   0  0  0  0  0  0  0  0  0  0  0  0
  -26.1664    3.2213   28.0200 C   0  0  0  0  0  0  0  0  0  0  0  0
  -25.2079    4.2420   27.6960 C   0  0  0  0  0  0  0  0  0  0  0  0
  -24.8483    2.6628   29.9137 C   0  0  0  0  0  0  0  0  0  0  0  0
  -24.6996    1.5573   31.3129 Cl  0  0  0  0  0  0  0  0  0  0  0  0
  -24.1164    4.4429   28.2833 C   0  0  0  0  0  0  0  0  0  0  0  0
  -23.8880    3.5371   29.4914 C   0  0  0  0  0  0  0  0  0  0  0  0
  -28.8951   -3.1478   30.5673 C   0  0  0  0  0  0  0  0  0  0  0  0
  -27.6420   -3.3710   30.7155 C   0  0  0  0  0  0  0  0  0  0  0  0
  -29.9304   -4.0942   30.6449 C   0  0  0  0  0  0  0  0  0  0  0  0
  -26.6864   -2.5216   30.5557 O   0  0  0  0  0  0  0  0  0  0  0  0
  -29.5952   -5.3393   31.1368 C   0  0  0  0  0  0  0  0  0  0  0  0
  -28.2098   -5.5950   31.4000 C   0  0  0  0  0  0  0  0  0  0  0  0
  3  7  1  0
  2  8  1  0
  4  9  1  0
 12 13  1  0
  8 16  1  0
 16 17  2  0
 16 18  1  0
 17 19  2  0
 18 20  1  0
 20 21  1  0
  9 10  2  0
 10 11  1  0
 11 14  2  0
 14 15  1  0
 15 12  2  0
 12  9  1  0
  1  2  2  0
  2  5  1  0
  5  6  2  0
  6  4  1  0
  4  3  2  0
  3  1  1  0
M  END

$$$$
