No_763-gen_results/8p0m/2024-11-26-14-13-15/
     RDKit          3D

 32 34  0  0  0  0  0  0  0  0999 V2000
  -28.0162   -0.8135   28.8779 C   0  0  0  0  0  0  0  0  0  0  0  0
  -27.0636   -0.1189   28.6079 C   0  0  0  0  0  0  0  0  0  0  0  0
  -25.7647   -0.3897   29.0360 C   0  0  0  0  0  0  0  0  0  0  0  0
  -25.5296   -1.5302   29.9014 C   0  0  0  0  0  0  0  0  0  0  0  0
  -26.6888   -2.2893   30.1810 C   0  0  0  0  0  0  0  0  0  0  0  0
  -27.8727   -1.9508   29.7373 C   0  0  0  0  0  0  0  0  0  0  0  0
  -24.7078    0.5670   28.7015 C   0  0  0  0  0  0  0  0  0  0  0  0
  -23.4620    0.2939   29.1741 C   0  0  0  0  0  0  0  0  0  0  0  0
  -22.3635    1.1330   28.8239 C   0  0  0  0  0  0  0  0  0  0  0  0
  -22.5249    2.1143   27.8027 C   0  0  0  0  0  0  0  0  0  0  0  0
  -24.7770    1.4879   27.6943 C   0  0  0  0  0  0  0  0  0  0  0  0
  -23.7337    2.2549   27.2602 C   0  0  0  0  0  0  0  0  0  0  0  0
  -23.9341    3.2527   26.1902 C   0  0  0  0  0  0  0  0  0  0  0  0
  -29.2295   -2.9141   30.1894 Cl  0  0  0  0  0  0  0  0  0  0  0  0
  -25.1297    3.3107   25.7780 F   0  0  0  0  0  0  0  0  0  0  0  0
  -23.8085    4.6017   26.6729 F   0  0  0  0  0  0  0  0  0  0  0  0
  -23.0712    3.0942   25.1729 F   0  0  0  0  0  0  0  0  0  0  0  0
  -29.3076   -0.5742   28.4783 O   0  0  0  0  0  0  0  0  0  0  0  0
  -29.7171    0.7819   28.5014 C   0  0  0  0  0  0  0  0  0  0  0  0
  -29.9506    1.4003   29.5583 C   0  0  0  0  0  0  0  0  0  0  0  0
  -30.3305    2.7695   29.5854 C   0  0  0  0  0  0  0  0  0  0  0  0
  -30.6189    3.3918   28.3757 C   0  0  0  0  0  0  0  0  0  0  0  0
  -30.0837    1.4335   27.2330 C   0  0  0  0  0  0  0  0  0  0  0  0
  -30.4528    2.7170   27.2040 C   0  0  0  0  0  0  0  0  0  0  0  0
  -29.8420    0.7365   25.9443 C   0  0  0  0  0  0  0  0  0  0  0  0
  -30.5807   -0.0971   25.6157 F   0  0  0  0  0  0  0  0  0  0  0  0
  -28.4816    0.2105   25.9933 F   0  0  0  0  0  0  0  0  0  0  0  0
  -29.5857    1.5803   24.9586 F   0  0  0  0  0  0  0  0  0  0  0  0
  -31.1053    5.0519   28.3880 Cl  0  0  0  0  0  0  0  0  0  0  0  0
  -30.5886    3.4619   30.9207 C   0  0  0  0  0  0  0  0  0  0  0  0
  -30.1475    4.2624   31.4619 C   0  0  0  0  0  0  0  0  0  0  0  0
  -30.4577    4.7541   32.7708 C   0  0  0  0  0  0  0  0  0  0  0  0
  3  7  1  0
 12 13  1  0
  6 14  1  0
 13 15  1  0
 13 16  1  0
 13 17  1  0
  1 18  1  0
 18 19  1  0
 23 25  1  0
 25 26  1  0
 25 27  1  0
 25 28  1  0
 22 29  1  0
 21 30  1  0
 30 31  2  3
 31 32  1  0
  7  8  2  0
  8  9  1  0
  9 10  2  0
 10 12  1  0
 12 11  2  0
 11  7  1  0
  1  2  2  0
  2  3  1  0
  3  4  2  0
  4  5  1  0
  5  6  2  0
  6  1  1  0
 19 20  2  0
 20 21  1  0
 21 22  2  0
 22 24  1  0
 24 23  2  0
 23 19  1  0
M  END

$$$$
