No_722-gen_results/8p0m/2024-11-26-14-13-15/
     RDKit          3D

 27 30  0  0  0  0  0  0  0  0999 V2000
  -28.0162   -0.8135   28.8779 C   0  0  0  0  0  0  0  0  0  0  0  0
  -28.4690   -0.7850   29.8287 C   0  0  0  0  0  0  0  0  0  0  0  0
  -26.5455   -0.8762   28.8500 C   0  0  0  0  0  0  0  0  0  0  0  0
  -25.8041   -1.0324   30.0571 C   0  0  0  0  0  0  0  0  0  0  0  0
  -27.9437   -0.9869   31.2075 C   0  0  0  0  0  0  0  0  0  0  0  0
  -26.5825   -1.0386   31.2231 C   0  0  0  0  0  0  0  0  0  0  0  0
  -30.0606   -0.7371   29.9024 C   0  0  0  0  0  0  0  0  0  0  0  0
  -30.7252   -1.5544   30.2697 O   0  0  0  0  0  0  0  0  0  0  0  0
  -30.5245    0.5663   29.6971 N   0  0  0  0  0  0  0  0  0  0  0  0
  -31.9302    0.7636   29.6237 C   0  0  0  0  0  0  0  0  0  0  0  0
  -29.8595    1.2830   28.6086 C   0  0  0  0  0  0  0  0  0  0  0  0
  -29.2072    2.2735   28.8787 C   0  0  0  0  0  0  0  0  0  0  0  0
  -28.4474    3.0505   27.8361 C   0  0  0  0  0  0  0  0  0  0  0  0
  -28.4951    2.5715   26.5306 C   0  0  0  0  0  0  0  0  0  0  0  0
  -30.1388    0.9370   27.2927 C   0  0  0  0  0  0  0  0  0  0  0  0
  -29.3924    1.5196   26.2714 C   0  0  0  0  0  0  0  0  0  0  0  0
  -25.7031   -0.7240   27.6122 C   0  0  0  0  0  0  0  0  0  0  0  0
  -25.2413    0.6540   27.3297 C   0  0  0  0  0  0  0  0  0  0  0  0
  -24.8015    0.9648   26.0764 C   0  0  0  0  0  0  0  0  0  0  0  0
  -24.1381    2.1990   25.8176 C   0  0  0  0  0  0  0  0  0  0  0  0
  -23.9458    3.0372   26.9343 C   0  0  0  0  0  0  0  0  0  0  0  0
  -24.7682    1.6690   28.2605 C   0  0  0  0  0  0  0  0  0  0  0  0
  -24.2909    2.7863   28.1064 C   0  0  0  0  0  0  0  0  0  0  0  0
  -27.8028    3.2856   25.4917 C   0  0  0  0  0  0  0  0  0  0  0  0
  -29.5177    1.0563   24.8838 C   0  0  0  0  0  0  0  0  0  0  0  0
  -28.5883    1.4939   23.9342 C   0  0  0  0  0  0  0  0  0  0  0  0
  -27.8769    2.7260   24.1570 C   0  0  0  0  0  0  0  0  0  0  0  0
  2  7  1  0
  7  8  2  0
  7  9  1  0
  9 10  1  0
  9 11  1  0
  3 17  1  0
 17 18  1  0
 18 19  2  0
 19 20  1  0
 20 21  2  0
 21 23  1  0
 23 22  2  0
 22 18  1  0
 11 12  2  0
 12 13  1  0
 13 14  2  0
 16 15  2  0
 15 11  1  0
  1  2  2  0
  2  5  1  0
  5  6  2  0
  6  4  1  0
  4  3  2  0
  3  1  1  0
 14 16  1  0
 16 25  1  0
 25 26  2  0
 26 27  1  0
 27 24  2  0
 24 14  1  0
M  END

$$$$
