No_783-gen_results/8p0m/2024-11-26-14-13-15/
     RDKit          3D

 11 11  0  0  0  0  0  0  0  0999 V2000
  -28.0162   -0.8135   28.8779 C   0  0  0  0  0  0  0  0  0  0  0  0
  -27.0636   -0.1189   28.6079 C   0  0  0  0  0  0  0  0  0  0  0  0
  -26.9287    1.1713   29.0083 C   0  0  0  0  0  0  0  0  0  0  0  0
  -25.7702    2.0341   28.6884 C   0  0  0  0  0  0  0  0  0  0  0  0
  -24.7141    1.4431   27.9188 C   0  0  0  0  0  0  0  0  0  0  0  0
  -23.5566    2.1673   27.5933 C   0  0  0  0  0  0  0  0  0  0  0  0
  -29.0912   -0.2748   29.7317 C   0  0  0  0  0  0  0  0  0  0  0  0
  -29.0503    0.9872   30.1426 C   0  0  0  0  0  0  0  0  0  0  0  0
  -27.9501    1.7660   29.8118 C   0  0  0  0  0  0  0  0  0  0  0  0
  -24.9591    2.6142   29.7975 C   0  0  0  0  0  0  0  0  0  0  0  0
  -22.5564    1.5483   26.9838 C   0  0  0  0  0  0  0  0  0  0  0  0
  3  4  1  0
  4  5  2  3
  5  6  1  0
  4 10  1  0
  6 11  2  0
  1  2  2  0
  2  3  1  0
  3  9  2  0
  9  8  1  0
  8  7  2  0
  7  1  1  0
M  END

$$$$
