No_749-gen_results/8p0m/2024-11-26-14-13-15/
     RDKit          3D

 12 12  0  0  0  0  0  0  0  0999 V2000
  -28.1229   -1.3353   28.4874 O   0  0  0  0  0  0  0  0  0  0  0  0
  -28.5208   -0.4363   29.0779 C   0  0  0  0  0  0  0  0  0  0  0  0
  -28.5894    0.5916   28.9464 C   0  0  0  0  0  0  0  0  0  0  0  0
  -28.7865   -0.8872   30.4874 N   0  0  0  0  0  0  0  0  0  0  0  0
  -29.3324    1.6324   29.5095 C   0  0  0  0  0  0  0  0  0  0  0  0
  -27.9025    1.1652   27.6321 C   0  0  0  0  0  0  0  0  0  0  0  0
  -29.5000   -0.0122   31.3474 C   0  0  0  0  0  0  0  0  0  0  0  0
  -29.6599    1.2918   30.8822 C   0  0  0  0  0  0  0  0  0  0  0  0
  -28.4007    1.3132   26.5532 C   0  0  0  0  0  0  0  0  0  0  0  0
  -27.6704    1.6707   25.3466 C   0  0  0  0  0  0  0  0  0  0  0  0
  -26.2613    1.7684   25.3507 C   0  0  0  0  0  0  0  0  0  0  0  0
  -25.6384    1.5628   26.4536 C   0  0  0  0  0  0  0  0  0  0  0  0
  1  2  2  0
  2  3  1  0
  2  4  1  0
  3  5  1  0
  3  6  1  0
  5  8  1  0
  7  8  1  0
  6  9  2  3
  9 10  1  0
 10 11  2  3
 11 12  1  0
  7  4  1  0
M  END

$$$$
