No_732-gen_results/8p0m/2024-11-26-14-13-15/
     RDKit          3D

 22 23  0  0  0  0  0  0  0  0999 V2000
  -28.0162   -0.8135   28.8779 C   0  0  0  0  0  0  0  0  0  0  0  0
  -27.0636   -0.1190   28.6079 C   0  0  0  0  0  0  0  0  0  0  0  0
  -25.7923   -0.4302   29.0761 C   0  0  0  0  0  0  0  0  0  0  0  0
  -24.5456    0.3494   28.8225 C   0  0  0  0  0  0  0  0  0  0  0  0
  -24.6586    1.4196   27.8878 C   0  0  0  0  0  0  0  0  0  0  0  0
  -25.9471    1.6811   27.3792 C   0  0  0  0  0  0  0  0  0  0  0  0
  -27.0439    0.9739   27.6871 C   0  0  0  0  0  0  0  0  0  0  0  0
  -28.6597   -0.4600   30.2006 C   0  0  0  0  0  0  0  0  0  0  0  0
  -29.7498   -1.2486   30.6773 C   0  0  0  0  0  0  0  0  0  0  0  0
  -23.4472    2.1466   27.5918 C   0  0  0  0  0  0  0  0  0  0  0  0
  -22.5026    1.9925   28.1936 F   0  0  0  0  0  0  0  0  0  0  0  0
  -23.1407    1.8779   26.1801 F   0  0  0  0  0  0  0  0  0  0  0  0
  -23.8081    3.5082   27.5246 F   0  0  0  0  0  0  0  0  0  0  0  0
  -30.1866   -2.1728   29.8735 C   0  0  0  0  0  0  0  0  0  0  0  0
  -31.3161   -2.9446   30.4336 C   0  0  0  0  0  0  0  0  0  0  0  0
  -31.8134   -2.6869   31.5972 C   0  0  0  0  0  0  0  0  0  0  0  0
  -31.3377   -1.7031   32.4289 C   0  0  0  0  0  0  0  0  0  0  0  0
  -30.2676   -0.9451   31.9881 C   0  0  0  0  0  0  0  0  0  0  0  0
  -28.1212    0.6213   31.0383 C   0  0  0  0  0  0  0  0  0  0  0  0
  -27.2394    1.4905   30.6964 C   0  0  0  0  0  0  0  0  0  0  0  0
  -26.9685    2.4554   31.8180 C   0  0  0  0  0  0  0  0  0  0  0  0
  -25.9964    3.5749   31.6895 C   0  0  0  0  0  0  0  0  0  0  0  0
  1  2  1  0
  1  8  1  0
  8  9  1  0
  5 10  1  0
 10 11  1  0
 10 12  1  0
 10 13  1  0
  8 19  1  0
 19 20  1  0
 20 21  2  3
 21 22  1  0
  2  3  2  0
  3  4  1  0
  4  5  2  0
  5  6  1  0
  6  7  2  0
  7  2  1  0
  9 14  2  0
 14 15  1  0
 15 16  2  0
 16 17  1  0
 17 18  2  0
 18  9  1  0
M  END

$$$$
