No_712-gen_results/8p0m/2024-11-26-14-13-15/
     RDKit          3D

 25 28  0  0  0  0  0  0  0  0999 V2000
  -28.0162   -0.8135   28.8779 C   0  0  0  0  0  0  0  0  0  0  0  0
  -27.0636   -0.1189   28.6079 C   0  0  0  0  0  0  0  0  0  0  0  0
  -25.8176   -0.3427   29.0488 N   0  0  0  0  0  0  0  0  0  0  0  0
  -25.6067   -1.4414   29.8929 C   0  0  0  0  0  0  0  0  0  0  0  0
  -26.6760   -2.2193   30.2363 C   0  0  0  0  0  0  0  0  0  0  0  0
  -27.8635   -1.9317   29.7671 C   0  0  0  0  0  0  0  0  0  0  0  0
  -27.1286    1.0356   27.8135 N   0  0  0  0  0  0  0  0  0  0  0  0
  -26.1342    1.9036   27.7281 C   0  0  0  0  0  0  0  0  0  0  0  0
  -25.9502    2.9937   27.8825 C   0  0  0  0  0  0  0  0  0  0  0  0
  -24.7699    3.8628   27.6310 C   0  0  0  0  0  0  0  0  0  0  0  0
  -23.6799    3.1502   27.1430 C   0  0  0  0  0  0  0  0  0  0  0  0
  -24.8141    1.3638   27.0327 C   0  0  0  0  0  0  0  0  0  0  0  0
  -23.7525    1.9521   26.7982 C   0  0  0  0  0  0  0  0  0  0  0  0
  -28.3188    1.3325   27.1010 C   0  0  0  0  0  0  0  0  0  0  0  0
  -28.4086    2.2793   26.1597 C   0  0  0  0  0  0  0  0  0  0  0  0
  -29.5798    2.5354   25.4510 C   0  0  0  0  0  0  0  0  0  0  0  0
  -30.6889    1.7810   25.7001 C   0  0  0  0  0  0  0  0  0  0  0  0
  -30.5932    0.8043   26.6616 C   0  0  0  0  0  0  0  0  0  0  0  0
  -29.4840    0.5986   27.3522 C   0  0  0  0  0  0  0  0  0  0  0  0
  -29.3512   -0.5018   28.3203 C   0  0  0  0  0  0  0  0  0  0  0  0
  -29.0619   -2.7771   30.1777 C   0  0  0  0  0  0  0  0  0  0  0  0
  -28.9168   -3.9691   29.9153 F   0  0  0  0  0  0  0  0  0  0  0  0
  -29.2477   -2.5295   31.5257 F   0  0  0  0  0  0  0  0  0  0  0  0
  -30.2209   -2.4531   29.6667 F   0  0  0  0  0  0  0  0  0  0  0  0
  -24.3945   -1.6826   30.3113 F   0  0  0  0  0  0  0  0  0  0  0  0
  2  7  1  0
  7  8  1  0
  7 14  1  0
  1 20  1  0
 19 20  1  0
  6 21  1  0
 21 22  1  0
 21 23  1  0
 21 24  1  0
  4 25  1  0
  1  2  1  0
  2  3  2  0
  3  4  1  0
  4  5  2  0
  5  6  1  0
  6  1  2  0
 14 15  2  0
 15 16  1  0
 16 17  2  0
 17 18  1  0
 18 19  2  0
 19 14  1  0
  8  9  2  0
  9 10  1  0
 10 11  2  0
 11 13  1  0
 13 12  2  0
 12  8  1  0
M  END

$$$$
