No_797-gen_results/8p0m/2024-11-26-14-13-15/
     RDKit          3D

 15 17  0  0  0  0  0  0  0  0999 V2000
  -28.0162   -0.8135   28.8779 C   0  0  0  0  0  0  0  0  0  0  0  0
  -28.4690   -0.7850   29.8287 C   0  0  0  0  0  0  0  0  0  0  0  0
  -26.5455   -0.8762   28.8500 C   0  0  0  0  0  0  0  0  0  0  0  0
  -25.8041   -1.0324   30.0571 C   0  0  0  0  0  0  0  0  0  0  0  0
  -27.9437   -0.9869   31.2075 C   0  0  0  0  0  0  0  0  0  0  0  0
  -26.5825   -1.0386   31.2231 C   0  0  0  0  0  0  0  0  0  0  0  0
  -29.9648   -0.7353   29.8902 N   0  0  0  0  0  0  0  0  0  0  0  0
  -30.6477    0.3169   30.2682 C   0  0  0  0  0  0  0  0  0  0  0  0
  -30.0738    1.3599   30.4675 C   0  0  0  0  0  0  0  0  0  0  0  0
  -30.2224    2.4870   30.5412 C   0  0  0  0  0  0  0  0  0  0  0  0
  -29.3890    3.6757   30.9081 C   0  0  0  0  0  0  0  0  0  0  0  0
  -28.0185    3.3527   31.1032 C   0  0  0  0  0  0  0  0  0  0  0  0
  -27.6456    2.0339   31.0054 C   0  0  0  0  0  0  0  0  0  0  0  0
  -28.5178    1.1030   30.7472 C   0  0  0  0  0  0  0  0  0  0  0  0
  -28.1002    0.0086   31.1306 N   0  0  0  0  0  0  0  0  0  0  0  0
  2  7  1  0
  7  8  1  0
  8  9  1  0
  5 15  1  0
 14 15  1  0
  9 10  2  0
 10 11  1  0
 11 12  2  0
 12 13  1  0
 13 14  2  0
 14  9  1  0
  1  2  2  0
  2  5  1  0
  5  6  2  0
  6  4  1  0
  4  3  2  0
  3  1  1  0
M  END

$$$$
