No_75-gen_results/8p0m/2024-11-26-14-13-15/
     RDKit          3D

 27 28  0  0  0  0  0  0  0  0999 V2000
  -28.0162   -0.8135   28.8779 C   0  0  0  0  0  0  0  0  0  0  0  0
  -27.0636   -0.1189   28.6079 C   0  0  0  0  0  0  0  0  0  0  0  0
  -26.9716    0.7139   27.5060 C   0  0  0  0  0  0  0  0  0  0  0  0
  -28.1053    0.7744   26.6421 C   0  0  0  0  0  0  0  0  0  0  0  0
  -29.2008    0.1044   27.0527 C   0  0  0  0  0  0  0  0  0  0  0  0
  -29.2096   -0.6029   28.1853 C   0  0  0  0  0  0  0  0  0  0  0  0
  -30.4815    0.1441   26.3452 C   0  0  0  0  0  0  0  0  0  0  0  0
  -31.2620    1.1482   26.5381 N   0  0  0  0  0  0  0  0  0  0  0  0
  -30.6726   -0.5359   25.3365 O   0  0  0  0  0  0  0  0  0  0  0  0
  -32.4949    1.3555   25.8199 C   0  0  0  0  0  0  0  0  0  0  0  0
  -28.0157   -1.7915   30.3413 Cl  0  0  0  0  0  0  0  0  0  0  0  0
  -31.0604    2.1072   27.6636 C   0  0  0  0  0  0  0  0  0  0  0  0
  -25.5017   -0.2376   29.5795 Cl  0  0  0  0  0  0  0  0  0  0  0  0
  -25.6659    1.4402   27.1078 C   0  0  0  0  0  0  0  0  0  0  0  0
  -25.6159    2.7286   27.5247 C   0  0  0  0  0  0  0  0  0  0  0  0
  -25.7070    3.1836   28.5298 F   0  0  0  0  0  0  0  0  0  0  0  0
  -26.4937    3.4834   26.5990 F   0  0  0  0  0  0  0  0  0  0  0  0
  -24.3862    3.2314   26.8583 F   0  0  0  0  0  0  0  0  0  0  0  0
  -30.8374    3.1274   27.7380 C   0  0  0  0  0  0  0  0  0  0  0  0
  -30.5682    4.0449   28.3404 C   0  0  0  0  0  0  0  0  0  0  0  0
  -30.3998    3.7100   29.7808 C   0  0  0  0  0  0  0  0  0  0  0  0
  -30.6269    2.3646   30.0781 C   0  0  0  0  0  0  0  0  0  0  0  0
  -30.8762    1.4739   29.0347 C   0  0  0  0  0  0  0  0  0  0  0  0
  -30.4590    1.9076   31.5178 C   0  0  0  0  0  0  0  0  0  0  0  0
  -31.1873    0.9768   31.9073 F   0  0  0  0  0  0  0  0  0  0  0  0
  -29.1314    1.5001   31.6807 F   0  0  0  0  0  0  0  0  0  0  0  0
  -30.6134    2.9416   32.3416 F   0  0  0  0  0  0  0  0  0  0  0  0
  5  7  1  0
  7  8  1  0
  7  9  2  0
  8 10  1  0
  1 11  1  0
  8 12  1  0
  2 13  1  0
  3 14  1  0
 14 15  1  0
 15 16  1  0
 15 17  1  0
 15 18  1  0
 22 24  1  0
 24 25  1  0
 24 26  1  0
 24 27  1  0
  1  2  2  0
  2  3  1  0
  3  4  2  0
  4  5  1  0
  5  6  2  0
  6  1  1  0
 12 19  2  0
 19 20  1  0
 20 21  2  0
 21 22  1  0
 22 23  2  0
 23 12  1  0
M  END

$$$$
