No_769-gen_results/8p0m/2024-11-26-14-13-15/
     RDKit          3D

 15 16  0  0  0  0  0  0  0  0999 V2000
  -28.0162   -0.8135   28.8779 C   0  0  0  0  0  0  0  0  0  0  0  0
  -28.4690   -0.7850   29.8287 C   0  0  0  0  0  0  0  0  0  0  0  0
  -28.1816    0.4277   28.1134 C   0  0  0  0  0  0  0  0  0  0  0  0
  -28.9841    1.4155   28.5154 C   0  0  0  0  0  0  0  0  0  0  0  0
  -29.3802    0.1384   30.4612 C   0  0  0  0  0  0  0  0  0  0  0  0
  -29.5415    1.2736   29.7242 C   0  0  0  0  0  0  0  0  0  0  0  0
  -27.4586    0.4934   26.7701 C   0  0  0  0  0  0  0  0  0  0  0  0
  -26.0264    0.3840   26.7617 C   0  0  0  0  0  0  0  0  0  0  0  0
  -25.3148    0.0488   27.8701 C   0  0  0  0  0  0  0  0  0  0  0  0
  -23.8815    0.0557   27.8329 C   0  0  0  0  0  0  0  0  0  0  0  0
  -23.1356   -0.3718   28.9998 C   0  0  0  0  0  0  0  0  0  0  0  0
  -23.7631   -1.2025   29.9247 C   0  0  0  0  0  0  0  0  0  0  0  0
  -25.1381   -1.2783   29.9218 C   0  0  0  0  0  0  0  0  0  0  0  0
  -25.8775   -0.7621   28.9408 C   0  0  0  0  0  0  0  0  0  0  0  0
  -25.9314   -1.8776   28.4513 F   0  0  0  0  0  0  0  0  0  0  0  0
  3  7  1  0
  7  8  1  0
 14 15  1  0
  8  9  1  0
  9 10  2  0
 10 11  1  0
 11 12  2  0
 12 13  1  0
 13 14  2  0
 14  9  1  0
  1  2  2  0
  2  5  1  0
  5  6  2  0
  6  4  1  0
  4  3  2  0
  3  1  1  0
M  END

$$$$
