No_717-gen_results/8p0m/2024-11-26-14-13-15/
     RDKit          3D

 12 12  0  0  0  0  0  0  0  0999 V2000
  -28.0544   -1.0498   28.7246 N   0  0  0  0  0  0  0  0  0  0  0  0
  -28.6544   -0.5669   29.5076 C   0  0  0  0  0  0  0  0  0  0  0  0
  -26.6945   -1.3221   29.0236 C   0  0  0  0  0  0  0  0  0  0  0  0
  -25.6511   -1.1026   28.1645 C   0  0  0  0  0  0  0  0  0  0  0  0
  -24.3024   -1.2889   28.6149 C   0  0  0  0  0  0  0  0  0  0  0  0
  -30.0422   -0.1231   29.2027 C   0  0  0  0  0  0  0  0  0  0  0  0
  -24.0658   -1.7702   29.8602 C   0  0  0  0  0  0  0  0  0  0  0  0
  -25.9541   -1.7991   30.2967 C   0  0  0  0  0  0  0  0  0  0  0  0
  -30.1603    0.3480   28.1767 O   0  0  0  0  0  0  0  0  0  0  0  0
  -31.0684   -0.3488   30.0945 N   0  0  0  0  0  0  0  0  0  0  0  0
  -28.5733   -0.9715   30.8863 O   0  0  0  0  0  0  0  0  0  0  0  0
  -31.0563   -0.8446   31.3245 C   0  0  0  0  0  0  0  0  0  0  0  0
  1  2  1  0
  1  3  1  0
  3  4  1  0
  4  5  2  0
  2  6  1  0
  5  7  1  0
  3  8  1  0
  7  8  2  0
  6  9  2  0
  6 10  1  0
  2 11  2  0
 10 12  1  0
M  END

$$$$
