No_744-gen_results/8p0m/2024-11-26-14-13-15/
     RDKit          3D

 12 13  0  0  0  0  0  0  0  0999 V2000
  -28.1229   -1.3353   28.4874 O   0  0  0  0  0  0  0  0  0  0  0  0
  -27.4806   -0.4044   28.7094 C   0  0  0  0  0  0  0  0  0  0  0  0
  -26.3804   -0.0867   27.9394 C   0  0  0  0  0  0  0  0  0  0  0  0
  -27.4232    0.1749   30.0549 N   0  0  0  0  0  0  0  0  0  0  0  0
  -25.8482    1.0048   27.9942 C   0  0  0  0  0  0  0  0  0  0  0  0
  -25.8487    1.7377   29.2952 C   0  0  0  0  0  0  0  0  0  0  0  0
  -26.7619    1.3299   30.2362 C   0  0  0  0  0  0  0  0  0  0  0  0
  -24.7793    1.5541   27.0752 C   0  0  0  0  0  0  0  0  0  0  0  0
  -23.9996    2.5382   27.2826 C   0  0  0  0  0  0  0  0  0  0  0  0
  -24.2163    3.2768   28.5125 C   0  0  0  0  0  0  0  0  0  0  0  0
  -25.0261    2.9187   29.4545 C   0  0  0  0  0  0  0  0  0  0  0  0
  -28.1044   -0.6268   30.9950 C   0  0  0  0  0  0  0  0  0  0  0  0
  1  2  2  0
  2  3  1  0
  2  4  1  0
  4  7  1  0
  4 12  1  0
  3  5  1  0
  6  7  1  0
  5  6  2  0
  6 11  1  0
 11 10  2  0
 10  9  1  0
  9  8  2  0
  8  5  1  0
M  END

$$$$
