No_775-gen_results/8p0m/2024-11-26-14-13-15/
     RDKit          3D

 24 26  0  0  0  0  0  0  0  0999 V2000
  -28.0162   -0.8135   28.8779 C   0  0  0  0  0  0  0  0  0  0  0  0
  -27.0636   -0.1190   28.6079 C   0  0  0  0  0  0  0  0  0  0  0  0
  -25.7923   -0.4302   29.0761 C   0  0  0  0  0  0  0  0  0  0  0  0
  -25.5756   -1.5654   29.9363 C   0  0  0  0  0  0  0  0  0  0  0  0
  -26.7354   -2.3004   30.2173 C   0  0  0  0  0  0  0  0  0  0  0  0
  -27.9184   -1.9537   29.7629 C   0  0  0  0  0  0  0  0  0  0  0  0
  -29.0732   -2.7835   30.1783 C   0  0  0  0  0  0  0  0  0  0  0  0
  -29.3220   -2.7952   31.3885 O   0  0  0  0  0  0  0  0  0  0  0  0
  -29.3381   -3.8869   29.5126 O   0  0  0  0  0  0  0  0  0  0  0  0
  -27.0897    1.1082   27.7484 C   0  0  0  0  0  0  0  0  0  0  0  0
  -26.7388    2.1021   27.7212 C   0  0  0  0  0  0  0  0  0  0  0  0
  -26.8034    3.1648   26.7119 C   0  0  0  0  0  0  0  0  0  0  0  0
  -27.5435    2.8565   25.5752 C   0  0  0  0  0  0  0  0  0  0  0  0
  -28.0832    1.6461   25.4830 C   0  0  0  0  0  0  0  0  0  0  0  0
  -27.9304    0.6678   26.4471 C   0  0  0  0  0  0  0  0  0  0  0  0
  -28.8378    1.2746   24.2710 C   0  0  0  0  0  0  0  0  0  0  0  0
  -29.9549    1.9715   24.0415 C   0  0  0  0  0  0  0  0  0  0  0  0
  -31.0727    1.5451   23.3075 C   0  0  0  0  0  0  0  0  0  0  0  0
  -32.1182    2.4458   22.9837 C   0  0  0  0  0  0  0  0  0  0  0  0
  -32.1495    3.7624   23.5031 C   0  0  0  0  0  0  0  0  0  0  0  0
  -31.1158    4.1659   24.3273 C   0  0  0  0  0  0  0  0  0  0  0  0
  -30.0508    3.4125   24.5867 C   0  0  0  0  0  0  0  0  0  0  0  0
  -28.5199    0.1799   23.6235 N   0  0  0  0  0  0  0  0  0  0  0  0
  -33.5271    4.7007   23.1663 Cl  0  0  0  0  0  0  0  0  0  0  0  0
  6  7  1  0
  7  8  2  0
  7  9  1  0
  2 10  1  0
 14 16  1  0
 16 17  1  0
 16 23  2  0
 20 24  1  0
 17 18  2  0
 18 19  1  0
 19 20  2  0
 20 21  1  0
 21 22  2  0
 22 17  1  0
  1  2  2  0
  2  3  1  0
  3  4  2  0
  4  5  1  0
  5  6  2  0
  6  1  1  0
 10 11  2  0
 11 12  1  0
 12 13  2  0
 13 14  1  0
 14 15  2  0
 15 10  1  0
M  END

$$$$
