No_713-gen_results/8p0m/2024-11-26-14-13-15/
     RDKit          3D

 35 39  0  0  0  0  0  0  0  0999 V2000
  -28.0162   -0.8135   28.8779 C   0  0  0  0  0  0  0  0  0  0  0  0
  -27.0636   -0.1189   28.6079 C   0  0  0  0  0  0  0  0  0  0  0  0
  -26.9287    1.1713   29.0083 C   0  0  0  0  0  0  0  0  0  0  0  0
  -25.7702    2.0341   28.6884 C   0  0  0  0  0  0  0  0  0  0  0  0
  -24.7141    1.4431   27.9188 C   0  0  0  0  0  0  0  0  0  0  0  0
  -24.8590    0.0783   27.5836 C   0  0  0  0  0  0  0  0  0  0  0  0
  -25.9647   -0.6606   27.9164 C   0  0  0  0  0  0  0  0  0  0  0  0
  -28.6510   -0.6086   30.2543 C   0  0  0  0  0  0  0  0  0  0  0  0
  -29.6513   -1.3216   30.5931 C   0  0  0  0  0  0  0  0  0  0  0  0
  -30.1116   -2.2865   29.9212 C   0  0  0  0  0  0  0  0  0  0  0  0
  -31.2447   -3.0583   30.4732 C   0  0  0  0  0  0  0  0  0  0  0  0
  -31.8013   -2.6893   31.6257 C   0  0  0  0  0  0  0  0  0  0  0  0
  -31.3455   -1.6663   32.3820 C   0  0  0  0  0  0  0  0  0  0  0  0
  -30.2577   -0.9277   31.9252 C   0  0  0  0  0  0  0  0  0  0  0  0
  -28.7147    0.8963   30.5131 C   0  0  0  0  0  0  0  0  0  0  0  0
  -27.4813    1.6796   30.2187 C   0  0  0  0  0  0  0  0  0  0  0  0
  -23.5332    2.1403   27.3838 C   0  0  0  0  0  0  0  0  0  0  0  0
  -22.4014    1.7820   27.6309 O   0  0  0  0  0  0  0  0  0  0  0  0
  -23.7998    3.2067   26.6736 O   0  0  0  0  0  0  0  0  0  0  0  0
  -27.5232   -0.9948   31.2458 N   0  0  0  0  0  0  0  0  0  0  0  0
  -31.7519   -4.0742   29.7087 O   0  0  0  0  0  0  0  0  0  0  0  0
  -30.8354   -4.9640   29.1568 C   0  0  0  0  0  0  0  0  0  0  0  0
  -31.1606   -5.4218   27.8121 C   0  0  0  0  0  0  0  0  0  0  0  0
  -31.6079   -4.7482   27.0551 O   0  0  0  0  0  0  0  0  0  0  0  0
  -30.3893   -6.5326   27.4823 O   0  0  0  0  0  0  0  0  0  0  0  0
  -26.9880   -2.1956   31.1977 C   0  0  0  0  0  0  0  0  0  0  0  0
  -27.0950   -0.1428   32.3840 C   0  0  0  0  0  0  0  0  0  0  0  0
  -27.6857   -0.4145   33.4590 C   0  0  0  0  0  0  0  0  0  0  0  0
  -27.5156    0.0329   34.4342 C   0  0  0  0  0  0  0  0  0  0  0  0
  -27.0704    0.9790   34.7297 C   0  0  0  0  0  0  0  0  0  0  0  0
  -26.2489    1.6295   33.6524 C   0  0  0  0  0  0  0  0  0  0  0  0
  -26.3380    0.9904   32.3591 C   0  0  0  0  0  0  0  0  0  0  0  0
  -26.6211    1.8111   31.4693 C   0  0  0  0  0  0  0  0  0  0  0  0
  -24.8307    0.4952   32.0062 C   0  0  0  0  0  0  0  0  0  0  0  0
  -26.3343    3.3794   31.5574 C   0  0  0  0  0  0  0  0  0  0  0  0
  1  2  1  0
  1  8  1  0
  8  9  1  0
  8 15  1  0
  3 16  1  0
 15 16  1  0
  5 17  1  0
 17 18  2  0
 17 19  1  0
  8 20  1  0
 11 21  1  0
 21 22  1  0
 22 23  1  0
 23 24  2  0
 23 25  1  0
 20 26  1  0
 20 27  1  0
 28 29  1  0
 30 31  1  0
 27 32  1  0
 31 32  1  0
 16 33  1  0
 32 33  1  0
 32 34  1  0
 33 35  1  0
 27 28  1  0
 29 30  1  0
  9 10  2  0
 10 11  1  0
 11 12  2  0
 12 13  1  0
 13 14  2  0
 14  9  1  0
  2  7  2  0
  7  6  1  0
  6  5  2  0
  5  4  1  0
  4  3  2  0
  3  2  1  0
M  END

$$$$
