No_782-gen_results/8p0m/2024-11-26-14-13-15/
     RDKit          3D

 29 31  0  0  0  0  0  0  0  0999 V2000
  -28.1229   -1.3353   28.4874 O   0  0  0  0  0  0  0  0  0  0  0  0
  -27.0637   -0.8242   28.8687 C   0  0  0  0  0  0  0  0  0  0  0  0
  -25.9464   -1.0396   28.8492 C   0  0  0  0  0  0  0  0  0  0  0  0
  -24.7602   -0.1562   29.1644 C   0  0  0  0  0  0  0  0  0  0  0  0
  -25.1397    1.0733   29.6683 C   0  0  0  0  0  0  0  0  0  0  0  0
  -26.4527    1.3942   29.7638 C   0  0  0  0  0  0  0  0  0  0  0  0
  -27.4046    0.6283   29.4541 C   0  0  0  0  0  0  0  0  0  0  0  0
  -23.3693   -0.5129   29.0960 C   0  0  0  0  0  0  0  0  0  0  0  0
  -22.4001    0.4365   28.8406 C   0  0  0  0  0  0  0  0  0  0  0  0
  -22.8279    1.8016   28.9860 C   0  0  0  0  0  0  0  0  0  0  0  0
  -24.0593    2.1054   29.6159 C   0  0  0  0  0  0  0  0  0  0  0  0
  -21.1592    0.1963   28.6462 O   0  0  0  0  0  0  0  0  0  0  0  0
  -26.7757    2.8296   30.3122 C   0  0  0  0  0  0  0  0  0  0  0  0
  -27.7359    3.4827   29.8054 C   0  0  0  0  0  0  0  0  0  0  0  0
  -27.9109    4.7290   30.1907 C   0  0  0  0  0  0  0  0  0  0  0  0
  -27.1686    5.3789   31.2059 C   0  0  0  0  0  0  0  0  0  0  0  0
  -26.0914    4.6899   31.7943 C   0  0  0  0  0  0  0  0  0  0  0  0
  -25.8342    3.3321   31.3063 C   0  0  0  0  0  0  0  0  0  0  0  0
  -25.2275    5.2267   32.8411 C   0  0  0  0  0  0  0  0  0  0  0  0
  -24.0742    5.2282   32.6439 O   0  0  0  0  0  0  0  0  0  0  0  0
  -25.7846    5.6811   33.9102 O   0  0  0  0  0  0  0  0  0  0  0  0
  -29.0678    5.5608   29.6586 C   0  0  0  0  0  0  0  0  0  0  0  0
  -29.8026    5.2183   28.8712 O   0  0  0  0  0  0  0  0  0  0  0  0
  -29.1666    6.8344   30.1643 O   0  0  0  0  0  0  0  0  0  0  0  0
  -30.0128    7.6613   29.7132 C   0  0  0  0  0  0  0  0  0  0  0  0
  -30.4894    8.5672   29.6352 C   0  0  0  0  0  0  0  0  0  0  0  0
  -30.8894    9.7416   29.7273 C   0  0  0  0  0  0  0  0  0  0  0  0
  -31.3263   10.9621   29.7398 C   0  0  0  0  0  0  0  0  0  0  0  0
  -30.8246   11.8658   29.5922 F   0  0  0  0  0  0  0  0  0  0  0  0
  1  2  2  0
  2  3  1  0
  5  6  1  0
  2  7  1  0
  6  7  1  0
  9 12  1  0
  6 13  1  0
 17 19  1  0
 19 20  2  0
 19 21  1  0
 15 22  1  0
 22 23  2  0
 22 24  1  0
 24 25  1  0
 25 26  3  0
 26 27  1  0
 27 28  3  0
 28 29  1  0
  3  4  1  0
 13 14  2  0
 14 15  1  0
 15 16  2  0
 16 17  1  0
 17 18  2  0
 18 13  1  0
  4  5  2  0
  5 11  1  0
 11 10  2  0
 10  9  1  0
  9  8  2  0
  8  4  1  0
M  END

$$$$
