No_720-gen_results/8p0m/2024-11-26-14-13-15/
     RDKit          3D

 23 26  0  0  0  0  0  0  0  0999 V2000
  -28.1229   -1.3353   28.4874 O   0  0  0  0  0  0  0  0  0  0  0  0
  -27.0637   -0.8242   28.8687 C   0  0  0  0  0  0  0  0  0  0  0  0
  -26.0496   -0.9362   28.7578 C   0  0  0  0  0  0  0  0  0  0  0  0
  -24.8633   -0.1667   29.1258 C   0  0  0  0  0  0  0  0  0  0  0  0
  -25.1916    0.9807   29.8735 C   0  0  0  0  0  0  0  0  0  0  0  0
  -26.5062    1.2129   30.1127 C   0  0  0  0  0  0  0  0  0  0  0  0
  -27.4860    0.4548   29.7296 C   0  0  0  0  0  0  0  0  0  0  0  0
  -23.4596   -0.3952   28.9148 C   0  0  0  0  0  0  0  0  0  0  0  0
  -22.5473    0.6463   28.7225 C   0  0  0  0  0  0  0  0  0  0  0  0
  -23.0390    1.9081   29.2725 C   0  0  0  0  0  0  0  0  0  0  0  0
  -24.1902    2.0416   29.9524 C   0  0  0  0  0  0  0  0  0  0  0  0
  -21.2169    0.5045   28.3676 C   0  0  0  0  0  0  0  0  0  0  0  0
  -29.3618   -1.0688   29.1828 C   0  0  0  0  0  0  0  0  0  0  0  0
  -28.9783    0.1896   29.8746 C   0  0  0  0  0  0  0  0  0  0  0  0
  -29.3123    0.2770   31.3724 C   0  0  0  0  0  0  0  0  0  0  0  0
  -29.5892    1.4201   29.1300 C   0  0  0  0  0  0  0  0  0  0  0  0
  -29.4232    1.8984   28.2461 C   0  0  0  0  0  0  0  0  0  0  0  0
  -29.7407    2.8545   27.5194 C   0  0  0  0  0  0  0  0  0  0  0  0
  -30.9287    1.8001   29.7960 C   0  0  0  0  0  0  0  0  0  0  0  0
  -31.5296    2.8996   29.1873 C   0  0  0  0  0  0  0  0  0  0  0  0
  -31.0049    3.4550   28.0322 C   0  0  0  0  0  0  0  0  0  0  0  0
  -28.6359    1.1171   32.1436 C   0  0  0  0  0  0  0  0  0  0  0  0
  -28.8906    1.2169   33.5472 C   0  0  0  0  0  0  0  0  0  0  0  0
  1  2  1  0
  9 12  1  0
  1 13  1  0
  7 14  1  0
 13 14  1  0
 14 15  1  0
 14 16  1  0
 15 22  2  3
 22 23  1  0
  2  3  2  0
  3  4  1  0
  5  6  1  0
  6  7  2  0
  7  2  1  0
  4  5  2  0
  5 11  1  0
 11 10  2  0
 10  9  1  0
  9  8  2  0
  8  4  1  0
 16 17  2  0
 17 18  1  0
 18 21  2  0
 21 20  1  0
 20 19  2  0
 19 16  1  0
M  END

$$$$
