No_750-gen_results/8p0m/2024-11-26-14-13-15/
     RDKit          3D

 16 18  0  0  0  0  0  0  0  0999 V2000
  -28.0162   -0.8135   28.8779 C   0  0  0  0  0  0  0  0  0  0  0  0
  -27.0636   -0.1189   28.6079 C   0  0  0  0  0  0  0  0  0  0  0  0
  -26.9287    1.1713   29.0083 C   0  0  0  0  0  0  0  0  0  0  0  0
  -27.9560    1.7411   29.7840 C   0  0  0  0  0  0  0  0  0  0  0  0
  -29.0569   -0.3271   29.7466 C   0  0  0  0  0  0  0  0  0  0  0  0
  -28.9828    0.9722   30.1516 C   0  0  0  0  0  0  0  0  0  0  0  0
  -25.7352   -0.7297   27.6631 Cl  0  0  0  0  0  0  0  0  0  0  0  0
  -30.0810    1.5109   31.0109 C   0  0  0  0  0  0  0  0  0  0  0  0
  -29.7604    2.4457   31.8403 C   0  0  0  0  0  0  0  0  0  0  0  0
  -28.6097    3.3383   31.4436 C   0  0  0  0  0  0  0  0  0  0  0  0
  -28.2815    4.5635   32.1981 C   0  0  0  0  0  0  0  0  0  0  0  0
  -27.6417    2.9304   30.5127 C   0  0  0  0  0  0  0  0  0  0  0  0
  -28.7422    4.9182   33.1991 O   0  0  0  0  0  0  0  0  0  0  0  0
  -27.2141    5.3515   31.6529 N   0  0  0  0  0  0  0  0  0  0  0  0
  -26.4456    4.9738   30.6208 C   0  0  0  0  0  0  0  0  0  0  0  0
  -26.5880    3.7405   30.0251 C   0  0  0  0  0  0  0  0  0  0  0  0
  2  7  1  0
 10 11  1  0
 11 13  2  0
 11 14  1  0
 12 16  1  0
 15 16  1  0
 15 14  1  0
  6  8  1  0
  8  9  2  0
  9 10  1  0
 10 12  2  0
 12  4  1  0
  1  2  2  0
  2  3  1  0
  3  4  2  0
  4  6  1  0
  6  5  2  0
  5  1  1  0
M  END

$$$$
