No_761-gen_results/8p0m/2024-11-26-14-13-15/
     RDKit          3D

 30 34  0  0  0  0  0  0  0  0999 V2000
  -28.0162   -0.8135   28.8779 C   0  0  0  0  0  0  0  0  0  0  0  0
  -27.0636   -0.1189   28.6079 C   0  0  0  0  0  0  0  0  0  0  0  0
  -25.7647   -0.3897   29.0360 C   0  0  0  0  0  0  0  0  0  0  0  0
  -25.5296   -1.5302   29.9014 C   0  0  0  0  0  0  0  0  0  0  0  0
  -24.3236   -1.9076   30.4324 C   0  0  0  0  0  0  0  0  0  0  0  0
  -27.9274   -1.9227   29.7902 C   0  0  0  0  0  0  0  0  0  0  0  0
  -26.6914   -2.2806   30.2948 C   0  0  0  0  0  0  0  0  0  0  0  0
  -23.2806   -2.0391   29.4813 C   0  0  0  0  0  0  0  0  0  0  0  0
  -29.0049   -2.6569   30.1988 O   0  0  0  0  0  0  0  0  0  0  0  0
  -28.9072   -3.9392   30.6003 C   0  0  0  0  0  0  0  0  0  0  0  0
  -30.1999   -4.6648   30.2607 C   0  0  0  0  0  0  0  0  0  0  0  0
  -30.8888   -4.3174   29.1813 C   0  0  0  0  0  0  0  0  0  0  0  0
  -32.2999   -4.5457   29.3736 C   0  0  0  0  0  0  0  0  0  0  0  0
  -33.1889   -3.6221   28.8893 C   0  0  0  0  0  0  0  0  0  0  0  0
  -33.1331   -2.5069   29.5780 C   0  0  0  0  0  0  0  0  0  0  0  0
  -33.4892   -1.3240   29.2398 C   0  0  0  0  0  0  0  0  0  0  0  0
  -33.1322   -0.3776   29.2828 C   0  0  0  0  0  0  0  0  0  0  0  0
  -32.0907    0.0083   30.3473 C   0  0  0  0  0  0  0  0  0  0  0  0
  -31.6197   -1.1936   30.9376 C   0  0  0  0  0  0  0  0  0  0  0  0
  -32.0144   -2.4152   30.4741 C   0  0  0  0  0  0  0  0  0  0  0  0
  -30.5251   -5.0942   31.3927 C   0  0  0  0  0  0  0  0  0  0  0  0
  -31.7407   -5.9231   31.4309 C   0  0  0  0  0  0  0  0  0  0  0  0
  -32.6799   -5.6539   30.2241 C   0  0  0  0  0  0  0  0  0  0  0  0
  -34.5671   -4.2094   28.9494 C   0  0  0  0  0  0  0  0  0  0  0  0
  -32.8624   -3.5173   27.3476 C   0  0  0  0  0  0  0  0  0  0  0  0
  -35.4032   -4.3827   27.9370 C   0  0  0  0  0  0  0  0  0  0  0  0
  -33.7188   -3.8157   26.3163 C   0  0  0  0  0  0  0  0  0  0  0  0
  -35.0034   -4.2016   26.6419 C   0  0  0  0  0  0  0  0  0  0  0  0
  -34.9824   -4.6918   30.2798 C   0  0  0  0  0  0  0  0  0  0  0  0
  -34.0705   -5.2531   30.9186 C   0  0  0  0  0  0  0  0  0  0  0  0
  4  5  1  0
  5  8  1  0
  6  9  1  0
  9 10  1  0
 10 11  1  0
 13 14  1  0
 14 15  1  0
 14 24  1  0
 14 25  1  0
 26 28  1  0
 27 28  1  0
 24 29  1  0
 23 30  1  0
 29 30  1  0
 24 26  1  0
 27 25  1  0
 15 16  2  0
 16 17  1  0
 17 18  2  0
 18 19  1  0
 19 20  2  0
 20 15  1  0
 11 12  2  0
 12 13  1  0
 13 23  2  0
 23 22  1  0
 22 21  2  0
 21 11  1  0
  1  2  2  0
  2  3  1  0
  3  4  2  0
  4  7  1  0
  7  6  2  0
  6  1  1  0
M  END

$$$$
