No_825-gen_results/8p0m/2024-11-26-14-13-15/
     RDKit          3D

 19 20  0  0  0  0  0  0  0  0999 V2000
  -28.0162   -0.8135   28.8779 C   0  0  0  0  0  0  0  0  0  0  0  0
  -27.0636   -0.1190   28.6079 C   0  0  0  0  0  0  0  0  0  0  0  0
  -27.0010    0.6913   27.4910 C   0  0  0  0  0  0  0  0  0  0  0  0
  -25.8548    1.4825   27.0830 C   0  0  0  0  0  0  0  0  0  0  0  0
  -24.6901    1.4526   27.8807 C   0  0  0  0  0  0  0  0  0  0  0  0
  -23.4878    2.1451   27.6011 C   0  0  0  0  0  0  0  0  0  0  0  0
  -25.9158   -0.1417   29.5581 C   0  0  0  0  0  0  0  0  0  0  0  0
  -24.6894    0.6408   29.1304 C   0  0  0  0  0  0  0  0  0  0  0  0
  -22.6449    2.2747   28.4851 O   0  0  0  0  0  0  0  0  0  0  0  0
  -23.3137    2.5176   26.3493 O   0  0  0  0  0  0  0  0  0  0  0  0
  -28.6767   -0.5416   30.0833 N   0  0  0  0  0  0  0  0  0  0  0  0
  -29.6571   -1.3176   30.6379 C   0  0  0  0  0  0  0  0  0  0  0  0
  -30.1962   -0.9780   31.8978 C   0  0  0  0  0  0  0  0  0  0  0  0
  -28.4236    0.5646   30.9639 C   0  0  0  0  0  0  0  0  0  0  0  0
  -28.9462    0.8605   32.0952 C   0  0  0  0  0  0  0  0  0  0  0  0
  -29.8679    0.0893   32.6209 C   0  0  0  0  0  0  0  0  0  0  0  0
  -28.1046    0.7716   26.5814 C   0  0  0  0  0  0  0  0  0  0  0  0
  -28.0871    0.6778   25.4423 O   0  0  0  0  0  0  0  0  0  0  0  0
  -29.3167    0.7760   27.1462 F   0  0  0  0  0  0  0  0  0  0  0  0
  1  2  1  0
  5  6  1  0
  6  9  1  0
  6 10  2  0
  1 11  1  0
 11 12  1  0
 11 14  1  0
 13 16  1  0
 15 16  1  0
  3 17  1  0
 17 18  2  0
 17 19  1  0
 12 13  1  0
 15 14  1  0
  2  3  2  0
  3  4  1  0
  4  5  2  0
  5  8  1  0
  8  7  2  0
  7  2  1  0
M  END

$$$$
