No_806-gen_results/8p0m/2024-11-26-14-13-15/
     RDKit          3D

 13 14  0  0  0  0  0  0  0  0999 V2000
  -28.0162   -0.8135   28.8779 C   0  0  0  0  0  0  0  0  0  0  0  0
  -27.0636   -0.1190   28.6079 C   0  0  0  0  0  0  0  0  0  0  0  0
  -25.7923   -0.4302   29.0761 C   0  0  0  0  0  0  0  0  0  0  0  0
  -25.5756   -1.5654   29.9363 C   0  0  0  0  0  0  0  0  0  0  0  0
  -26.5354   -2.2259   30.1442 C   0  0  0  0  0  0  0  0  0  0  0  0
  -27.8232   -1.9824   29.7414 C   0  0  0  0  0  0  0  0  0  0  0  0
  -27.1414    1.1193   27.7777 C   0  0  0  0  0  0  0  0  0  0  0  0
  -26.1715    1.5512   27.0532 C   0  0  0  0  0  0  0  0  0  0  0  0
  -24.7490    1.2324   27.5410 C   0  0  0  0  0  0  0  0  0  0  0  0
  -24.5751    0.1713   28.4105 C   0  0  0  0  0  0  0  0  0  0  0  0
  -23.5912    1.8978   26.9472 C   0  0  0  0  0  0  0  0  0  0  0  0
  -22.4282    1.7452   27.5172 N   0  0  0  0  0  0  0  0  0  0  0  0
  -23.6781    2.8147   25.5139 Cl  0  0  0  0  0  0  0  0  0  0  0  0
  9 11  1  0
 11 12  1  0
 11 13  1  0
  1  2  2  0
  3  4  2  0
  4  5  1  0
  5  6  2  0
  6  1  1  0
  2  3  1  0
  3 10  1  0
 10  9  2  0
  9  8  1  0
  8  7  2  0
  7  2  1  0
M  END

$$$$
