No_852-gen_results/8p0m/2024-11-26-14-13-15/
     RDKit          3D

 35 40  0  0  0  0  0  0  0  0999 V2000
  -28.0162   -0.8135   28.8779 C   0  0  0  0  0  0  0  0  0  0  0  0
  -28.4690   -0.7850   29.8287 C   0  0  0  0  0  0  0  0  0  0  0  0
  -27.0871    0.2903   28.6377 C   0  0  0  0  0  0  0  0  0  0  0  0
  -26.2516    0.4114   27.4223 C   0  0  0  0  0  0  0  0  0  0  0  0
  -28.3913    0.1041   30.9805 C   0  0  0  0  0  0  0  0  0  0  0  0
  -27.5332    1.1666   30.7866 C   0  0  0  0  0  0  0  0  0  0  0  0
  -26.8281    1.2557   29.6454 C   0  0  0  0  0  0  0  0  0  0  0  0
  -25.1383    0.6747   27.2308 C   0  0  0  0  0  0  0  0  0  0  0  0
  -24.3156    0.8666   28.4420 C   0  0  0  0  0  0  0  0  0  0  0  0
  -24.4955    1.5109   29.5561 C   0  0  0  0  0  0  0  0  0  0  0  0
  -25.5259    1.8220   30.0101 C   0  0  0  0  0  0  0  0  0  0  0  0
  -22.5194    0.8125   27.8782 Cl  0  0  0  0  0  0  0  0  0  0  0  0
  -25.5781    2.8798   31.1544 C   0  0  0  0  0  0  0  0  0  0  0  0
  -24.8363    3.7276   31.2721 O   0  0  0  0  0  0  0  0  0  0  0  0
  -26.7604    2.9796   31.8839 N   0  0  0  0  0  0  0  0  0  0  0  0
  -26.6587    3.9797   32.8527 C   0  0  0  0  0  0  0  0  0  0  0  0
  -27.8101    2.1665   31.7891 C   0  0  0  0  0  0  0  0  0  0  0  0
  -28.8897    2.5074   32.1796 O   0  0  0  0  0  0  0  0  0  0  0  0
  -26.9500    3.6787   34.1529 C   0  0  0  0  0  0  0  0  0  0  0  0
  -26.9382    2.5832   34.6382 C   0  0  0  0  0  0  0  0  0  0  0  0
  -27.2420    2.2312   36.0175 C   0  0  0  0  0  0  0  0  0  0  0  0
  -27.4997    3.3144   36.8604 C   0  0  0  0  0  0  0  0  0  0  0  0
  -27.4643    4.6124   36.4069 C   0  0  0  0  0  0  0  0  0  0  0  0
  -27.1722    4.8501   35.0895 C   0  0  0  0  0  0  0  0  0  0  0  0
  -27.1067    6.2211   34.5759 C   0  0  0  0  0  0  0  0  0  0  0  0
  -27.3696    6.6324   33.6076 C   0  0  0  0  0  0  0  0  0  0  0  0
  -28.3190    6.0537   32.7111 C   0  0  0  0  0  0  0  0  0  0  0  0
  -27.5475    4.8865   32.0426 C   0  0  0  0  0  0  0  0  0  0  0  0
  -29.1128    6.9042   31.7796 C   0  0  0  0  0  0  0  0  0  0  0  0
  -30.0289    6.4769   31.1673 C   0  0  0  0  0  0  0  0  0  0  0  0
  -30.8455    7.2720   30.2728 C   0  0  0  0  0  0  0  0  0  0  0  0
  -30.5266    8.6368   30.2072 C   0  0  0  0  0  0  0  0  0  0  0  0
  -29.4932    9.1378   30.8955 C   0  0  0  0  0  0  0  0  0  0  0  0
  -28.7466    8.3362   31.7376 C   0  0  0  0  0  0  0  0  0  0  0  0
  -32.1266    6.5996   29.4289 Cl  0  0  0  0  0  0  0  0  0  0  0  0
  3  4  1  0
  4  8  2  0
  8  9  1  0
  9 10  2  0
  7 11  1  0
 10 11  1  0
  9 12  1  0
 11 13  1  0
 13 14  2  0
 13 15  1  0
 15 16  1  0
  6 17  1  0
 15 17  1  0
 17 18  2  0
 16 19  1  0
 24 25  1  0
 25 26  2  0
 26 27  1  0
 16 28  1  0
 27 28  1  0
 27 29  1  0
 31 35  1  0
 29 30  2  0
 30 31  1  0
 31 32  2  0
 32 33  1  0
 33 34  2  0
 34 29  1  0
 19 20  2  0
 20 21  1  0
 21 22  2  0
 22 23  1  0
 23 24  2  0
 24 19  1  0
  1  2  2  0
  2  5  1  0
  5  6  2  0
  6  7  1  0
  7  3  2  0
  3  1  1  0
M  END

$$$$
