No_854-gen_results/8p0m/2024-11-26-14-13-15/
     RDKit          3D

 18 19  0  0  0  0  0  0  0  0999 V2000
  -28.0162   -0.8135   28.8779 C   0  0  0  0  0  0  0  0  0  0  0  0
  -28.4690   -0.7850   29.8287 C   0  0  0  0  0  0  0  0  0  0  0  0
  -26.5042   -0.7777   28.8766 C   0  0  0  0  0  0  0  0  0  0  0  0
  -25.8305   -1.6807   29.6849 C   0  0  0  0  0  0  0  0  0  0  0  0
  -28.1490   -1.8854   30.9031 C   0  0  0  0  0  0  0  0  0  0  0  0
  -26.6460   -1.9561   31.0330 C   0  0  0  0  0  0  0  0  0  0  0  0
  -28.6274   -1.7308   32.1858 O   0  0  0  0  0  0  0  0  0  0  0  0
  -30.0168   -0.9269   29.8771 O   0  0  0  0  0  0  0  0  0  0  0  0
  -24.6534   -2.3030   29.3807 C   0  0  0  0  0  0  0  0  0  0  0  0
  -23.4721   -1.5067   29.2502 C   0  0  0  0  0  0  0  0  0  0  0  0
  -23.6749   -0.2225   29.5644 C   0  0  0  0  0  0  0  0  0  0  0  0
  -23.2984    0.8582   28.7178 C   0  0  0  0  0  0  0  0  0  0  0  0
  -23.7456    1.3668   27.8769 C   0  0  0  0  0  0  0  0  0  0  0  0
  -23.0509    2.3707   26.9460 C   0  0  0  0  0  0  0  0  0  0  0  0
  -23.7609    3.0121   25.9263 C   0  0  0  0  0  0  0  0  0  0  0  0
  -25.1393    2.8627   25.8549 C   0  0  0  0  0  0  0  0  0  0  0  0
  -25.7715    1.9488   26.6315 C   0  0  0  0  0  0  0  0  0  0  0  0
  -25.0492    1.2928   27.6635 C   0  0  0  0  0  0  0  0  0  0  0  0
  1  2  1  0
  1  3  1  0
  3  4  1  0
  2  5  1  0
  4  6  1  0
  5  6  1  0
  5  7  1  0
  2  8  1  0
  4  9  1  0
  9 10  1  0
 10 11  2  3
 11 12  1  0
 12 13  1  0
 13 14  2  0
 14 15  1  0
 15 16  2  0
 16 17  1  0
 17 18  2  0
 18 13  1  0
M  END

$$$$
