No_809-gen_results/8p0m/2024-11-26-14-13-15/
     RDKit          3D

 31 32  0  0  0  0  0  0  0  0999 V2000
  -28.0162   -0.8135   28.8779 C   0  0  0  0  0  0  0  0  0  0  0  0
  -27.0636   -0.1189   28.6079 C   0  0  0  0  0  0  0  0  0  0  0  0
  -26.9716    0.7139   27.5060 C   0  0  0  0  0  0  0  0  0  0  0  0
  -25.8206    1.4910   27.1160 C   0  0  0  0  0  0  0  0  0  0  0  0
  -24.6562    1.4242   27.9180 C   0  0  0  0  0  0  0  0  0  0  0  0
  -24.6847    0.5901   29.0659 C   0  0  0  0  0  0  0  0  0  0  0  0
  -25.8099   -0.1265   29.3338 C   0  0  0  0  0  0  0  0  0  0  0  0
  -28.7093   -0.4588   30.1754 C   0  0  0  0  0  0  0  0  0  0  0  0
  -29.4273   -1.3885   30.7420 O   0  0  0  0  0  0  0  0  0  0  0  0
  -23.4634    2.2046   27.5975 C   0  0  0  0  0  0  0  0  0  0  0  0
  -22.5740    2.2499   28.4844 O   0  0  0  0  0  0  0  0  0  0  0  0
  -23.2610    2.5804   26.3739 O   0  0  0  0  0  0  0  0  0  0  0  0
  -28.5677    0.5873   30.7573 O   0  0  0  0  0  0  0  0  0  0  0  0
  -28.0792    0.8063   26.5542 C   0  0  0  0  0  0  0  0  0  0  0  0
  -28.9392    1.5181   26.6708 O   0  0  0  0  0  0  0  0  0  0  0  0
  -28.0457   -0.0584   25.4934 N   0  0  0  0  0  0  0  0  0  0  0  0
  -29.0348   -0.1583   24.4715 C   0  0  0  0  0  0  0  0  0  0  0  0
  -30.2668   -0.4591   24.9995 C   0  0  0  0  0  0  0  0  0  0  0  0
  -30.4465   -1.5169   25.6554 C   0  0  0  0  0  0  0  0  0  0  0  0
  -31.7917   -1.9366   26.1788 C   0  0  0  0  0  0  0  0  0  0  0  0
  -32.8647   -1.1907   25.6623 C   0  0  0  0  0  0  0  0  0  0  0  0
  -32.7297   -0.0991   24.8782 C   0  0  0  0  0  0  0  0  0  0  0  0
  -31.4451    0.2710   24.4616 C   0  0  0  0  0  0  0  0  0  0  0  0
  -31.9243   -2.9799   26.9724 O   0  0  0  0  0  0  0  0  0  0  0  0
  -32.1072   -2.7725   28.3056 C   0  0  0  0  0  0  0  0  0  0  0  0
  -33.1271   -3.6099   28.9006 C   0  0  0  0  0  0  0  0  0  0  0  0
  -33.4886   -4.8621   28.4081 P   0  0  0  0  0  0  0  0  0  0  0  0
  -34.4953   -5.3494   28.5486 O   0  0  0  0  0  0  0  0  0  0  0  0
  -32.3457   -5.7881   29.0861 O   0  0  0  0  0  0  0  0  0  0  0  0
  -33.0181   -4.9818   26.9150 O   0  0  0  0  0  0  0  0  0  0  0  0
  -31.3980   -6.3730   28.4717 C   0  0  0  0  0  0  0  0  0  0  0  0
  1  2  2  3
  2  3  1  0
  3  4  1  0
  4  5  1  0
  5  6  1  0
  2  7  1  0
  6  7  1  0
  1  8  1  0
  8  9  1  0
  5 10  1  0
 10 11  2  0
 10 12  1  0
  8 13  2  0
  3 14  1  0
 14 15  2  0
 14 16  1  0
 16 17  1  0
 17 18  1  0
 20 24  1  0
 24 25  1  0
 25 26  1  0
 26 27  1  0
 27 28  1  0
 27 29  1  0
 27 30  2  0
 29 31  1  0
 18 19  2  0
 19 20  1  0
 20 21  2  0
 21 22  1  0
 22 23  2  0
 23 18  1  0
M  END

$$$$
