No_823-gen_results/8p0m/2024-11-26-14-13-15/
     RDKit          3D

 19 19  0  0  0  0  0  0  0  0999 V2000
  -28.0162   -0.8135   28.8779 C   0  0  0  0  0  0  0  0  0  0  0  0
  -27.0636   -0.1189   28.6079 C   0  0  0  0  0  0  0  0  0  0  0  0
  -27.0010    0.6913   27.4910 C   0  0  0  0  0  0  0  0  0  0  0  0
  -28.1373    0.7363   26.6350 C   0  0  0  0  0  0  0  0  0  0  0  0
  -28.1438    1.4322   25.4880 C   0  0  0  0  0  0  0  0  0  0  0  0
  -29.2801   -0.5524   28.2479 C   0  0  0  0  0  0  0  0  0  0  0  0
  -29.2552    0.0950   27.0446 C   0  0  0  0  0  0  0  0  0  0  0  0
  -27.2841    1.1886   24.5424 C   0  0  0  0  0  0  0  0  0  0  0  0
  -29.1941    2.4266   25.2325 C   0  0  0  0  0  0  0  0  0  0  0  0
  -26.2565    0.2922   24.7238 C   0  0  0  0  0  0  0  0  0  0  0  0
  -28.0437   -1.6172   30.2093 C   0  0  0  0  0  0  0  0  0  0  0  0
  -27.1130   -2.4373   30.3664 O   0  0  0  0  0  0  0  0  0  0  0  0
  -28.7052   -1.2907   31.2014 O   0  0  0  0  0  0  0  0  0  0  0  0
  -24.8754    0.6408   25.0137 C   0  0  0  0  0  0  0  0  0  0  0  0
  -24.4369    1.4292   26.0955 C   0  0  0  0  0  0  0  0  0  0  0  0
  -23.6821    2.1991   26.3591 C   0  0  0  0  0  0  0  0  0  0  0  0
  -23.3430    2.7196   27.6766 C   0  0  0  0  0  0  0  0  0  0  0  0
  -24.1449    2.2573   28.7399 C   0  0  0  0  0  0  0  0  0  0  0  0
  -24.9464    1.3675   28.5482 C   0  0  0  0  0  0  0  0  0  0  0  0
  4  5  1  0
  5  8  2  3
  5  9  1  0
  8 10  1  0
  1 11  1  0
 11 12  2  0
 11 13  1  0
 10 14  2  3
 14 15  1  0
 15 16  3  0
 16 17  1  0
 17 18  2  3
 18 19  1  0
  1  2  2  0
  2  3  1  0
  3  4  2  0
  4  7  1  0
  7  6  2  0
  6  1  1  0
M  END

$$$$
