No_895-gen_results/8p0m/2024-11-26-14-13-15/
     RDKit          3D

 20 21  0  0  0  0  0  0  0  0999 V2000
  -28.0162   -0.8135   28.8779 C   0  0  0  0  0  0  0  0  0  0  0  0
  -27.0636   -0.1190   28.6079 C   0  0  0  0  0  0  0  0  0  0  0  0
  -25.7923   -0.4302   29.0761 C   0  0  0  0  0  0  0  0  0  0  0  0
  -25.5756   -1.5654   29.9363 C   0  0  0  0  0  0  0  0  0  0  0  0
  -26.7354   -2.3004   30.2173 C   0  0  0  0  0  0  0  0  0  0  0  0
  -27.9184   -1.9537   29.7629 C   0  0  0  0  0  0  0  0  0  0  0  0
  -28.9649   -2.6957   30.0722 F   0  0  0  0  0  0  0  0  0  0  0  0
  -24.5349    0.3596   28.8024 C   0  0  0  0  0  0  0  0  0  0  0  0
  -23.3564    0.0095   29.1902 C   0  0  0  0  0  0  0  0  0  0  0  0
  -22.1810    0.7788   28.8104 C   0  0  0  0  0  0  0  0  0  0  0  0
  -22.3132    1.7458   27.7943 C   0  0  0  0  0  0  0  0  0  0  0  0
  -24.7221    1.5754   27.9908 C   0  0  0  0  0  0  0  0  0  0  0  0
  -23.7124    2.2259   27.6290 C   0  0  0  0  0  0  0  0  0  0  0  0
  -23.7802    3.3226   26.7780 O   0  0  0  0  0  0  0  0  0  0  0  0
  -24.6043    3.8677   26.4056 C   0  0  0  0  0  0  0  0  0  0  0  0
  -29.2959   -0.5241   28.4809 O   0  0  0  0  0  0  0  0  0  0  0  0
  -29.6910    0.7926   28.4398 C   0  0  0  0  0  0  0  0  0  0  0  0
  -29.8505    1.2673   27.1327 C   0  0  0  0  0  0  0  0  0  0  0  0
  -30.2478    0.6569   26.1523 C   0  0  0  0  0  0  0  0  0  0  0  0
  -30.2908    1.0787   24.8007 C   0  0  0  0  0  0  0  0  0  0  0  0
  6  7  1  0
  3  8  1  0
 13 14  1  0
 14 15  1  0
  1 16  1  0
 16 17  1  0
 17 18  1  0
 18 19  2  3
 19 20  1  0
  1  2  2  0
  2  3  1  0
  3  4  2  0
  4  5  1  0
  5  6  2  0
  6  1  1  0
  8  9  2  0
  9 10  1  0
 10 11  2  0
 11 13  1  0
 13 12  2  0
 12  8  1  0
M  END

$$$$
