No_80-gen_results/8p0m/2024-11-26-14-13-15/
     RDKit          3D

  7  6  0  0  0  0  0  0  0  0999 V2000
  -28.1493   -0.8198   28.9079 Cl  0  0  0  0  0  0  0  0  0  0  0  0
  -26.9116   -0.0797   28.9452 C   0  0  0  0  0  0  0  0  0  0  0  0
  -26.8992    0.8738   29.5759 F   0  0  0  0  0  0  0  0  0  0  0  0
  -25.7709   -0.4865   28.1740 C   0  0  0  0  0  0  0  0  0  0  0  0
  -25.2660    0.4319   27.2477 C   0  0  0  0  0  0  0  0  0  0  0  0
  -24.9215    1.6654   27.4936 C   0  0  0  0  0  0  0  0  0  0  0  0
  -24.7860    2.0485   28.8435 C   0  0  0  0  0  0  0  0  0  0  0  0
  1  2  1  0
  2  3  1  0
  2  4  1  0
  4  5  1  0
  5  6  2  3
  6  7  1  0
M  END

$$$$
