No_889-gen_results/8p0m/2024-11-26-14-13-15/
     RDKit          3D

 25 28  0  0  0  0  0  0  0  0999 V2000
  -28.0162   -0.8135   28.8779 C   0  0  0  0  0  0  0  0  0  0  0  0
  -28.4690   -0.7850   29.8287 C   0  0  0  0  0  0  0  0  0  0  0  0
  -28.1816    0.4277   28.1134 C   0  0  0  0  0  0  0  0  0  0  0  0
  -28.9841    1.4155   28.5154 C   0  0  0  0  0  0  0  0  0  0  0  0
  -29.3802    0.1384   30.4612 C   0  0  0  0  0  0  0  0  0  0  0  0
  -29.5415    1.2736   29.7242 C   0  0  0  0  0  0  0  0  0  0  0  0
  -27.4586    0.4934   26.7701 C   0  0  0  0  0  0  0  0  0  0  0  0
  -26.0264    0.3840   26.7617 C   0  0  0  0  0  0  0  0  0  0  0  0
  -25.3680    0.5743   25.5142 C   0  0  0  0  0  0  0  0  0  0  0  0
  -25.2446    0.0154   27.8765 C   0  0  0  0  0  0  0  0  0  0  0  0
  -23.8432    0.1341   27.8106 C   0  0  0  0  0  0  0  0  0  0  0  0
  -23.9328    0.7455   25.4847 C   0  0  0  0  0  0  0  0  0  0  0  0
  -23.2198    0.5504   26.6201 C   0  0  0  0  0  0  0  0  0  0  0  0
  -28.2349    0.5856   25.6273 C   0  0  0  0  0  0  0  0  0  0  0  0
  -28.3252   -0.2840   24.9405 F   0  0  0  0  0  0  0  0  0  0  0  0
  -27.7900    1.8364   24.9600 N   0  0  0  0  0  0  0  0  0  0  0  0
  -29.7321    1.0781   25.9359 C   0  0  0  0  0  0  0  0  0  0  0  0
  -30.6130    0.9868   24.9842 C   0  0  0  0  0  0  0  0  0  0  0  0
  -31.9318    1.3000   25.1452 C   0  0  0  0  0  0  0  0  0  0  0  0
  -32.3731    1.6788   26.4060 C   0  0  0  0  0  0  0  0  0  0  0  0
  -31.4715    1.8271   27.4241 C   0  0  0  0  0  0  0  0  0  0  0  0
  -30.1280    1.5029   27.2120 C   0  0  0  0  0  0  0  0  0  0  0  0
  -22.9563   -0.0847   28.9798 C   0  0  0  0  0  0  0  0  0  0  0  0
  -23.2949   -0.6934   29.8685 O   0  0  0  0  0  0  0  0  0  0  0  0
  -21.6896    0.3417   28.8349 O   0  0  0  0  0  0  0  0  0  0  0  0
  3  7  1  0
  7 14  1  0
 14 15  1  0
 14 16  1  0
 14 17  1  0
  4 22  1  0
 11 23  1  0
 23 24  2  0
 23 25  1  0
  7  8  1  0
 17 18  2  0
 18 19  1  0
 19 20  2  0
 20 21  1  0
 21 22  2  0
 22 17  1  0
  8  9  2  0
  9 12  1  0
 12 13  2  0
 13 11  1  0
 11 10  2  0
 10  8  1  0
  1  2  2  0
  2  5  1  0
  5  6  2  0
  6  4  1  0
  4  3  2  0
  3  1  1  0
M  END

$$$$
