No_881-gen_results/8p0m/2024-11-26-14-13-15/
     RDKit          3D

 17 17  0  0  0  0  0  0  0  0999 V2000
  -28.0162   -0.8135   28.8779 C   0  0  0  0  0  0  0  0  0  0  0  0
  -28.4690   -0.7850   29.8287 C   0  0  0  0  0  0  0  0  0  0  0  0
  -28.1960    0.3478   28.0550 C   0  0  0  0  0  0  0  0  0  0  0  0
  -29.0191    1.3501   28.3782 C   0  0  0  0  0  0  0  0  0  0  0  0
  -29.4107    0.1803   30.3782 C   0  0  0  0  0  0  0  0  0  0  0  0
  -29.6059    1.2495   29.6193 C   0  0  0  0  0  0  0  0  0  0  0  0
  -27.4478    0.3799   26.7122 C   0  0  0  0  0  0  0  0  0  0  0  0
  -25.7370    0.4126   26.7598 P   0  0  0  0  0  0  0  0  0  0  0  0
  -25.2313    0.5076   25.4381 O   0  0  0  0  0  0  0  0  0  0  0  0
  -25.2971   -0.9148   27.4104 O   0  0  0  0  0  0  0  0  0  0  0  0
  -25.2982    1.6287   27.5789 O   0  0  0  0  0  0  0  0  0  0  0  0
  -24.6307    1.7901   28.4450 C   0  0  0  0  0  0  0  0  0  0  0  0
  -28.0280    0.3117   25.5643 N   0  0  0  0  0  0  0  0  0  0  0  0
  -23.2468    1.6820   28.5013 C   0  0  0  0  0  0  0  0  0  0  0  0
  -22.6677    0.8984   29.4282 O   0  0  0  0  0  0  0  0  0  0  0  0
  -29.1951    0.9267   25.1439 C   0  0  0  0  0  0  0  0  0  0  0  0
  -29.7059    1.9102   25.9351 C   0  0  0  0  0  0  0  0  0  0  0  0
  3  7  1  0
  7  8  1  0
  8  9  2  0
  8 10  1  0
  8 11  1  0
 11 12  1  0
  7 13  1  0
 12 14  1  0
 14 15  1  0
 13 16  1  0
 16 17  1  0
  1  2  2  0
  2  5  1  0
  5  6  2  0
  6  4  1  0
  4  3  2  0
  3  1  1  0
M  END

$$$$
