No_860-gen_results/8p0m/2024-11-26-14-13-15/
     RDKit          3D

 15 15  0  0  0  0  0  0  0  0999 V2000
  -28.0162   -0.8135   28.8779 C   0  0  0  0  0  0  0  0  0  0  0  0
  -28.4690   -0.7850   29.8287 C   0  0  0  0  0  0  0  0  0  0  0  0
  -26.5455   -0.8762   28.8500 C   0  0  0  0  0  0  0  0  0  0  0  0
  -25.8041   -1.0324   30.0571 C   0  0  0  0  0  0  0  0  0  0  0  0
  -27.9437   -0.9869   31.2075 C   0  0  0  0  0  0  0  0  0  0  0  0
  -26.5825   -1.0386   31.2231 C   0  0  0  0  0  0  0  0  0  0  0  0
  -29.9186   -0.6439   29.7328 O   0  0  0  0  0  0  0  0  0  0  0  0
  -30.4381    0.0403   28.8370 C   0  0  0  0  0  0  0  0  0  0  0  0
  -31.0789    1.1541   29.0889 C   0  0  0  0  0  0  0  0  0  0  0  0
  -31.3498    1.5463   30.2895 C   0  0  0  0  0  0  0  0  0  0  0  0
  -31.0568    0.7794   31.4407 C   0  0  0  0  0  0  0  0  0  0  0  0
  -31.1844    1.2485   32.8107 C   0  0  0  0  0  0  0  0  0  0  0  0
  -31.8172    2.0495   32.9404 F   0  0  0  0  0  0  0  0  0  0  0  0
  -29.8886    1.5537   33.2538 F   0  0  0  0  0  0  0  0  0  0  0  0
  -31.3937    0.0815   33.5554 F   0  0  0  0  0  0  0  0  0  0  0  0
  2  7  1  0
  7  8  1  0
  8  9  1  0
  9 10  2  3
 10 11  1  0
 11 12  1  0
 12 13  1  0
 12 14  1  0
 12 15  1  0
  1  2  2  0
  2  5  1  0
  5  6  2  0
  6  4  1  0
  4  3  2  0
  3  1  1  0
M  END

$$$$
