No_800-gen_results/8p0m/2024-11-26-14-13-15/
     RDKit          3D

 13 14  0  0  0  0  0  0  0  0999 V2000
  -28.0162   -0.8135   28.8779 C   0  0  0  0  0  0  0  0  0  0  0  0
  -27.0636   -0.1189   28.6079 C   0  0  0  0  0  0  0  0  0  0  0  0
  -26.8756    1.1325   28.9134 C   0  0  0  0  0  0  0  0  0  0  0  0
  -27.9014    1.8066   29.6436 C   0  0  0  0  0  0  0  0  0  0  0  0
  -29.0458   -0.2316   29.7181 C   0  0  0  0  0  0  0  0  0  0  0  0
  -28.9402    1.0517   30.0597 C   0  0  0  0  0  0  0  0  0  0  0  0
  -25.8732   -0.7125   27.8045 C   0  0  0  0  0  0  0  0  0  0  0  0
  -25.2858    0.0505   26.8000 C   0  0  0  0  0  0  0  0  0  0  0  0
  -25.2235    1.4625   27.0117 C   0  0  0  0  0  0  0  0  0  0  0  0
  -26.1409    2.0494   27.9719 C   0  0  0  0  0  0  0  0  0  0  0  0
  -24.3819    2.1459   26.3178 F   0  0  0  0  0  0  0  0  0  0  0  0
  -26.1056    3.7478   28.0966 Cl  0  0  0  0  0  0  0  0  0  0  0  0
  -29.9442   -1.0736   30.2666 F   0  0  0  0  0  0  0  0  0  0  0  0
  9 11  1  0
 10 12  1  0
  5 13  1  0
  1  2  2  0
  3  4  2  0
  4  6  1  0
  6  5  2  0
  5  1  1  0
  2  3  1  0
  3 10  1  0
 10  9  2  0
  9  8  1  0
  8  7  2  0
  7  2  1  0
M  END

$$$$
