No_880-gen_results/8p0m/2024-11-26-14-13-15/
     RDKit          3D

 26 28  0  0  0  0  0  0  0  0999 V2000
  -28.0162   -0.8135   28.8779 C   0  0  0  0  0  0  0  0  0  0  0  0
  -27.0636   -0.1189   28.6079 C   0  0  0  0  0  0  0  0  0  0  0  0
  -25.7647   -0.3897   29.0360 C   0  0  0  0  0  0  0  0  0  0  0  0
  -24.5517    0.4058   28.7646 C   0  0  0  0  0  0  0  0  0  0  0  0
  -24.6957    1.4480   27.7988 C   0  0  0  0  0  0  0  0  0  0  0  0
  -25.9755    1.7250   27.3077 C   0  0  0  0  0  0  0  0  0  0  0  0
  -27.0718    1.0134   27.6535 C   0  0  0  0  0  0  0  0  0  0  0  0
  -28.6247   -0.5797   30.0969 N   0  0  0  0  0  0  0  0  0  0  0  0
  -23.4943    2.1676   27.4757 C   0  0  0  0  0  0  0  0  0  0  0  0
  -22.4715    1.7960   27.1395 F   0  0  0  0  0  0  0  0  0  0  0  0
  -29.6392   -1.3283   30.6468 C   0  0  0  0  0  0  0  0  0  0  0  0
  -30.1217   -1.0094   31.9395 C   0  0  0  0  0  0  0  0  0  0  0  0
  -28.1936    0.4499   31.0244 C   0  0  0  0  0  0  0  0  0  0  0  0
  -28.6372    0.7365   32.2116 C   0  0  0  0  0  0  0  0  0  0  0  0
  -29.6439   -0.0072   32.7319 C   0  0  0  0  0  0  0  0  0  0  0  0
  -23.2550    3.1707   28.4508 F   0  0  0  0  0  0  0  0  0  0  0  0
  -23.8447    3.1540   26.4473 F   0  0  0  0  0  0  0  0  0  0  0  0
  -25.4810   -1.4576   30.0536 C   0  0  0  0  0  0  0  0  0  0  0  0
  -24.3952   -2.2531   29.8872 C   0  0  0  0  0  0  0  0  0  0  0  0
  -25.5000   -1.0415   31.5258 C   0  0  0  0  0  0  0  0  0  0  0  0
  -28.3560    1.4476   27.0784 C   0  0  0  0  0  0  0  0  0  0  0  0
  -28.4408    2.0130   25.9451 C   0  0  0  0  0  0  0  0  0  0  0  0
  -29.6579    2.2238   25.3288 C   0  0  0  0  0  0  0  0  0  0  0  0
  -30.8305    1.8525   25.9448 C   0  0  0  0  0  0  0  0  0  0  0  0
  -30.7430    1.1944   27.1712 C   0  0  0  0  0  0  0  0  0  0  0  0
  -29.5200    0.9345   27.7485 C   0  0  0  0  0  0  0  0  0  0  0  0
  1  8  1  0
  5  9  1  0
  9 10  1  0
  8 11  1  0
  8 13  1  0
 12 15  1  0
 14 15  1  0
  9 16  1  0
  9 17  1  0
  3 18  1  0
 18 19  2  0
 18 20  1  0
  7 21  1  0
  1  2  1  0
 11 12  1  0
 14 13  1  0
  2  3  2  0
  3  4  1  0
  4  5  2  0
  5  6  1  0
  6  7  2  0
  7  2  1  0
 21 22  2  0
 22 23  1  0
 23 24  2  0
 24 25  1  0
 25 26  2  0
 26 21  1  0
M  END

$$$$
