No_878-gen_results/8p0m/2024-11-26-14-13-15/
     RDKit          3D

  5  4  0  0  0  0  0  0  0  0999 V2000
  -28.1493   -0.8198   28.9079 Cl  0  0  0  0  0  0  0  0  0  0  0  0
  -28.5324   -0.0471   29.7727 C   0  0  0  0  0  0  0  0  0  0  0  0
  -27.6024    0.7852   30.3185 C   0  0  0  0  0  0  0  0  0  0  0  0
  -26.2136    0.8161   29.9375 C   0  0  0  0  0  0  0  0  0  0  0  0
  -25.8920   -0.2038   28.9478 C   0  0  0  0  0  0  0  0  0  0  0  0
  1  2  1  0
  2  3  2  3
  3  4  1  0
  4  5  2  0
M  END

$$$$
