No_867-gen_results/8p0m/2024-11-26-14-13-15/
     RDKit          3D

 23 26  0  0  0  0  0  0  0  0999 V2000
  -28.1229   -1.3353   28.4874 O   0  0  0  0  0  0  0  0  0  0  0  0
  -27.0637   -0.8242   28.8687 C   0  0  0  0  0  0  0  0  0  0  0  0
  -26.0496   -0.9362   28.7578 C   0  0  0  0  0  0  0  0  0  0  0  0
  -24.8633   -0.1668   29.1259 C   0  0  0  0  0  0  0  0  0  0  0  0
  -25.1916    0.9806   29.8736 C   0  0  0  0  0  0  0  0  0  0  0  0
  -26.5062    1.2129   30.1128 C   0  0  0  0  0  0  0  0  0  0  0  0
  -27.4860    0.4548   29.7296 C   0  0  0  0  0  0  0  0  0  0  0  0
  -23.4596   -0.3953   28.9149 C   0  0  0  0  0  0  0  0  0  0  0  0
  -22.5473    0.6462   28.7227 C   0  0  0  0  0  0  0  0  0  0  0  0
  -23.0389    1.9079   29.2727 C   0  0  0  0  0  0  0  0  0  0  0  0
  -24.1901    2.0414   29.9526 C   0  0  0  0  0  0  0  0  0  0  0  0
  -20.9781    0.4765   28.3089 Cl  0  0  0  0  0  0  0  0  0  0  0  0
  -29.3381   -0.6216   28.4589 C   0  0  0  0  0  0  0  0  0  0  0  0
  -28.9988    0.4817   29.3864 C   0  0  0  0  0  0  0  0  0  0  0  0
  -29.4089    1.8931   28.9047 C   0  0  0  0  0  0  0  0  0  0  0  0
  -29.5899    0.1873   30.8433 C   0  0  0  0  0  0  0  0  0  0  0  0
  -29.0157    2.4457   28.0224 C   0  0  0  0  0  0  0  0  0  0  0  0
  -29.4008    3.6717   27.5682 C   0  0  0  0  0  0  0  0  0  0  0  0
  -30.5458    2.4299   29.6525 C   0  0  0  0  0  0  0  0  0  0  0  0
  -31.0299    3.6730   29.2627 C   0  0  0  0  0  0  0  0  0  0  0  0
  -30.4199    4.3147   28.1941 C   0  0  0  0  0  0  0  0  0  0  0  0
  -28.9865   -0.6974   31.5037 C   0  0  0  0  0  0  0  0  0  0  0  0
  -30.8530    0.7595   31.1291 C   0  0  0  0  0  0  0  0  0  0  0  0
  1  2  1  0
  9 12  1  0
  1 13  1  0
  7 14  1  0
 13 14  1  0
 14 15  1  0
 14 16  1  0
 16 22  2  0
 16 23  1  0
  2  3  2  0
  3  4  1  0
  5  6  1  0
  6  7  2  0
  7  2  1  0
  4  5  2  0
  5 11  1  0
 11 10  2  0
 10  9  1  0
  9  8  2  0
  8  4  1  0
 15 17  2  0
 17 18  1  0
 18 21  2  0
 21 20  1  0
 20 19  2  0
 19 15  1  0
M  END

$$$$
