No_862-gen_results/8p0m/2024-11-26-14-13-15/
     RDKit          3D

  9  9  0  0  0  0  0  0  0  0999 V2000
  -28.0162   -0.8135   28.8779 C   0  0  0  0  0  0  0  0  0  0  0  0
  -27.0636   -0.1190   28.6079 C   0  0  0  0  0  0  0  0  0  0  0  0
  -25.7647   -0.3897   29.0360 C   0  0  0  0  0  0  0  0  0  0  0  0
  -25.5296   -1.5302   29.9014 C   0  0  0  0  0  0  0  0  0  0  0  0
  -26.6888   -2.2893   30.1810 C   0  0  0  0  0  0  0  0  0  0  0  0
  -27.8727   -1.9508   29.7373 C   0  0  0  0  0  0  0  0  0  0  0  0
  -24.6273    0.3693   28.7540 N   0  0  0  0  0  0  0  0  0  0  0  0
  -23.3815    0.0449   28.9577 C   0  0  0  0  0  0  0  0  0  0  0  0
  -22.3417    0.9273   28.5562 C   0  0  0  0  0  0  0  0  0  0  0  0
  3  7  1  0
  7  8  2  3
  8  9  1  0
  1  2  2  0
  2  3  1  0
  3  4  2  0
  4  5  1  0
  5  6  2  0
  6  1  1  0
M  END

$$$$
