No_821-gen_results/8p0m/2024-11-26-14-13-15/
     RDKit          3D

 19 20  0  0  0  0  0  0  0  0999 V2000
  -28.0162   -0.8135   28.8779 C   0  0  0  0  0  0  0  0  0  0  0  0
  -27.0636   -0.1189   28.6079 C   0  0  0  0  0  0  0  0  0  0  0  0
  -25.7923   -0.4302   29.0761 C   0  0  0  0  0  0  0  0  0  0  0  0
  -25.5681   -1.2411   29.7572 C   0  0  0  0  0  0  0  0  0  0  0  0
  -26.6114   -2.1840   30.2439 C   0  0  0  0  0  0  0  0  0  0  0  0
  -27.8191   -1.9189   29.8034 C   0  0  0  0  0  0  0  0  0  0  0  0
  -28.8468   -2.7292   30.2056 O   0  0  0  0  0  0  0  0  0  0  0  0
  -30.0273   -2.2113   30.5918 C   0  0  0  0  0  0  0  0  0  0  0  0
  -31.0480   -3.0360   30.2184 C   0  0  0  0  0  0  0  0  0  0  0  0
  -32.1632   -2.4575   29.6879 C   0  0  0  0  0  0  0  0  0  0  0  0
  -32.4104   -1.0536   29.9257 C   0  0  0  0  0  0  0  0  0  0  0  0
  -31.3669   -0.2864   30.3902 C   0  0  0  0  0  0  0  0  0  0  0  0
  -30.1274   -0.8674   30.6886 C   0  0  0  0  0  0  0  0  0  0  0  0
  -27.2912    1.0475   27.6164 C   0  0  0  0  0  0  0  0  0  0  0  0
  -28.0522    1.8125   27.8198 O   0  0  0  0  0  0  0  0  0  0  0  0
  -26.4830    1.0214   26.5904 O   0  0  0  0  0  0  0  0  0  0  0  0
  -30.8814   -4.4832   30.0487 C   0  0  0  0  0  0  0  0  0  0  0  0
  -31.0095   -5.1112   29.0501 O   0  0  0  0  0  0  0  0  0  0  0  0
  -30.2742   -5.0961   31.0931 O   0  0  0  0  0  0  0  0  0  0  0  0
  6  7  1  0
  7  8  1  0
  2 14  1  0
 14 15  2  0
 14 16  1  0
  9 17  1  0
 17 18  2  0
 17 19  1  0
  1  2  2  0
  2  3  1  0
  3  4  2  0
  4  5  1  0
  5  6  2  0
  6  1  1  0
  8  9  2  0
  9 10  1  0
 10 11  2  0
 11 12  1  0
 12 13  2  0
 13  8  1  0
M  END

$$$$
