No_805-gen_results/8p0m/2024-11-26-14-13-15/
     RDKit          3D

 35 36  0  0  0  0  0  0  0  0999 V2000
  -28.0162   -0.8135   28.8779 C   0  0  0  0  0  0  0  0  0  0  0  0
  -28.4690   -0.7850   29.8287 C   0  0  0  0  0  0  0  0  0  0  0  0
  -26.5042   -0.7777   28.8766 C   0  0  0  0  0  0  0  0  0  0  0  0
  -25.6540   -0.6597   27.7191 C   0  0  0  0  0  0  0  0  0  0  0  0
  -27.9180   -0.9374   31.1824 C   0  0  0  0  0  0  0  0  0  0  0  0
  -26.5423   -0.9399   31.2606 C   0  0  0  0  0  0  0  0  0  0  0  0
  -25.7832   -0.8935   30.1201 C   0  0  0  0  0  0  0  0  0  0  0  0
  -25.9259    0.2819   26.7445 C   0  0  0  0  0  0  0  0  0  0  0  0
  -24.9904    0.6776   25.8676 C   0  0  0  0  0  0  0  0  0  0  0  0
  -24.1885    1.6080   25.8479 C   0  0  0  0  0  0  0  0  0  0  0  0
  -23.3296    2.0084   26.8161 C   0  0  0  0  0  0  0  0  0  0  0  0
  -23.7351    1.9424   28.1864 C   0  0  0  0  0  0  0  0  0  0  0  0
  -22.7317    1.8681   29.2307 C   0  0  0  0  0  0  0  0  0  0  0  0
  -22.2149    0.7077   29.3054 C   0  0  0  0  0  0  0  0  0  0  0  0
  -27.1848    0.9320   26.6524 C   0  0  0  0  0  0  0  0  0  0  0  0
  -28.0004    0.5869   25.6343 N   0  0  0  0  0  0  0  0  0  0  0  0
  -28.8448    1.4551   25.1120 C   0  0  0  0  0  0  0  0  0  0  0  0
  -27.6062    1.7205   27.5782 O   0  0  0  0  0  0  0  0  0  0  0  0
  -21.3284    0.2253   28.5742 N   0  0  0  0  0  0  0  0  0  0  0  0
  -22.7025   -0.1943   30.2008 F   0  0  0  0  0  0  0  0  0  0  0  0
  -30.1564    1.2740   25.6429 C   0  0  0  0  0  0  0  0  0  0  0  0
  -30.7017    0.4547   26.0522 C   0  0  0  0  0  0  0  0  0  0  0  0
  -32.0496    0.3118   26.6402 C   0  0  0  0  0  0  0  0  0  0  0  0
  -32.8140    1.4720   26.5162 C   0  0  0  0  0  0  0  0  0  0  0  0
  -32.2942    2.5819   25.9235 C   0  0  0  0  0  0  0  0  0  0  0  0
  -30.9804    2.6243   25.4786 C   0  0  0  0  0  0  0  0  0  0  0  0
  -28.4398    2.2985   24.0879 C   0  0  0  0  0  0  0  0  0  0  0  0
  -24.6686   -1.4481   27.6396 O   0  0  0  0  0  0  0  0  0  0  0  0
  -30.0962   -0.7848   29.9384 C   0  0  0  0  0  0  0  0  0  0  0  0
  -30.6191    0.2710   29.7895 O   0  0  0  0  0  0  0  0  0  0  0  0
  -30.7021   -1.9588   29.8094 O   0  0  0  0  0  0  0  0  0  0  0  0
  -34.2163    1.4560   27.0437 C   0  0  0  0  0  0  0  0  0  0  0  0
  -35.1451    1.1658   26.4760 O   0  0  0  0  0  0  0  0  0  0  0  0
  -34.2842    1.8367   28.4420 N   0  0  0  0  0  0  0  0  0  0  0  0
  -35.5467    1.8165   29.1400 C   0  0  0  0  0  0  0  0  0  0  0  0
  3  4  1  0
  4  8  1  0
  8  9  2  3
  9 10  1  0
 10 11  2  3
 11 12  1  0
 12 13  2  3
 13 14  1  0
  8 15  1  0
 15 16  1  0
 16 17  1  0
 15 18  2  0
 14 19  1  0
 14 20  1  0
 17 21  1  0
 17 27  1  0
  4 28  2  0
  2 29  1  0
 29 30  2  0
 29 31  1  0
 24 32  1  0
 32 33  2  0
 32 34  1  0
 34 35  1  0
  1  2  2  0
  2  5  1  0
  5  6  2  0
  6  7  1  0
  7  3  2  0
  3  1  1  0
 21 22  2  0
 22 23  1  0
 23 24  2  0
 24 25  1  0
 25 26  2  0
 26 21  1  0
M  END

$$$$
