No_87-gen_results/8p0m/2024-11-26-14-13-15/
     RDKit          3D

 20 22  0  0  0  0  0  0  0  0999 V2000
  -28.1229   -1.3353   28.4874 O   0  0  0  0  0  0  0  0  0  0  0  0
  -27.4806   -0.4044   28.7094 C   0  0  0  0  0  0  0  0  0  0  0  0
  -26.4599   -0.1104   28.0051 N   0  0  0  0  0  0  0  0  0  0  0  0
  -25.8102    0.6599   28.0792 C   0  0  0  0  0  0  0  0  0  0  0  0
  -25.8032    1.6173   29.1338 C   0  0  0  0  0  0  0  0  0  0  0  0
  -27.7793    0.2716   29.9469 N   0  0  0  0  0  0  0  0  0  0  0  0
  -26.8846    1.3603   30.1001 C   0  0  0  0  0  0  0  0  0  0  0  0
  -24.6312    1.0496   27.1544 C   0  0  0  0  0  0  0  0  0  0  0  0
  -24.4261    1.3343   26.0762 C   0  0  0  0  0  0  0  0  0  0  0  0
  -23.2065    0.9850   27.8747 C   0  0  0  0  0  0  0  0  0  0  0  0
  -22.0893    1.4770   27.3115 C   0  0  0  0  0  0  0  0  0  0  0  0
  -23.2870    1.8430   25.3570 C   0  0  0  0  0  0  0  0  0  0  0  0
  -22.1162    1.9111   26.0411 C   0  0  0  0  0  0  0  0  0  0  0  0
  -25.6001    1.2855   25.2281 N   0  0  0  0  0  0  0  0  0  0  0  0
  -26.0409    0.1881   24.5254 C   0  0  0  0  0  0  0  0  0  0  0  0
  -27.3696    0.1784   24.1511 C   0  0  0  0  0  0  0  0  0  0  0  0
  -27.9433    1.4674   24.3499 C   0  0  0  0  0  0  0  0  0  0  0  0
  -26.7270    2.1881   25.2909 C   0  0  0  0  0  0  0  0  0  0  0  0
  -27.1012    2.1334   31.1796 F   0  0  0  0  0  0  0  0  0  0  0  0
  -28.8439   -0.0077   30.7596 C   0  0  0  0  0  0  0  0  0  0  0  0
  1  2  2  0
  2  3  1  0
  3  4  1  0
  4  5  1  0
  2  6  1  0
  6  7  1  0
  4  8  1  0
  9 14  1  0
 14 15  1  0
 15 16  2  0
 16 17  1  0
 14 18  1  0
 17 18  2  0
  7 19  1  0
  6 20  1  0
  5  7  1  0
  8  9  2  0
  9 12  1  0
 12 13  2  0
 13 11  1  0
 11 10  2  0
 10  8  1  0
M  END

$$$$
