No_842-gen_results/8p0m/2024-11-26-14-13-15/
     RDKit          3D

 23 26  0  0  0  0  0  0  0  0999 V2000
  -28.0162   -0.8135   28.8779 C   0  0  0  0  0  0  0  0  0  0  0  0
  -28.4690   -0.7850   29.8287 C   0  0  0  0  0  0  0  0  0  0  0  0
  -26.5455   -0.8762   28.8500 C   0  0  0  0  0  0  0  0  0  0  0  0
  -25.8041   -1.0324   30.0571 C   0  0  0  0  0  0  0  0  0  0  0  0
  -24.3697   -1.0998   30.0718 C   0  0  0  0  0  0  0  0  0  0  0  0
  -27.9902   -1.0051   31.2092 C   0  0  0  0  0  0  0  0  0  0  0  0
  -26.5616   -1.1368   31.2600 C   0  0  0  0  0  0  0  0  0  0  0  0
  -23.6342   -0.7826   29.0667 C   0  0  0  0  0  0  0  0  0  0  0  0
  -22.1763   -0.6779   29.1657 C   0  0  0  0  0  0  0  0  0  0  0  0
  -21.4400   -0.1303   28.1207 C   0  0  0  0  0  0  0  0  0  0  0  0
  -22.1014    0.8765   27.3078 C   0  0  0  0  0  0  0  0  0  0  0  0
  -23.5471    0.9961   27.3643 C   0  0  0  0  0  0  0  0  0  0  0  0
  -24.2626    0.3021   28.2488 C   0  0  0  0  0  0  0  0  0  0  0  0
  -25.7334   -0.2934   27.8598 N   0  0  0  0  0  0  0  0  0  0  0  0
  -26.2486    0.3085   26.7029 C   0  0  0  0  0  0  0  0  0  0  0  0
  -25.8198   -0.2036   25.5556 C   0  0  0  0  0  0  0  0  0  0  0  0
  -27.1571    1.2989   26.7349 C   0  0  0  0  0  0  0  0  0  0  0  0
  -27.7235    1.8104   25.6342 C   0  0  0  0  0  0  0  0  0  0  0  0
  -26.3102    0.2421   24.3182 C   0  0  0  0  0  0  0  0  0  0  0  0
  -27.2968    1.2836   24.3750 C   0  0  0  0  0  0  0  0  0  0  0  0
  -30.1001   -0.8034   29.9007 C   0  0  0  0  0  0  0  0  0  0  0  0
  -30.6087   -0.2302   29.0135 O   0  0  0  0  0  0  0  0  0  0  0  0
  -30.7235   -1.3546   30.8443 O   0  0  0  0  0  0  0  0  0  0  0  0
  4  5  1  0
  3 14  1  0
 13 14  1  0
 14 15  1  0
  2 21  1  0
 21 22  2  0
 21 23  1  0
  5  8  1  0
  1  2  2  0
  2  6  1  0
  6  7  2  0
  7  4  1  0
  4  3  2  0
  3  1  1  0
  8  9  2  0
  9 10  1  0
 10 11  2  0
 11 12  1  0
 12 13  2  0
 13  8  1  0
 15 16  2  0
 16 19  1  0
 19 20  2  0
 20 18  1  0
 18 17  2  0
 17 15  1  0
M  END

$$$$
