No_873-gen_results/8p0m/2024-11-26-14-13-15/
     RDKit          3D

 30 33  0  0  0  0  0  0  0  0999 V2000
  -28.0162   -0.8135   28.8779 C   0  0  0  0  0  0  0  0  0  0  0  0
  -28.4690   -0.7850   29.8287 C   0  0  0  0  0  0  0  0  0  0  0  0
  -26.5042   -0.7777   28.8766 C   0  0  0  0  0  0  0  0  0  0  0  0
  -25.8103   -0.8531   30.1028 C   0  0  0  0  0  0  0  0  0  0  0  0
  -27.9906   -0.8916   31.2257 C   0  0  0  0  0  0  0  0  0  0  0  0
  -26.6042   -0.8676   31.2652 C   0  0  0  0  0  0  0  0  0  0  0  0
  -29.9765   -0.8288   29.8497 N   0  0  0  0  0  0  0  0  0  0  0  0
  -30.7393    0.1622   30.2418 C   0  0  0  0  0  0  0  0  0  0  0  0
  -31.5206    0.7065   29.9113 C   0  0  0  0  0  0  0  0  0  0  0  0
  -32.1649    0.3991   28.5785 C   0  0  0  0  0  0  0  0  0  0  0  0
  -31.7013   -0.8335   28.0917 C   0  0  0  0  0  0  0  0  0  0  0  0
  -30.5501   -1.4291   28.7129 C   0  0  0  0  0  0  0  0  0  0  0  0
  -32.2435   -1.4007   26.8624 C   0  0  0  0  0  0  0  0  0  0  0  0
  -32.4965   -2.5259   26.7286 O   0  0  0  0  0  0  0  0  0  0  0  0
  -32.4009   -0.6169   25.7852 O   0  0  0  0  0  0  0  0  0  0  0  0
  -24.1427   -0.9739   30.2911 Cl  0  0  0  0  0  0  0  0  0  0  0  0
  -25.6350   -0.7026   27.6412 C   0  0  0  0  0  0  0  0  0  0  0  0
  -25.2577    0.6263   27.2130 C   0  0  0  0  0  0  0  0  0  0  0  0
  -23.9866    0.9701   27.6004 C   0  0  0  0  0  0  0  0  0  0  0  0
  -23.3733    2.1710   27.0492 C   0  0  0  0  0  0  0  0  0  0  0  0
  -24.1145    2.8775   26.1285 C   0  0  0  0  0  0  0  0  0  0  0  0
  -25.9066    1.2655   26.1908 C   0  0  0  0  0  0  0  0  0  0  0  0
  -25.4198    2.2976   25.7802 C   0  0  0  0  0  0  0  0  0  0  0  0
  -27.1299    0.7742   25.6563 C   0  0  0  0  0  0  0  0  0  0  0  0
  -28.3293    1.3292   26.2609 C   0  0  0  0  0  0  0  0  0  0  0  0
  -29.5866    0.9247   25.7344 C   0  0  0  0  0  0  0  0  0  0  0  0
  -29.6110    0.0863   24.6150 C   0  0  0  0  0  0  0  0  0  0  0  0
  -27.2021   -0.0329   24.5748 C   0  0  0  0  0  0  0  0  0  0  0  0
  -28.4520   -0.3894   24.0873 C   0  0  0  0  0  0  0  0  0  0  0  0
  -28.2735    2.1218   27.2718 F   0  0  0  0  0  0  0  0  0  0  0  0
  2  7  1  0
  7  8  1  0
  9 10  1  0
  7 12  1  0
 11 12  1  0
 11 13  1  0
 13 14  1  0
 13 15  2  0
  4 16  1  0
  3 17  1  0
 17 18  1  0
 22 24  1  0
 25 30  1  0
  8  9  1  0
 10 11  1  0
 18 19  2  0
 19 20  1  0
 20 21  2  0
 21 23  1  0
 23 22  2  0
 22 18  1  0
 24 25  2  0
 25 26  1  0
 26 27  2  0
 27 29  1  0
 29 28  2  0
 28 24  1  0
  1  2  2  0
  2  5  1  0
  5  6  2  0
  6  4  1  0
  4  3  2  0
  3  1  1  0
M  END

$$$$
