No_848-gen_results/8p0m/2024-11-26-14-13-15/
     RDKit          3D

 16 17  0  0  0  0  0  0  0  0999 V2000
  -28.0162   -0.8135   28.8779 C   0  0  0  0  0  0  0  0  0  0  0  0
  -28.4690   -0.7850   29.8287 C   0  0  0  0  0  0  0  0  0  0  0  0
  -27.0871    0.2903   28.6377 C   0  0  0  0  0  0  0  0  0  0  0  0
  -26.9102    0.8486   27.4199 C   0  0  0  0  0  0  0  0  0  0  0  0
  -27.8863   -0.5049   31.0944 C   0  0  0  0  0  0  0  0  0  0  0  0
  -26.9294    0.5930   31.0741 C   0  0  0  0  0  0  0  0  0  0  0  0
  -26.5225    0.9550   29.8008 C   0  0  0  0  0  0  0  0  0  0  0  0
  -25.7212    0.5056   26.8627 C   0  0  0  0  0  0  0  0  0  0  0  0
  -24.6320    1.1945   27.0060 C   0  0  0  0  0  0  0  0  0  0  0  0
  -24.3570    2.2923   26.5474 C   0  0  0  0  0  0  0  0  0  0  0  0
  -23.0993    3.0080   26.7526 C   0  0  0  0  0  0  0  0  0  0  0  0
  -23.4991    0.6997   27.9132 C   0  0  0  0  0  0  0  0  0  0  0  0
  -22.3284    1.3540   28.1398 C   0  0  0  0  0  0  0  0  0  0  0  0
  -22.1727    2.5939   27.4964 C   0  0  0  0  0  0  0  0  0  0  0  0
  -27.8627    1.6151   26.7381 C   0  0  0  0  0  0  0  0  0  0  0  0
  -28.2541    2.8426   27.2164 C   0  0  0  0  0  0  0  0  0  0  0  0
  3  4  1  0
  4  8  1  0
  4 15  1  0
 15 16  1  0
  8  9  1  0
  9 10  2  0
 10 11  1  0
 11 14  2  0
 14 13  1  0
 13 12  2  0
 12  9  1  0
  1  2  2  0
  2  5  1  0
  5  6  2  0
  6  7  1  0
  7  3  2  0
  3  1  1  0
M  END

$$$$
