No_871-gen_results/8p0m/2024-11-26-14-13-15/
     RDKit          3D

 35 38  0  0  0  0  0  0  0  0999 V2000
  -28.0162   -0.8135   28.8779 C   0  0  0  0  0  0  0  0  0  0  0  0
  -28.4690   -0.7850   29.8287 C   0  0  0  0  0  0  0  0  0  0  0  0
  -26.5042   -0.7777   28.8766 C   0  0  0  0  0  0  0  0  0  0  0  0
  -25.8103   -0.8531   30.1028 C   0  0  0  0  0  0  0  0  0  0  0  0
  -27.9906   -0.8916   31.2257 C   0  0  0  0  0  0  0  0  0  0  0  0
  -24.3976   -0.8364   30.1775 C   0  0  0  0  0  0  0  0  0  0  0  0
  -26.5754   -0.8899   31.2661 C   0  0  0  0  0  0  0  0  0  0  0  0
  -23.7708   -0.9176   31.0960 C   0  0  0  0  0  0  0  0  0  0  0  0
  -23.6556   -0.7144   28.8858 C   0  0  0  0  0  0  0  0  0  0  0  0
  -22.2519   -0.5749   28.9404 C   0  0  0  0  0  0  0  0  0  0  0  0
  -22.2946   -0.7720   31.3210 C   0  0  0  0  0  0  0  0  0  0  0  0
  -21.6080   -0.5909   30.1140 C   0  0  0  0  0  0  0  0  0  0  0  0
  -30.0875   -0.7653   29.8507 C   0  0  0  0  0  0  0  0  0  0  0  0
  -30.7673   -1.5755   30.3033 O   0  0  0  0  0  0  0  0  0  0  0  0
  -30.5906    0.2381   29.2148 O   0  0  0  0  0  0  0  0  0  0  0  0
  -31.8375    0.2931   28.7295 C   0  0  0  0  0  0  0  0  0  0  0  0
  -32.7693    0.9213   29.2368 C   0  0  0  0  0  0  0  0  0  0  0  0
  -32.3730    1.9130   30.1772 C   0  0  0  0  0  0  0  0  0  0  0  0
  -31.2848    2.5711   30.1117 C   0  0  0  0  0  0  0  0  0  0  0  0
  -30.7462    3.2819   31.2657 C   0  0  0  0  0  0  0  0  0  0  0  0
  -29.4802    3.9932   31.2156 C   0  0  0  0  0  0  0  0  0  0  0  0
  -28.7545    3.9195   29.9732 C   0  0  0  0  0  0  0  0  0  0  0  0
  -29.2544    3.2305   28.9285 C   0  0  0  0  0  0  0  0  0  0  0  0
  -30.4003    2.5826   29.0346 C   0  0  0  0  0  0  0  0  0  0  0  0
  -31.9730   -0.4440   27.4889 C   0  0  0  0  0  0  0  0  0  0  0  0
  -31.4606    0.0226   26.3695 N   0  0  0  0  0  0  0  0  0  0  0  0
  -31.2243    1.1686   26.0367 C   0  0  0  0  0  0  0  0  0  0  0  0
  -30.5507    1.4764   24.7786 C   0  0  0  0  0  0  0  0  0  0  0  0
  -30.9377   -0.9528   25.3702 C   0  0  0  0  0  0  0  0  0  0  0  0
  -30.3466   -0.7552   24.2047 C   0  0  0  0  0  0  0  0  0  0  0  0
  -30.1127    0.5482   23.9124 C   0  0  0  0  0  0  0  0  0  0  0  0
  -32.7115   -1.4850   27.5337 O   0  0  0  0  0  0  0  0  0  0  0  0
  -28.4206    3.2714   27.7076 C   0  0  0  0  0  0  0  0  0  0  0  0
  -27.1401    3.0895   27.7650 C   0  0  0  0  0  0  0  0  0  0  0  0
  -26.4850    3.7493   28.9305 C   0  0  0  0  0  0  0  0  0  0  0  0
  4  6  1  0
  2 13  1  0
 13 14  2  0
 13 15  1  0
 15 16  1  0
 16 17  2  3
 17 18  1  0
 16 25  1  0
 25 26  1  0
 26 27  1  0
 26 29  1  0
 28 31  1  0
 30 31  1  0
 25 32  2  0
 23 33  1  0
 33 34  2  3
 34 35  1  0
 18 19  1  0
 27 28  1  0
 30 29  1  0
  6  8  2  0
  8 11  1  0
 11 12  2  0
 12 10  1  0
 10  9  2  0
  9  6  1  0
 19 20  2  0
 20 21  1  0
 21 22  2  0
 22 23  1  0
 23 24  2  0
 24 19  1  0
  1  2  2  0
  2  5  1  0
  5  7  2  0
  7  4  1  0
  4  3  2  0
  3  1  1  0
M  END

$$$$
