No_803-gen_results/8p0m/2024-11-26-14-13-15/
     RDKit          3D

 35 38  0  0  0  0  0  0  0  0999 V2000
  -28.0162   -0.8135   28.8779 C   0  0  0  0  0  0  0  0  0  0  0  0
  -28.4690   -0.7850   29.8287 C   0  0  0  0  0  0  0  0  0  0  0  0
  -26.5042   -0.7777   28.8766 C   0  0  0  0  0  0  0  0  0  0  0  0
  -25.6540   -0.6597   27.7191 C   0  0  0  0  0  0  0  0  0  0  0  0
  -27.9180   -0.9374   31.1824 C   0  0  0  0  0  0  0  0  0  0  0  0
  -26.5424   -0.9399   31.2606 C   0  0  0  0  0  0  0  0  0  0  0  0
  -25.7907   -0.9042   30.1750 C   0  0  0  0  0  0  0  0  0  0  0  0
  -25.2127    0.6864   27.4026 C   0  0  0  0  0  0  0  0  0  0  0  0
  -25.3250    1.0854   26.0786 C   0  0  0  0  0  0  0  0  0  0  0  0
  -24.7637    2.3482   25.6894 C   0  0  0  0  0  0  0  0  0  0  0  0
  -24.1042    3.1259   26.6899 C   0  0  0  0  0  0  0  0  0  0  0  0
  -24.4790    1.5192   28.2612 C   0  0  0  0  0  0  0  0  0  0  0  0
  -23.9399    2.6796   27.8933 C   0  0  0  0  0  0  0  0  0  0  0  0
  -30.0552   -0.7542   29.8481 C   0  0  0  0  0  0  0  0  0  0  0  0
  -30.7479   -1.5542   30.3007 O   0  0  0  0  0  0  0  0  0  0  0  0
  -30.5639    0.2651   29.2174 O   0  0  0  0  0  0  0  0  0  0  0  0
  -25.9442    0.3678   25.0536 C   0  0  0  0  0  0  0  0  0  0  0  0
  -26.8696   -0.4613   25.0104 C   0  0  0  0  0  0  0  0  0  0  0  0
  -27.5346   -0.9762   23.8915 C   0  0  0  0  0  0  0  0  0  0  0  0
  -28.6052   -0.1207   23.5190 C   0  0  0  0  0  0  0  0  0  0  0  0
  -29.5045    0.3203   24.5701 C   0  0  0  0  0  0  0  0  0  0  0  0
  -30.4902    0.3481   24.8353 C   0  0  0  0  0  0  0  0  0  0  0  0
  -31.1915    0.9161   25.9578 C   0  0  0  0  0  0  0  0  0  0  0  0
  -30.4413    1.8515   26.6893 C   0  0  0  0  0  0  0  0  0  0  0  0
  -29.0893    2.0856   26.3790 C   0  0  0  0  0  0  0  0  0  0  0  0
  -28.5403    1.4158   25.3182 C   0  0  0  0  0  0  0  0  0  0  0  0
  -28.3313    3.0396   27.1966 C   0  0  0  0  0  0  0  0  0  0  0  0
  -28.8236    4.3276   27.4093 C   0  0  0  0  0  0  0  0  0  0  0  0
  -27.1592    2.6681   27.8826 C   0  0  0  0  0  0  0  0  0  0  0  0
  -26.9825    3.4043   29.2010 C   0  0  0  0  0  0  0  0  0  0  0  0
  -27.1409    4.7271   29.2091 C   0  0  0  0  0  0  0  0  0  0  0  0
  -27.7009    5.2326   28.3165 C   0  0  0  0  0  0  0  0  0  0  0  0
  -26.5533    5.5174   30.3041 C   0  0  0  0  0  0  0  0  0  0  0  0
  -27.1270    6.2601   30.9108 O   0  0  0  0  0  0  0  0  0  0  0  0
  -25.1928    5.2751   30.4899 O   0  0  0  0  0  0  0  0  0  0  0  0
  3  4  1  0
  4  8  1  0
  2 14  1  0
 14 15  2  0
 14 16  1  0
  9 17  1  0
 17 18  2  3
 18 19  1  0
 19 20  1  0
 20 21  1  0
 25 27  1  0
 31 33  1  0
 33 34  1  0
 33 35  2  0
 21 22  2  0
 22 23  1  0
 23 24  2  0
 24 25  1  0
 25 26  2  0
 26 21  1  0
  1  2  2  0
  2  5  1  0
  5  6  2  0
  6  7  1  0
  7  3  2  0
  3  1  1  0
 27 28  2  0
 28 32  1  0
 32 31  2  0
 31 30  1  0
 30 29  2  0
 29 27  1  0
  8  9  1  0
  9 10  2  0
 10 11  1  0
 11 13  2  0
 13 12  1  0
 12  8  2  0
M  END

$$$$
