No_868-gen_results/8p0m/2024-11-26-14-13-15/
     RDKit          3D

 13 14  0  0  0  0  0  0  0  0999 V2000
  -28.0162   -0.8135   28.8779 C   0  0  0  0  0  0  0  0  0  0  0  0
  -27.0636   -0.1189   28.6079 C   0  0  0  0  0  0  0  0  0  0  0  0
  -26.9287    1.1713   29.0083 C   0  0  0  0  0  0  0  0  0  0  0  0
  -27.9560    1.7411   29.7840 C   0  0  0  0  0  0  0  0  0  0  0  0
  -29.0569   -0.3271   29.7466 C   0  0  0  0  0  0  0  0  0  0  0  0
  -28.9828    0.9722   30.1516 C   0  0  0  0  0  0  0  0  0  0  0  0
  -25.7000   -0.5793   27.5849 Cl  0  0  0  0  0  0  0  0  0  0  0  0
  -30.0738    1.4917   31.0292 C   0  0  0  0  0  0  0  0  0  0  0  0
  -31.1112    1.6896   30.9457 C   0  0  0  0  0  0  0  0  0  0  0  0
  -32.0381    2.2455   31.9209 C   0  0  0  0  0  0  0  0  0  0  0  0
  -29.4463    1.8117   32.4309 C   0  0  0  0  0  0  0  0  0  0  0  0
  -30.2519    2.3502   33.4165 C   0  0  0  0  0  0  0  0  0  0  0  0
  -31.5439    2.5719   33.1532 C   0  0  0  0  0  0  0  0  0  0  0  0
  2  7  1  0
  6  8  1  0
  8  9  2  0
  9 10  1  0
 10 13  2  0
 13 12  1  0
 12 11  2  0
 11  8  1  0
  1  2  2  0
  2  3  1  0
  3  4  2  0
  4  6  1  0
  6  5  2  0
  5  1  1  0
M  END

$$$$
