No_894-gen_results/8p0m/2024-11-26-14-13-15/
     RDKit          3D

 18 19  0  0  0  0  0  0  0  0999 V2000
  -28.1229   -1.3353   28.4874 O   0  0  0  0  0  0  0  0  0  0  0  0
  -27.4806   -0.4044   28.7094 C   0  0  0  0  0  0  0  0  0  0  0  0
  -26.3804   -0.0867   27.9394 C   0  0  0  0  0  0  0  0  0  0  0  0
  -27.8993    0.6459   29.6321 N   0  0  0  0  0  0  0  0  0  0  0  0
  -25.1243   -0.5319   28.3714 C   0  0  0  0  0  0  0  0  0  0  0  0
  -24.8017   -1.7099   28.7916 C   0  0  0  0  0  0  0  0  0  0  0  0
  -23.4705   -2.1424   29.1412 C   0  0  0  0  0  0  0  0  0  0  0  0
  -22.4762   -1.2148   28.9743 C   0  0  0  0  0  0  0  0  0  0  0  0
  -22.6752    0.0939   28.5057 C   0  0  0  0  0  0  0  0  0  0  0  0
  -24.0344    0.4457   28.1999 C   0  0  0  0  0  0  0  0  0  0  0  0
  -29.0291    0.3960   30.5087 C   0  0  0  0  0  0  0  0  0  0  0  0
  -29.5175    1.2810   30.9282 C   0  0  0  0  0  0  0  0  0  0  0  0
  -30.7085    1.2237   31.8464 C   0  0  0  0  0  0  0  0  0  0  0  0
  -31.1996   -0.0790   32.0886 C   0  0  0  0  0  0  0  0  0  0  0  0
  -30.5650   -1.1678   31.4898 C   0  0  0  0  0  0  0  0  0  0  0  0
  -29.4466   -0.9837   30.7392 C   0  0  0  0  0  0  0  0  0  0  0  0
  -26.5756    0.5283   26.6511 C   0  0  0  0  0  0  0  0  0  0  0  0
  -26.2481   -0.0468   25.5165 C   0  0  0  0  0  0  0  0  0  0  0  0
  1  2  2  0
  2  3  1  0
  2  4  1  0
  3  5  1  0
  4 11  1  0
  3 17  1  0
 17 18  2  0
 11 12  2  0
 12 13  1  0
 13 14  2  0
 14 15  1  0
 15 16  2  0
 16 11  1  0
  5  6  2  0
  6  7  1  0
  7  8  2  0
  8  9  1  0
  9 10  2  0
 10  5  1  0
M  END

$$$$
