No_846-gen_results/8p0m/2024-11-26-14-13-15/
     RDKit          3D

 35 38  0  0  0  0  0  0  0  0999 V2000
  -28.0162   -0.8135   28.8779 C   0  0  0  0  0  0  0  0  0  0  0  0
  -27.0636   -0.1189   28.6079 C   0  0  0  0  0  0  0  0  0  0  0  0
  -27.0010    0.6913   27.4910 C   0  0  0  0  0  0  0  0  0  0  0  0
  -25.8548    1.4825   27.0830 C   0  0  0  0  0  0  0  0  0  0  0  0
  -24.6901    1.4526   27.8807 C   0  0  0  0  0  0  0  0  0  0  0  0
  -24.7379    0.6010   29.0416 C   0  0  0  0  0  0  0  0  0  0  0  0
  -25.8234   -0.1688   29.3887 C   0  0  0  0  0  0  0  0  0  0  0  0
  -29.2150   -0.1726   29.0132 N   0  0  0  0  0  0  0  0  0  0  0  0
  -30.2463   -0.7736   29.6388 C   0  0  0  0  0  0  0  0  0  0  0  0
  -23.5190    2.2034   27.5550 C   0  0  0  0  0  0  0  0  0  0  0  0
  -23.4378    2.7950   26.4513 O   0  0  0  0  0  0  0  0  0  0  0  0
  -22.4965    2.2757   28.3531 O   0  0  0  0  0  0  0  0  0  0  0  0
  -30.4252   -0.8074   30.8405 C   0  0  0  0  0  0  0  0  0  0  0  0
  -31.3904   -1.5237   31.5287 C   0  0  0  0  0  0  0  0  0  0  0  0
  -31.1385   -1.3158   28.8530 O   0  0  0  0  0  0  0  0  0  0  0  0
  -27.8880   -1.9602   29.3767 O   0  0  0  0  0  0  0  0  0  0  0  0
  -31.5452   -1.5392   32.9289 C   0  0  0  0  0  0  0  0  0  0  0  0
  -30.6281   -0.7737   33.7126 C   0  0  0  0  0  0  0  0  0  0  0  0
  -29.4990   -0.0782   31.7846 C   0  0  0  0  0  0  0  0  0  0  0  0
  -29.6300   -0.0774   33.1389 C   0  0  0  0  0  0  0  0  0  0  0  0
  -28.5646    0.6672   33.7983 C   0  0  0  0  0  0  0  0  0  0  0  0
  -27.9366    1.6085   33.7104 C   0  0  0  0  0  0  0  0  0  0  0  0
  -28.2668    2.5196   32.5638 C   0  0  0  0  0  0  0  0  0  0  0  0
  -27.4464    3.6933   32.3339 C   0  0  0  0  0  0  0  0  0  0  0  0
  -26.3801    3.8541   33.2072 C   0  0  0  0  0  0  0  0  0  0  0  0
  -26.0500    3.0302   34.1984 C   0  0  0  0  0  0  0  0  0  0  0  0
  -26.8036    1.9409   34.4110 C   0  0  0  0  0  0  0  0  0  0  0  0
  -28.1399   -0.1923   35.1041 C   0  0  0  0  0  0  0  0  0  0  0  0
  -26.9342   -0.0933   35.6175 C   0  0  0  0  0  0  0  0  0  0  0  0
  -26.3337    1.0377   35.4510 C   0  0  0  0  0  0  0  0  0  0  0  0
  -27.8074    4.5710   31.2368 C   0  0  0  0  0  0  0  0  0  0  0  0
  -27.5577    5.5999   31.2835 O   0  0  0  0  0  0  0  0  0  0  0  0
  -28.0603    3.8950   30.0470 O   0  0  0  0  0  0  0  0  0  0  0  0
  -26.5681   -0.9500   36.7377 C   0  0  0  0  0  0  0  0  0  0  0  0
  -26.9370   -0.5788   37.9139 F   0  0  0  0  0  0  0  0  0  0  0  0
  1  2  1  0
  1  8  1  0
  8  9  1  0
  5 10  1  0
 10 11  2  0
 10 12  1  0
  9 13  1  0
  9 15  2  0
  1 16  2  0
 20 21  1  0
 24 31  1  0
 31 32  2  0
 31 33  1  0
 29 34  1  0
 34 35  1  0
  2  3  2  0
  3  4  1  0
  4  5  2  0
  5  6  1  0
  6  7  2  0
  7  2  1  0
 22 23  2  0
 23 24  1  0
 24 25  2  0
 25 26  1  0
 26 27  2  0
 21 22  1  0
 22 27  1  0
 27 30  1  0
 30 29  2  0
 29 28  1  0
 28 21  2  0
 13 14  2  0
 14 17  1  0
 17 18  2  0
 18 20  1  0
 20 19  2  0
 19 13  1  0
M  END

$$$$
