No_828-gen_results/8p0m/2024-11-26-14-13-15/
     RDKit          3D

 19 19  0  0  0  0  0  0  0  0999 V2000
  -28.0162   -0.8135   28.8779 C   0  0  0  0  0  0  0  0  0  0  0  0
  -27.0636   -0.1189   28.6079 C   0  0  0  0  0  0  0  0  0  0  0  0
  -25.7923   -0.4302   29.0761 C   0  0  0  0  0  0  0  0  0  0  0  0
  -24.5456    0.3494   28.8225 C   0  0  0  0  0  0  0  0  0  0  0  0
  -24.6586    1.4196   27.8878 C   0  0  0  0  0  0  0  0  0  0  0  0
  -25.9471    1.6811   27.3792 C   0  0  0  0  0  0  0  0  0  0  0  0
  -27.0439    0.9739   27.6871 C   0  0  0  0  0  0  0  0  0  0  0  0
  -29.1797   -0.1202   29.1288 N   0  0  0  0  0  0  0  0  0  0  0  0
  -30.2095   -0.7652   29.7428 C   0  0  0  0  0  0  0  0  0  0  0  0
  -23.4456    2.1545   27.6087 C   0  0  0  0  0  0  0  0  0  0  0  0
  -22.4652    1.9694   28.1876 F   0  0  0  0  0  0  0  0  0  0  0  0
  -23.7055    3.4904   27.5572 F   0  0  0  0  0  0  0  0  0  0  0  0
  -23.1516    1.8448   26.1971 F   0  0  0  0  0  0  0  0  0  0  0  0
  -31.7156   -0.5942   29.2690 Cl  0  0  0  0  0  0  0  0  0  0  0  0
  -29.9430   -1.8623   30.4197 O   0  0  0  0  0  0  0  0  0  0  0  0
  -25.5012   -1.5340   30.0012 C   0  0  0  0  0  0  0  0  0  0  0  0
  -24.6495   -2.3002   29.6666 O   0  0  0  0  0  0  0  0  0  0  0  0
  -26.3794   -1.7686   30.9203 O   0  0  0  0  0  0  0  0  0  0  0  0
  -28.1991    1.3953   27.1719 O   0  0  0  0  0  0  0  0  0  0  0  0
  1  2  1  0
  3  4  1  0
  5  6  1  0
  2  7  1  0
  6  7  1  0
  1  8  1  0
  8  9  1  0
  5 10  1  0
 10 11  1  0
 10 12  1  0
 10 13  1  0
  9 14  1  0
  9 15  2  0
  3 16  1  0
 16 17  2  0
 16 18  1  0
  7 19  2  0
  2  3  1  0
  4  5  1  0
M  END

$$$$
