No_876-gen_results/8p0m/2024-11-26-14-13-15/
     RDKit          3D

 34 37  0  0  0  0  0  0  0  0999 V2000
  -28.0162   -0.8135   28.8779 C   0  0  0  0  0  0  0  0  0  0  0  0
  -28.4690   -0.7850   29.8287 C   0  0  0  0  0  0  0  0  0  0  0  0
  -26.5455   -0.8762   28.8500 C   0  0  0  0  0  0  0  0  0  0  0  0
  -25.8041   -1.0324   30.0571 C   0  0  0  0  0  0  0  0  0  0  0  0
  -27.9437   -0.9869   31.2075 C   0  0  0  0  0  0  0  0  0  0  0  0
  -24.4008   -1.0969   30.0965 C   0  0  0  0  0  0  0  0  0  0  0  0
  -26.5612   -1.0746   31.2270 C   0  0  0  0  0  0  0  0  0  0  0  0
  -23.7736   -1.9137   31.0565 Cl  0  0  0  0  0  0  0  0  0  0  0  0
  -23.8664    0.2048   30.2246 F   0  0  0  0  0  0  0  0  0  0  0  0
  -23.8781   -1.3234   28.7602 F   0  0  0  0  0  0  0  0  0  0  0  0
  -30.0750   -0.6810   29.8790 C   0  0  0  0  0  0  0  0  0  0  0  0
  -30.8528   -1.4367   30.3438 N   0  0  0  0  0  0  0  0  0  0  0  0
  -30.5263   -2.3515   31.1407 C   0  0  0  0  0  0  0  0  0  0  0  0
  -30.4715   -3.6126   30.8040 C   0  0  0  0  0  0  0  0  0  0  0  0
  -29.7743   -4.6412   31.5180 C   0  0  0  0  0  0  0  0  0  0  0  0
  -29.4533   -4.4115   32.8376 C   0  0  0  0  0  0  0  0  0  0  0  0
  -29.6429   -3.1707   33.3845 C   0  0  0  0  0  0  0  0  0  0  0  0
  -30.0650   -2.1418   32.5177 C   0  0  0  0  0  0  0  0  0  0  0  0
  -30.4467    0.3604   29.1330 O   0  0  0  0  0  0  0  0  0  0  0  0
  -32.1540   -1.6810   29.7695 C   0  0  0  0  0  0  0  0  0  0  0  0
  -32.9410   -0.6354   29.5187 C   0  0  0  0  0  0  0  0  0  0  0  0
  -33.3603    0.0792   30.3349 C   0  0  0  0  0  0  0  0  0  0  0  0
  -33.6090   -0.3444   31.6821 C   0  0  0  0  0  0  0  0  0  0  0  0
  -34.0725    0.5263   32.7613 C   0  0  0  0  0  0  0  0  0  0  0  0
  -34.1711    0.0864   34.0872 C   0  0  0  0  0  0  0  0  0  0  0  0
  -33.8455   -1.2615   34.3607 C   0  0  0  0  0  0  0  0  0  0  0  0
  -33.3947   -2.0979   33.3564 C   0  0  0  0  0  0  0  0  0  0  0  0
  -33.2005   -1.6163   32.0802 C   0  0  0  0  0  0  0  0  0  0  0  0
  -33.0326   -3.4863   33.7232 C   0  0  0  0  0  0  0  0  0  0  0  0
  -32.7509   -3.6534   35.0222 C   0  0  0  0  0  0  0  0  0  0  0  0
  -32.4474   -5.0400   35.4351 C   0  0  0  0  0  0  0  0  0  0  0  0
  -32.5209   -6.0193   34.5123 C   0  0  0  0  0  0  0  0  0  0  0  0
  -33.1600   -4.5505   32.9344 C   0  0  0  0  0  0  0  0  0  0  0  0
  -32.9131   -5.8030   33.2856 C   0  0  0  0  0  0  0  0  0  0  0  0
  4  6  1  0
  6  8  1  0
  6  9  1  0
  6 10  1  0
  2 11  1  0
 11 12  1  0
 12 13  1  0
 11 19  2  0
 12 20  1  0
 20 21  1  0
 21 22  1  0
 27 29  1  0
 22 23  1  0
 29 30  2  0
 30 31  1  0
 31 32  2  0
 32 34  1  0
 34 33  2  0
 33 29  1  0
 13 14  2  0
 14 15  1  0
 15 16  2  0
 16 17  1  0
 17 18  2  0
 18 13  1  0
 23 24  2  0
 24 25  1  0
 25 26  2  0
 26 27  1  0
 27 28  2  0
 28 23  1  0
  1  2  2  0
  2  5  1  0
  5  7  2  0
  7  4  1  0
  4  3  2  0
  3  1  1  0
M  END

$$$$
