No_841-gen_results/8p0m/2024-11-26-14-13-15/
     RDKit          3D

 35 38  0  0  0  0  0  0  0  0999 V2000
  -28.0162   -0.8135   28.8779 C   0  0  0  0  0  0  0  0  0  0  0  0
  -27.0636   -0.1190   28.6079 C   0  0  0  0  0  0  0  0  0  0  0  0
  -25.7647   -0.3897   29.0360 C   0  0  0  0  0  0  0  0  0  0  0  0
  -25.5296   -1.5302   29.9014 C   0  0  0  0  0  0  0  0  0  0  0  0
  -26.6888   -2.2893   30.1810 C   0  0  0  0  0  0  0  0  0  0  0  0
  -27.8727   -1.9508   29.7373 C   0  0  0  0  0  0  0  0  0  0  0  0
  -28.9304   -2.7298   30.1154 O   0  0  0  0  0  0  0  0  0  0  0  0
  -24.5394    0.4211   28.7421 C   0  0  0  0  0  0  0  0  0  0  0  0
  -24.5259    1.2743   27.7266 C   0  0  0  0  0  0  0  0  0  0  0  0
  -23.3174    1.9856   27.4033 C   0  0  0  0  0  0  0  0  0  0  0  0
  -22.1311    1.7374   28.0503 C   0  0  0  0  0  0  0  0  0  0  0  0
  -23.3831    0.3148   29.5939 C   0  0  0  0  0  0  0  0  0  0  0  0
  -22.1474    0.9218   29.1533 C   0  0  0  0  0  0  0  0  0  0  0  0
  -28.7772   -3.9940   30.6447 C   0  0  0  0  0  0  0  0  0  0  0  0
  -29.8113   -4.8589   30.2286 C   0  0  0  0  0  0  0  0  0  0  0  0
  -30.8870   -4.3834   30.5946 O   0  0  0  0  0  0  0  0  0  0  0  0
  -32.0372   -4.8679   30.1011 C   0  0  0  0  0  0  0  0  0  0  0  0
  -31.9852   -4.7763   28.8234 C   0  0  0  0  0  0  0  0  0  0  0  0
  -31.2419   -5.7797   28.3233 O   0  0  0  0  0  0  0  0  0  0  0  0
  -33.2800   -3.9991   30.6478 C   0  0  0  0  0  0  0  0  0  0  0  0
  -34.3530   -4.4756   30.6379 O   0  0  0  0  0  0  0  0  0  0  0  0
  -29.8604   -5.4779   28.7774 C   0  0  0  0  0  0  0  0  0  0  0  0
  -32.9630   -4.3552   27.8273 C   0  0  0  0  0  0  0  0  0  0  0  0
  -32.3867   -4.0554   26.4994 C   0  0  0  0  0  0  0  0  0  0  0  0
  -31.8717   -2.6403   26.4142 C   0  0  0  0  0  0  0  0  0  0  0  0
  -31.9493   -1.9335   27.4114 O   0  0  0  0  0  0  0  0  0  0  0  0
  -31.2937   -2.2687   25.3532 O   0  0  0  0  0  0  0  0  0  0  0  0
  -33.0118   -2.7138   31.0633 N   0  0  0  0  0  0  0  0  0  0  0  0
  -34.0427   -1.8110   31.4490 C   0  0  0  0  0  0  0  0  0  0  0  0
  -33.6273   -0.6435   31.5108 C   0  0  0  0  0  0  0  0  0  0  0  0
  -32.2657   -0.1968   31.3392 C   0  0  0  0  0  0  0  0  0  0  0  0
  -31.3245   -1.1770   30.9611 C   0  0  0  0  0  0  0  0  0  0  0  0
  -31.7448   -2.3234   30.8169 C   0  0  0  0  0  0  0  0  0  0  0  0
  -32.3996   -6.2450   30.6235 C   0  0  0  0  0  0  0  0  0  0  0  0
  -32.2395   -6.4647   32.0247 C   0  0  0  0  0  0  0  0  0  0  0  0
  6  7  1  0
  3  8  1  0
  7 14  1  0
 14 15  1  0
 15 16  1  0
 16 17  1  0
 17 18  1  0
 18 19  1  0
 17 20  1  0
 20 21  2  0
 15 22  1  0
 19 22  1  0
 18 23  1  0
 23 24  1  0
 24 25  1  0
 25 26  2  0
 25 27  1  0
 20 28  1  0
 28 29  1  0
 30 31  1  0
 28 33  1  0
 32 33  1  0
 17 34  1  0
 34 35  2  0
 29 30  1  0
 31 32  1  0
  1  2  2  0
  2  3  1  0
  3  4  2  0
  4  5  1  0
  5  6  2  0
  6  1  1  0
  8  9  2  0
  9 10  1  0
 10 11  2  0
 11 13  1  0
 13 12  2  0
 12  8  1  0
M  END

$$$$
