No_879-gen_results/8p0m/2024-11-26-14-13-15/
     RDKit          3D

 28 31  0  0  0  0  0  0  0  0999 V2000
  -28.1229   -1.3353   28.4874 O   0  0  0  0  0  0  0  0  0  0  0  0
  -27.0637   -0.8242   28.8687 C   0  0  0  0  0  0  0  0  0  0  0  0
  -26.4017   -0.0623   28.6224 C   0  0  0  0  0  0  0  0  0  0  0  0
  -26.3011   -1.8482   29.7559 O   0  0  0  0  0  0  0  0  0  0  0  0
  -25.1037    0.3692   28.9776 C   0  0  0  0  0  0  0  0  0  0  0  0
  -24.3436    1.4978   28.5959 C   0  0  0  0  0  0  0  0  0  0  0  0
  -22.9904    1.7185   28.9980 C   0  0  0  0  0  0  0  0  0  0  0  0
  -22.3825    0.6282   29.6530 C   0  0  0  0  0  0  0  0  0  0  0  0
  -23.0246   -0.5397   30.0273 C   0  0  0  0  0  0  0  0  0  0  0  0
  -24.3255   -0.6680   29.6350 C   0  0  0  0  0  0  0  0  0  0  0  0
  -25.1125   -1.8233   30.0571 C   0  0  0  0  0  0  0  0  0  0  0  0
  -24.9369    2.5819   27.7909 C   0  0  0  0  0  0  0  0  0  0  0  0
  -24.5751    2.8654   26.6614 O   0  0  0  0  0  0  0  0  0  0  0  0
  -25.5966    3.5830   28.5179 N   0  0  0  0  0  0  0  0  0  0  0  0
  -26.1052    4.7653   27.8372 C   0  0  0  0  0  0  0  0  0  0  0  0
  -25.9408    3.5086   29.9370 C   0  0  0  0  0  0  0  0  0  0  0  0
  -26.6904    4.3090   30.4479 C   0  0  0  0  0  0  0  0  0  0  0  0
  -26.9505    5.6488   28.5458 C   0  0  0  0  0  0  0  0  0  0  0  0
  -27.1805    5.4752   29.8713 C   0  0  0  0  0  0  0  0  0  0  0  0
  -27.0165    4.1339   31.9584 C   0  0  0  0  0  0  0  0  0  0  0  0
  -28.0031    3.4739   32.3081 N   0  0  0  0  0  0  0  0  0  0  0  0
  -28.3266    3.0084   33.3536 C   0  0  0  0  0  0  0  0  0  0  0  0
  -27.5585    3.4450   34.5248 C   0  0  0  0  0  0  0  0  0  0  0  0
  -26.0102    4.5556   32.9030 C   0  0  0  0  0  0  0  0  0  0  0  0
  -24.7963    5.3008   32.6647 C   0  0  0  0  0  0  0  0  0  0  0  0
  -26.3625    4.2127   34.3109 C   0  0  0  0  0  0  0  0  0  0  0  0
  -24.5050    6.3433   33.1920 O   0  0  0  0  0  0  0  0  0  0  0  0
  -23.7334    4.5957   32.1937 O   0  0  0  0  0  0  0  0  0  0  0  0
  1  2  2  0
  2  3  1  0
  2  4  1  0
  3  5  1  0
  4 11  1  0
 10 11  1  0
  6 12  1  0
 12 13  2  0
 12 14  1  0
 14 15  1  0
 14 16  1  0
 17 19  1  0
 18 19  1  0
 17 20  1  0
 24 25  1  0
 25 27  2  0
 25 28  1  0
 15 18  1  0
 17 16  1  0
  5  6  2  0
  6  7  1  0
  7  8  2  0
  8  9  1  0
  9 10  2  0
 10  5  1  0
 20 21  2  0
 21 22  1  0
 22 23  2  0
 23 26  1  0
 26 24  2  0
 24 20  1  0
M  END

$$$$
