No_834-gen_results/8p0m/2024-11-26-14-13-15/
     RDKit          3D

 34 36  0  0  0  0  0  0  0  0999 V2000
  -28.0162   -0.8135   28.8779 C   0  0  0  0  0  0  0  0  0  0  0  0
  -28.4690   -0.7850   29.8287 C   0  0  0  0  0  0  0  0  0  0  0  0
  -27.1356    0.2359   28.5352 C   0  0  0  0  0  0  0  0  0  0  0  0
  -26.8745    1.2825   29.3982 C   0  0  0  0  0  0  0  0  0  0  0  0
  -27.5070    1.2380   30.6295 C   0  0  0  0  0  0  0  0  0  0  0  0
  -28.3293    0.1745   30.9350 C   0  0  0  0  0  0  0  0  0  0  0  0
  -26.4077    0.3070   27.2259 C   0  0  0  0  0  0  0  0  0  0  0  0
  -26.8748    0.8389   26.2127 C   0  0  0  0  0  0  0  0  0  0  0  0
  -25.0813   -0.2883   27.1835 C   0  0  0  0  0  0  0  0  0  0  0  0
  -28.1776    1.4121   26.1391 C   0  0  0  0  0  0  0  0  0  0  0  0
  -29.1025    1.0983   25.7418 C   0  0  0  0  0  0  0  0  0  0  0  0
  -30.2190    1.5644   25.9110 C   0  0  0  0  0  0  0  0  0  0  0  0
  -30.3595    2.8455   26.5687 C   0  0  0  0  0  0  0  0  0  0  0  0
  -29.2595    3.4644   27.0372 C   0  0  0  0  0  0  0  0  0  0  0  0
  -28.0591    2.7862   26.8899 C   0  0  0  0  0  0  0  0  0  0  0  0
  -26.2067    0.7492   24.9329 C   0  0  0  0  0  0  0  0  0  0  0  0
  -24.1630    0.2037   28.2153 C   0  0  0  0  0  0  0  0  0  0  0  0
  -23.4803    1.3561   28.0192 C   0  0  0  0  0  0  0  0  0  0  0  0
  -22.2178    1.3259   27.8758 C   0  0  0  0  0  0  0  0  0  0  0  0
  -23.9079   -0.6005   29.3524 C   0  0  0  0  0  0  0  0  0  0  0  0
  -21.4509    2.5562   27.6102 C   0  0  0  0  0  0  0  0  0  0  0  0
  -24.1635    2.6455   27.8792 C   0  0  0  0  0  0  0  0  0  0  0  0
  -24.5654    3.4845   27.3786 C   0  0  0  0  0  0  0  0  0  0  0  0
  -24.7096    3.8696   25.6412 Br  0  0  0  0  0  0  0  0  0  0  0  0
  -25.2104    4.6683   28.2280 C   0  0  0  0  0  0  0  0  0  0  0  0
  -25.4676    4.4602   29.4539 N   0  0  0  0  0  0  0  0  0  0  0  0
  -26.0201    5.4459   30.2332 C   0  0  0  0  0  0  0  0  0  0  0  0
  -25.7066    5.9017   27.7036 C   0  0  0  0  0  0  0  0  0  0  0  0
  -26.1531    6.9251   28.4062 C   0  0  0  0  0  0  0  0  0  0  0  0
  -26.3522    6.6798   29.7945 C   0  0  0  0  0  0  0  0  0  0  0  0
  -29.2878    4.8139   27.6854 C   0  0  0  0  0  0  0  0  0  0  0  0
  -28.9215    5.8194   26.9267 C   0  0  0  0  0  0  0  0  0  0  0  0
  -29.6932    4.9030   29.0643 C   0  0  0  0  0  0  0  0  0  0  0  0
  -29.5377    3.9809   30.0024 C   0  0  0  0  0  0  0  0  0  0  0  0
  3  7  1  0
  7  8  1  0
  7  9  1  0
  8 10  1  0
  8 16  1  0
  9 17  1  0
 17 18  1  0
 18 19  2  3
 17 20  1  0
 19 21  1  0
 18 22  1  0
 22 23  2  3
 23 24  1  0
 23 25  1  0
 14 31  1  0
 31 32  1  0
 31 33  1  0
 33 34  1  0
  1  2  2  0
  2  6  1  0
  6  5  2  0
  5  4  1  0
  4  3  2  0
  3  1  1  0
 25 26  2  0
 26 27  1  0
 27 30  2  0
 30 29  1  0
 29 28  2  0
 28 25  1  0
 10 11  2  0
 11 12  1  0
 12 13  2  0
 13 14  1  0
 14 15  2  0
 15 10  1  0
M  END

$$$$
