No_898-gen_results/8p0m/2024-11-26-14-13-15/
     RDKit          3D

 35 37  0  0  0  0  0  0  0  0999 V2000
  -28.1493   -0.8198   28.9079 Cl  0  0  0  0  0  0  0  0  0  0  0  0
  -28.5324   -0.0471   29.7727 C   0  0  0  0  0  0  0  0  0  0  0  0
  -29.7006    0.0350   30.2420 C   0  0  0  0  0  0  0  0  0  0  0  0
  -27.4574    0.8974   30.3816 C   0  0  0  0  0  0  0  0  0  0  0  0
  -26.1303    0.9457   29.9571 C   0  0  0  0  0  0  0  0  0  0  0  0
  -25.3731    1.0557   29.0080 C   0  0  0  0  0  0  0  0  0  0  0  0
  -23.9446    0.9766   28.9515 C   0  0  0  0  0  0  0  0  0  0  0  0
  -23.0954    1.2063   27.8266 C   0  0  0  0  0  0  0  0  0  0  0  0
  -21.6905    1.2113   27.9268 C   0  0  0  0  0  0  0  0  0  0  0  0
  -21.1236    0.3515   28.8728 C   0  0  0  0  0  0  0  0  0  0  0  0
  -21.9256   -0.3026   29.8179 C   0  0  0  0  0  0  0  0  0  0  0  0
  -23.3225   -0.0043   29.8898 C   0  0  0  0  0  0  0  0  0  0  0  0
  -26.0307    1.4577   27.7192 C   0  0  0  0  0  0  0  0  0  0  0  0
  -26.3144    2.7656   27.5381 C   0  0  0  0  0  0  0  0  0  0  0  0
  -25.9144    3.7343   28.4725 C   0  0  0  0  0  0  0  0  0  0  0  0
  -26.1783    5.1448   28.1968 C   0  0  0  0  0  0  0  0  0  0  0  0
  -26.8480    5.4028   27.0192 C   0  0  0  0  0  0  0  0  0  0  0  0
  -27.3177    4.4601   26.1636 C   0  0  0  0  0  0  0  0  0  0  0  0
  -26.9958    3.1740   26.3961 C   0  0  0  0  0  0  0  0  0  0  0  0
  -30.4940   -0.6896   30.3722 N   0  0  0  0  0  0  0  0  0  0  0  0
  -30.1473   -2.0163   30.2948 C   0  0  0  0  0  0  0  0  0  0  0  0
  -26.2499    0.4743   26.7999 C   0  0  0  0  0  0  0  0  0  0  0  0
  -31.2378   -3.0710   29.9534 C   0  0  0  0  0  0  0  0  0  0  0  0
  -30.7447   -4.2215   29.7324 O   0  0  0  0  0  0  0  0  0  0  0  0
  -25.4006    0.1584   25.7827 C   0  0  0  0  0  0  0  0  0  0  0  0
  -25.7951   -0.5528   24.6047 C   0  0  0  0  0  0  0  0  0  0  0  0
  -27.1976   -0.6999   24.4418 C   0  0  0  0  0  0  0  0  0  0  0  0
  -28.1370   -0.0488   25.2190 C   0  0  0  0  0  0  0  0  0  0  0  0
  -27.6942    0.5319   26.4544 C   0  0  0  0  0  0  0  0  0  0  0  0
  -29.7556   -0.2756   24.8872 Cl  0  0  0  0  0  0  0  0  0  0  0  0
  -25.7296    6.1694   29.1425 C   0  0  0  0  0  0  0  0  0  0  0  0
  -25.1847    7.2329   28.7081 O   0  0  0  0  0  0  0  0  0  0  0  0
  -25.6816    5.9455   30.4268 O   0  0  0  0  0  0  0  0  0  0  0  0
  -32.3733   -2.9290   30.1696 O   0  0  0  0  0  0  0  0  0  0  0  0
  -27.9033    1.9934   31.2821 C   0  0  0  0  0  0  0  0  0  0  0  0
  1  2  1  0
  2  3  2  3
  2  4  1  0
  4  5  1  0
  5  6  2  3
  6  7  1  0
  6 13  1  0
  3 20  1  0
 20 21  1  0
 13 22  1  0
 21 23  1  0
 23 24  1  0
 28 30  1  0
 16 31  1  0
 31 32  2  0
 31 33  1  0
 23 34  2  0
  4 35  1  0
 13 14  1  0
 14 15  2  0
 15 16  1  0
 16 17  2  0
 17 18  1  0
 18 19  2  0
 19 14  1  0
 22 25  2  0
 25 26  1  0
 26 27  2  0
 27 28  1  0
 28 29  2  0
 29 22  1  0
  7  8  2  0
  8  9  1  0
  9 10  2  0
 10 11  1  0
 11 12  2  0
 12  7  1  0
M  END

$$$$
