No_830-gen_results/8p0m/2024-11-26-14-13-15/
     RDKit          3D

  5  4  0  0  0  0  0  0  0  0999 V2000
  -28.0727   -1.2542   28.5316 F   0  0  0  0  0  0  0  0  0  0  0  0
  -27.3591   -0.3792   28.7224 C   0  0  0  0  0  0  0  0  0  0  0  0
  -26.3323   -0.6441   29.4520 C   0  0  0  0  0  0  0  0  0  0  0  0
  -26.0196   -2.0052   30.0335 C   0  0  0  0  0  0  0  0  0  0  0  0
  -27.0974   -2.8962   29.8925 C   0  0  0  0  0  0  0  0  0  0  0  0
  1  2  1  0
  2  3  2  3
  3  4  1  0
  4  5  2  0
M  END

$$$$
