No_808-gen_results/8p0m/2024-11-26-14-13-15/
     RDKit          3D

 28 30  0  0  0  0  0  0  0  0999 V2000
  -28.0162   -0.8135   28.8779 C   0  0  0  0  0  0  0  0  0  0  0  0
  -28.4690   -0.7850   29.8287 C   0  0  0  0  0  0  0  0  0  0  0  0
  -27.0871    0.2903   28.6377 C   0  0  0  0  0  0  0  0  0  0  0  0
  -26.8317    1.2487   29.5869 C   0  0  0  0  0  0  0  0  0  0  0  0
  -28.3914    0.0801   31.0065 C   0  0  0  0  0  0  0  0  0  0  0  0
  -27.4940    1.1521   30.7841 C   0  0  0  0  0  0  0  0  0  0  0  0
  -26.2596    0.6039   27.4149 C   0  0  0  0  0  0  0  0  0  0  0  0
  -25.1967    1.0461   27.3445 C   0  0  0  0  0  0  0  0  0  0  0  0
  -24.8438    2.0437   28.4640 C   0  0  0  0  0  0  0  0  0  0  0  0
  -25.5969    2.0134   29.6123 C   0  0  0  0  0  0  0  0  0  0  0  0
  -23.7254    2.7990   28.2392 O   0  0  0  0  0  0  0  0  0  0  0  0
  -29.6089   -1.9347   30.1532 C   0  0  0  0  0  0  0  0  0  0  0  0
  -29.1902   -3.1061   30.5337 O   0  0  0  0  0  0  0  0  0  0  0  0
  -30.7580   -1.7075   30.4721 O   0  0  0  0  0  0  0  0  0  0  0  0
  -31.7291   -2.6072   30.2598 C   0  0  0  0  0  0  0  0  0  0  0  0
  -32.2739   -2.6070   28.9890 C   0  0  0  0  0  0  0  0  0  0  0  0
  -31.8200   -1.7418   28.2648 F   0  0  0  0  0  0  0  0  0  0  0  0
  -32.5696   -3.7067   28.3844 F   0  0  0  0  0  0  0  0  0  0  0  0
  -32.8150   -2.2670   31.2394 N   0  0  0  0  0  0  0  0  0  0  0  0
  -33.3824   -1.0711   31.4123 C   0  0  0  0  0  0  0  0  0  0  0  0
  -33.2431   -3.3241   32.0976 C   0  0  0  0  0  0  0  0  0  0  0  0
  -33.5543   -2.0446   28.9671 F   0  0  0  0  0  0  0  0  0  0  0  0
  -32.2635   -4.0768   32.6500 C   0  0  0  0  0  0  0  0  0  0  0  0
  -32.3079   -4.9728   33.3208 C   0  0  0  0  0  0  0  0  0  0  0  0
  -31.1590   -5.8097   33.9152 C   0  0  0  0  0  0  0  0  0  0  0  0
  -30.0369   -5.6255   33.3690 C   0  0  0  0  0  0  0  0  0  0  0  0
  -29.7913   -4.6262   32.3811 C   0  0  0  0  0  0  0  0  0  0  0  0
  -30.8912   -3.8537   31.9966 C   0  0  0  0  0  0  0  0  0  0  0  0
  9 11  1  0
  2 12  1  0
 12 13  2  0
 12 14  1  0
 14 15  1  0
 15 16  1  0
 16 17  1  0
 16 18  1  0
 15 19  1  0
 19 20  1  0
 19 21  1  0
 16 22  1  0
 21 23  1  0
  4 10  2  0
 10  9  1  0
  9  8  2  0
  8  7  1  0
  7  3  2  0
 23 24  2  0
 24 25  1  0
 25 26  2  0
 26 27  1  0
 27 28  2  0
 28 23  1  0
  1  2  2  0
  2  5  1  0
  5  6  2  0
  6  4  1  0
  4  3  1  0
  3  1  1  0
M  END

$$$$
