No_863-gen_results/8p0m/2024-11-26-14-13-15/
     RDKit          3D

 18 18  0  0  0  0  0  0  0  0999 V2000
  -28.0162   -0.8135   28.8779 C   0  0  0  0  0  0  0  0  0  0  0  0
  -28.4690   -0.7850   29.8287 C   0  0  0  0  0  0  0  0  0  0  0  0
  -26.5455   -0.8762   28.8500 C   0  0  0  0  0  0  0  0  0  0  0  0
  -25.8041   -1.0324   30.0571 C   0  0  0  0  0  0  0  0  0  0  0  0
  -27.9437   -0.9869   31.2075 C   0  0  0  0  0  0  0  0  0  0  0  0
  -26.5825   -1.0386   31.2231 C   0  0  0  0  0  0  0  0  0  0  0  0
  -30.0606   -0.7371   29.9024 C   0  0  0  0  0  0  0  0  0  0  0  0
  -30.4826    0.1163   30.8130 F   0  0  0  0  0  0  0  0  0  0  0  0
  -30.5455   -1.9671   30.1272 F   0  0  0  0  0  0  0  0  0  0  0  0
  -30.4655   -0.3682   28.7137 F   0  0  0  0  0  0  0  0  0  0  0  0
  -25.5524   -0.7786   27.4371 Cl  0  0  0  0  0  0  0  0  0  0  0  0
  -24.5172   -1.1448   30.3201 O   0  0  0  0  0  0  0  0  0  0  0  0
  -23.7849   -0.1589   30.8688 C   0  0  0  0  0  0  0  0  0  0  0  0
  -22.5346    0.1812   30.1641 C   0  0  0  0  0  0  0  0  0  0  0  0
  -24.2334    0.5335   31.9915 C   0  0  0  0  0  0  0  0  0  0  0  0
  -22.1456   -0.5683   29.1068 C   0  0  0  0  0  0  0  0  0  0  0  0
  -22.5364   -1.5757   28.7692 F   0  0  0  0  0  0  0  0  0  0  0  0
  -21.2179   -0.0335   28.3267 F   0  0  0  0  0  0  0  0  0  0  0  0
  2  7  1  0
  7  8  1  0
  7  9  1  0
  7 10  1  0
  3 11  1  0
  4 12  1  0
 12 13  1  0
 13 14  2  3
 13 15  1  0
 14 16  1  0
 16 17  1  0
 16 18  1  0
  1  2  2  0
  2  5  1  0
  5  6  2  0
  6  4  1  0
  4  3  2  0
  3  1  1  0
M  END

$$$$
