No_890-gen_results/8p0m/2024-11-26-14-13-15/
     RDKit          3D

 17 18  0  0  0  0  0  0  0  0999 V2000
  -28.0162   -0.8135   28.8779 C   0  0  0  0  0  0  0  0  0  0  0  0
  -28.4690   -0.7850   29.8287 C   0  0  0  0  0  0  0  0  0  0  0  0
  -27.0871    0.2903   28.6377 C   0  0  0  0  0  0  0  0  0  0  0  0
  -26.8317    1.2487   29.5869 C   0  0  0  0  0  0  0  0  0  0  0  0
  -28.3914    0.0801   31.0065 C   0  0  0  0  0  0  0  0  0  0  0  0
  -27.4940    1.1521   30.7841 C   0  0  0  0  0  0  0  0  0  0  0  0
  -26.3172    0.3994   27.3653 C   0  0  0  0  0  0  0  0  0  0  0  0
  -24.9405    0.2550   27.5028 C   0  0  0  0  0  0  0  0  0  0  0  0
  -24.2773   -0.0733   28.6806 C   0  0  0  0  0  0  0  0  0  0  0  0
  -23.1298    0.4250   29.0471 C   0  0  0  0  0  0  0  0  0  0  0  0
  -22.3500    1.0721   27.9668 C   0  0  0  0  0  0  0  0  0  0  0  0
  -23.0164    1.5173   26.8178 C   0  0  0  0  0  0  0  0  0  0  0  0
  -24.2980    1.2279   26.6200 C   0  0  0  0  0  0  0  0  0  0  0  0
  -26.9892    0.2939   26.1659 C   0  0  0  0  0  0  0  0  0  0  0  0
  -27.1460    1.5031   25.7961 F   0  0  0  0  0  0  0  0  0  0  0  0
  -26.2479   -0.3705   25.3937 F   0  0  0  0  0  0  0  0  0  0  0  0
  -28.2323   -0.1949   26.2468 F   0  0  0  0  0  0  0  0  0  0  0  0
  3  7  1  0
  7 14  1  0
 14 15  1  0
 14 16  1  0
 14 17  1  0
  7  8  1  0
  8  9  2  0
  9 10  1  0
 10 11  2  0
 11 12  1  0
 12 13  2  0
 13  8  1  0
  1  2  2  0
  2  5  1  0
  5  6  2  0
  6  4  1  0
  4  3  2  0
  3  1  1  0
M  END

$$$$
