No_811-gen_results/8p0m/2024-11-26-14-13-15/
     RDKit          3D

 10  9  0  0  0  0  0  0  0  0999 V2000
  -28.1493   -0.8198   28.9079 Cl  0  0  0  0  0  0  0  0  0  0  0  0
  -28.5324   -0.0471   29.7727 C   0  0  0  0  0  0  0  0  0  0  0  0
  -27.6515    0.7172   30.3086 F   0  0  0  0  0  0  0  0  0  0  0  0
  -29.2530   -0.6893   30.9723 C   0  0  0  0  0  0  0  0  0  0  0  0
  -29.4537    0.8274   29.2449 F   0  0  0  0  0  0  0  0  0  0  0  0
  -30.4566   -1.1340   30.9901 C   0  0  0  0  0  0  0  0  0  0  0  0
  -29.0847    0.1509   32.2505 C   0  0  0  0  0  0  0  0  0  0  0  0
  -28.2943   -1.9413   31.3067 C   0  0  0  0  0  0  0  0  0  0  0  0
  -29.3327   -0.2132   33.3230 C   0  0  0  0  0  0  0  0  0  0  0  0
  -27.5113   -2.4818   30.4096 C   0  0  0  0  0  0  0  0  0  0  0  0
  1  2  1  0
  2  3  1  0
  2  4  1  0
  2  5  1  0
  4  6  1  0
  4  7  1  0
  4  8  1  0
  7  9  1  0
  8 10  1  0
M  END

$$$$
