No_874-gen_results/8p0m/2024-11-26-14-13-15/
     RDKit          3D

 17 17  0  0  0  0  0  0  0  0999 V2000
  -28.0162   -0.8135   28.8779 C   0  0  0  0  0  0  0  0  0  0  0  0
  -28.4690   -0.7850   29.8287 C   0  0  0  0  0  0  0  0  0  0  0  0
  -27.1356    0.2359   28.5352 C   0  0  0  0  0  0  0  0  0  0  0  0
  -26.8745    1.2825   29.3982 C   0  0  0  0  0  0  0  0  0  0  0  0
  -28.3613    0.1987   30.9244 C   0  0  0  0  0  0  0  0  0  0  0  0
  -27.5277    1.2234   30.6356 C   0  0  0  0  0  0  0  0  0  0  0  0
  -26.3879    0.2914   27.2334 C   0  0  0  0  0  0  0  0  0  0  0  0
  -25.7787   -0.5228   27.0340 F   0  0  0  0  0  0  0  0  0  0  0  0
  -27.4096    0.4971   26.2409 F   0  0  0  0  0  0  0  0  0  0  0  0
  -25.6634    1.5011   26.9967 F   0  0  0  0  0  0  0  0  0  0  0  0
  -29.3015   -2.1096   30.1659 C   0  0  0  0  0  0  0  0  0  0  0  0
  -28.8716   -3.2308   30.3498 O   0  0  0  0  0  0  0  0  0  0  0  0
  -30.5063   -1.9099   30.5164 O   0  0  0  0  0  0  0  0  0  0  0  0
  -27.3026    2.3297   31.6122 C   0  0  0  0  0  0  0  0  0  0  0  0
  -27.8198    2.3708   32.6820 F   0  0  0  0  0  0  0  0  0  0  0  0
  -25.9211    2.2727   31.8555 F   0  0  0  0  0  0  0  0  0  0  0  0
  -27.4740    3.5073   30.9405 F   0  0  0  0  0  0  0  0  0  0  0  0
  3  7  1  0
  7  8  1  0
  7  9  1  0
  7 10  1  0
  2 11  1  0
 11 12  2  0
 11 13  1  0
  6 14  1  0
 14 15  1  0
 14 16  1  0
 14 17  1  0
  1  2  2  0
  2  5  1  0
  5  6  2  0
  6  4  1  0
  4  3  2  0
  3  1  1  0
M  END

$$$$
