No_815-gen_results/8p0m/2024-11-26-14-13-15/
     RDKit          3D

 21 24  0  0  0  0  0  0  0  0999 V2000
  -28.0162   -0.8135   28.8779 C   0  0  0  0  0  0  0  0  0  0  0  0
  -27.0636   -0.1189   28.6079 C   0  0  0  0  0  0  0  0  0  0  0  0
  -25.7923   -0.4302   29.0761 C   0  0  0  0  0  0  0  0  0  0  0  0
  -25.5756   -1.5654   29.9363 C   0  0  0  0  0  0  0  0  0  0  0  0
  -26.7354   -2.3004   30.2173 C   0  0  0  0  0  0  0  0  0  0  0  0
  -27.9184   -1.9537   29.7629 C   0  0  0  0  0  0  0  0  0  0  0  0
  -27.1057    1.1023   27.7593 C   0  0  0  0  0  0  0  0  0  0  0  0
  -27.8512    1.5044   27.1726 N   0  0  0  0  0  0  0  0  0  0  0  0
  -25.7263    1.8954   27.5924 C   0  0  0  0  0  0  0  0  0  0  0  0
  -24.6782    1.7464   28.2086 C   0  0  0  0  0  0  0  0  0  0  0  0
  -24.5723    0.3758   28.9827 C   0  0  0  0  0  0  0  0  0  0  0  0
  -29.0534    0.9955   27.1913 C   0  0  0  0  0  0  0  0  0  0  0  0
  -23.2510    0.0895   29.5734 C   0  0  0  0  0  0  0  0  0  0  0  0
  -22.1155    0.1888   28.6991 C   0  0  0  0  0  0  0  0  0  0  0  0
  -29.8351    1.1739   25.9620 C   0  0  0  0  0  0  0  0  0  0  0  0
  -27.8604    2.6436   26.2699 C   0  0  0  0  0  0  0  0  0  0  0  0
  -28.6735    2.7201   25.1360 C   0  0  0  0  0  0  0  0  0  0  0  0
  -29.8298    2.1680   25.1692 C   0  0  0  0  0  0  0  0  0  0  0  0
  -21.7884    1.3320   27.9367 C   0  0  0  0  0  0  0  0  0  0  0  0
  -22.5875    2.1287   27.1120 C   0  0  0  0  0  0  0  0  0  0  0  0
  -23.9290    2.3078   27.4147 C   0  0  0  0  0  0  0  0  0  0  0  0
  7  8  1  0
  8 12  1  0
 11 13  1  0
 13 14  1  0
  8 16  1  0
 15 18  1  0
 17 18  1  0
 14 19  1  0
 19 20  2  0
 10 21  1  0
 20 21  1  0
 12 15  1  0
 17 16  1  0
  3 11  1  0
 11 10  2  0
 10  9  1  0
  9  7  2  0
  7  2  1  0
  1  2  2  0
  2  3  1  0
  3  4  2  0
  4  5  1  0
  5  6  2  0
  6  1  1  0
M  END

$$$$
