No_859-gen_results/8p0m/2024-11-26-14-13-15/
     RDKit          3D

 19 21  0  0  0  0  0  0  0  0999 V2000
  -28.0162   -0.8135   28.8779 C   0  0  0  0  0  0  0  0  0  0  0  0
  -28.4690   -0.7850   29.8287 C   0  0  0  0  0  0  0  0  0  0  0  0
  -27.0871    0.2903   28.6377 C   0  0  0  0  0  0  0  0  0  0  0  0
  -26.2516    0.4114   27.4223 C   0  0  0  0  0  0  0  0  0  0  0  0
  -28.3913    0.1041   30.9805 C   0  0  0  0  0  0  0  0  0  0  0  0
  -27.5332    1.1666   30.7866 C   0  0  0  0  0  0  0  0  0  0  0  0
  -26.8281    1.2557   29.6454 C   0  0  0  0  0  0  0  0  0  0  0  0
  -25.6444    1.6653   27.2216 C   0  0  0  0  0  0  0  0  0  0  0  0
  -25.4280    2.5904   28.2367 C   0  0  0  0  0  0  0  0  0  0  0  0
  -26.1083    2.4673   29.4212 C   0  0  0  0  0  0  0  0  0  0  0  0
  -25.8864    3.5250   30.4298 C   0  0  0  0  0  0  0  0  0  0  0  0
  -25.1114    3.2917   31.3388 O   0  0  0  0  0  0  0  0  0  0  0  0
  -26.6073    4.6252   30.3808 N   0  0  0  0  0  0  0  0  0  0  0  0
  -26.4438    5.6859   31.4093 C   0  0  0  0  0  0  0  0  0  0  0  0
  -27.5418    4.9160   29.3329 C   0  0  0  0  0  0  0  0  0  0  0  0
  -27.0133    6.5618   31.4122 C   0  0  0  0  0  0  0  0  0  0  0  0
  -28.3094    6.1354   29.4982 C   0  0  0  0  0  0  0  0  0  0  0  0
  -28.0090    7.0002   30.5037 C   0  0  0  0  0  0  0  0  0  0  0  0
  -24.7165    3.6646   27.9595 F   0  0  0  0  0  0  0  0  0  0  0  0
 10 11  1  0
 11 12  2  0
 11 13  1  0
 13 14  1  0
 13 15  1  0
 16 18  1  0
 17 18  1  0
  9 19  1  0
 14 16  1  0
 17 15  1  0
  1  2  2  0
  2  5  1  0
  5  6  2  0
  6  7  1  0
  3  1  1  0
  3  4  2  0
  4  8  1  0
  8  9  2  0
  9 10  1  0
 10  7  2  0
  7  3  1  0
M  END

$$$$
