No_813-gen_results/8p0m/2024-11-26-14-13-15/
     RDKit          3D

 16 17  0  0  0  0  0  0  0  0999 V2000
  -28.0162   -0.8135   28.8779 C   0  0  0  0  0  0  0  0  0  0  0  0
  -28.4690   -0.7850   29.8287 C   0  0  0  0  0  0  0  0  0  0  0  0
  -28.1960    0.3478   28.0550 C   0  0  0  0  0  0  0  0  0  0  0  0
  -29.0191    1.3501   28.3782 C   0  0  0  0  0  0  0  0  0  0  0  0
  -29.6249    1.2683   29.6012 C   0  0  0  0  0  0  0  0  0  0  0  0
  -29.3821    0.1816   30.4004 C   0  0  0  0  0  0  0  0  0  0  0  0
  -27.4591    0.3787   26.7048 C   0  0  0  0  0  0  0  0  0  0  0  0
  -26.1349    0.3565   26.8182 C   0  0  0  0  0  0  0  0  0  0  0  0
  -25.3220    1.3160   27.3781 C   0  0  0  0  0  0  0  0  0  0  0  0
  -25.5803    2.4992   27.4135 C   0  0  0  0  0  0  0  0  0  0  0  0
  -24.8509    3.4586   27.8735 C   0  0  0  0  0  0  0  0  0  0  0  0
  -23.5764    3.0517   28.2124 N   0  0  0  0  0  0  0  0  0  0  0  0
  -23.9226    1.1209   27.8510 C   0  0  0  0  0  0  0  0  0  0  0  0
  -23.0955    1.9344   28.2648 C   0  0  0  0  0  0  0  0  0  0  0  0
  -28.1237    0.5948   25.5531 C   0  0  0  0  0  0  0  0  0  0  0  0
  -29.3305    1.5071   25.2872 Cl  0  0  0  0  0  0  0  0  0  0  0  0
  3  7  1  0
  7  8  1  0
  8  9  1  0
  7 15  1  0
 15 16  1  0
  1  2  2  0
  2  6  1  0
  6  5  2  0
  5  4  1  0
  4  3  2  0
  3  1  1  0
  9 10  2  0
 10 11  1  0
 11 12  2  0
 12 14  1  0
 14 13  2  0
 13  9  1  0
M  END

$$$$
