No_824-gen_results/8p0m/2024-11-26-14-13-15/
     RDKit          3D

 19 20  0  0  0  0  0  0  0  0999 V2000
  -28.0162   -0.8135   28.8779 C   0  0  0  0  0  0  0  0  0  0  0  0
  -28.4690   -0.7850   29.8287 C   0  0  0  0  0  0  0  0  0  0  0  0
  -27.1356    0.2359   28.5352 C   0  0  0  0  0  0  0  0  0  0  0  0
  -26.8745    1.2825   29.3982 C   0  0  0  0  0  0  0  0  0  0  0  0
  -27.5070    1.2380   30.6295 C   0  0  0  0  0  0  0  0  0  0  0  0
  -28.3293    0.1745   30.9350 C   0  0  0  0  0  0  0  0  0  0  0  0
  -26.4077    0.3070   27.2259 C   0  0  0  0  0  0  0  0  0  0  0  0
  -25.4085   -0.3655   27.2512 F   0  0  0  0  0  0  0  0  0  0  0  0
  -26.0182    1.5819   26.8795 F   0  0  0  0  0  0  0  0  0  0  0  0
  -27.2405   -0.0415   26.1784 F   0  0  0  0  0  0  0  0  0  0  0  0
  -29.3814   -2.0267   30.3338 C   0  0  0  0  0  0  0  0  0  0  0  0
  -30.4030   -2.2503   29.9897 O   0  0  0  0  0  0  0  0  0  0  0  0
  -28.7733   -2.9075   31.2401 O   0  0  0  0  0  0  0  0  0  0  0  0
  -27.2447    2.3314   31.5987 C   0  0  0  0  0  0  0  0  0  0  0  0
  -27.1820    3.4742   31.5299 C   0  0  0  0  0  0  0  0  0  0  0  0
  -26.7826    4.4690   32.5163 C   0  0  0  0  0  0  0  0  0  0  0  0
  -26.5675    3.9877   33.8086 C   0  0  0  0  0  0  0  0  0  0  0  0
  -26.9083    1.7486   33.0159 C   0  0  0  0  0  0  0  0  0  0  0  0
  -26.6496    2.6275   34.0508 C   0  0  0  0  0  0  0  0  0  0  0  0
  3  7  1  0
  7  8  1  0
  7  9  1  0
  7 10  1  0
  2 11  1  0
 11 12  1  0
 11 13  2  0
  5 14  1  0
  1  2  2  0
  2  6  1  0
  6  5  2  0
  5  4  1  0
  4  3  2  0
  3  1  1  0
 14 15  2  0
 15 16  1  0
 16 17  2  0
 17 19  1  0
 19 18  2  0
 18 14  1  0
M  END

$$$$
