No_829-gen_results/8p0m/2024-11-26-14-13-15/
     RDKit          3D

 16 17  0  0  0  0  0  0  0  0999 V2000
  -28.1493   -0.8198   28.9079 Cl  0  0  0  0  0  0  0  0  0  0  0  0
  -26.9116   -0.0797   28.9452 C   0  0  0  0  0  0  0  0  0  0  0  0
  -26.0490   -0.0718   27.8591 C   0  0  0  0  0  0  0  0  0  0  0  0
  -24.7194    0.4034   27.9174 C   0  0  0  0  0  0  0  0  0  0  0  0
  -24.2099    0.9302   29.0839 C   0  0  0  0  0  0  0  0  0  0  0  0
  -25.0231    0.9078   30.1875 C   0  0  0  0  0  0  0  0  0  0  0  0
  -26.2532    0.3904   30.1401 C   0  0  0  0  0  0  0  0  0  0  0  0
  -22.8500    1.4479   29.0593 C   0  0  0  0  0  0  0  0  0  0  0  0
  -21.9336    1.3302   28.5710 O   0  0  0  0  0  0  0  0  0  0  0  0
  -22.8089    2.4184   30.2004 O   0  0  0  0  0  0  0  0  0  0  0  0
  -27.0814    0.3303   31.4314 C   0  0  0  0  0  0  0  0  0  0  0  0
  -27.5310    1.3651   31.8078 C   0  0  0  0  0  0  0  0  0  0  0  0
  -28.2917    1.4047   33.0650 C   0  0  0  0  0  0  0  0  0  0  0  0
  -28.5412    0.1444   33.6591 C   0  0  0  0  0  0  0  0  0  0  0  0
  -28.0886   -0.9984   33.1666 C   0  0  0  0  0  0  0  0  0  0  0  0
  -27.2973   -0.9942   31.9840 C   0  0  0  0  0  0  0  0  0  0  0  0
  1  2  1  0
  5  8  1  0
  8  9  2  0
  8 10  1  0
  7 11  1  0
 11 12  2  0
 12 13  1  0
 13 14  2  0
 14 15  1  0
 15 16  2  0
 16 11  1  0
  2  3  2  0
  3  4  1  0
  4  5  2  0
  5  6  1  0
  6  7  2  0
  7  2  1  0
M  END

$$$$
