No_884-gen_results/8p0m/2024-11-26-14-13-15/
     RDKit          3D

 18 20  0  0  0  0  0  0  0  0999 V2000
  -28.1229   -1.3353   28.4874 O   0  0  0  0  0  0  0  0  0  0  0  0
  -27.4806   -0.4044   28.7094 C   0  0  0  0  0  0  0  0  0  0  0  0
  -26.3804   -0.0867   27.9394 C   0  0  0  0  0  0  0  0  0  0  0  0
  -27.6664    0.4468   29.8988 N   0  0  0  0  0  0  0  0  0  0  0  0
  -25.1773   -0.4388   28.3946 C   0  0  0  0  0  0  0  0  0  0  0  0
  -26.5259    0.6036   26.6867 C   0  0  0  0  0  0  0  0  0  0  0  0
  -23.9372    0.0372   27.6524 C   0  0  0  0  0  0  0  0  0  0  0  0
  -25.3818    0.9698   25.9434 C   0  0  0  0  0  0  0  0  0  0  0  0
  -24.1031    0.7250   26.4412 C   0  0  0  0  0  0  0  0  0  0  0  0
  -28.7588    0.1102   30.7851 C   0  0  0  0  0  0  0  0  0  0  0  0
  -26.8485    1.5208   30.1933 C   0  0  0  0  0  0  0  0  0  0  0  0
  -27.1731    2.5424   30.3599 C   0  0  0  0  0  0  0  0  0  0  0  0
  -26.2504    3.5279   30.7712 C   0  0  0  0  0  0  0  0  0  0  0  0
  -24.8621    3.2182   30.7115 C   0  0  0  0  0  0  0  0  0  0  0  0
  -24.4850    1.9599   30.4513 C   0  0  0  0  0  0  0  0  0  0  0  0
  -25.4511    1.0778   30.2436 C   0  0  0  0  0  0  0  0  0  0  0  0
  -25.0021    0.1915   29.9697 C   0  0  0  0  0  0  0  0  0  0  0  0
  -27.8375    0.8569   26.1537 C   0  0  0  0  0  0  0  0  0  0  0  0
  1  2  2  0
  2  3  1  0
  2  4  1  0
  4 10  1  0
  4 11  1  0
  5 17  1  0
 16 17  1  0
  6 18  1  0
 11 12  2  0
 12 13  1  0
 13 14  2  0
 14 15  1  0
 15 16  2  0
 16 11  1  0
  3  5  2  0
  5  7  1  0
  7  9  2  0
  9  8  1  0
  8  6  2  0
  6  3  1  0
M  END

$$$$
