No_820-gen_results/8p0m/2024-11-26-14-13-15/
     RDKit          3D

 15 16  0  0  0  0  0  0  0  0999 V2000
  -28.0162   -0.8135   28.8779 C   0  0  0  0  0  0  0  0  0  0  0  0
  -27.0636   -0.1190   28.6079 C   0  0  0  0  0  0  0  0  0  0  0  0
  -26.9287    1.1713   29.0083 C   0  0  0  0  0  0  0  0  0  0  0  0
  -27.9560    1.7411   29.7840 C   0  0  0  0  0  0  0  0  0  0  0  0
  -29.0569   -0.3271   29.7466 C   0  0  0  0  0  0  0  0  0  0  0  0
  -28.9828    0.9722   30.1516 C   0  0  0  0  0  0  0  0  0  0  0  0
  -25.7989   -0.9116   27.7610 Cl  0  0  0  0  0  0  0  0  0  0  0  0
  -29.9734    1.4460   30.9152 F   0  0  0  0  0  0  0  0  0  0  0  0
  -25.7131    1.9963   28.5625 C   0  0  0  0  0  0  0  0  0  0  0  0
  -25.7228    3.3235   28.6474 C   0  0  0  0  0  0  0  0  0  0  0  0
  -26.0726    3.9988   29.6666 N   0  0  0  0  0  0  0  0  0  0  0  0
  -26.0758    5.4156   29.6476 C   0  0  0  0  0  0  0  0  0  0  0  0
  -25.3563    4.0590   27.5560 N   0  0  0  0  0  0  0  0  0  0  0  0
  -25.2714    5.4035   27.4470 C   0  0  0  0  0  0  0  0  0  0  0  0
  -25.6232    6.1228   28.5646 C   0  0  0  0  0  0  0  0  0  0  0  0
  2  7  1  0
  6  8  1  0
  3  9  1  0
  9 10  1  0
  1  2  2  0
  2  3  1  0
  3  4  2  0
  4  6  1  0
  6  5  2  0
  5  1  1  0
 10 11  2  0
 11 12  1  0
 12 15  2  0
 15 14  1  0
 14 13  2  0
 13 10  1  0
M  END

$$$$
