No_892-gen_results/8p0m/2024-11-26-14-13-15/
     RDKit          3D

 22 22  0  0  0  0  0  0  0  0999 V2000
  -28.0162   -0.8135   28.8779 C   0  0  0  0  0  0  0  0  0  0  0  0
  -27.0636   -0.1189   28.6079 C   0  0  0  0  0  0  0  0  0  0  0  0
  -26.9528    1.3495   28.8384 Cl  0  0  0  0  0  0  0  0  0  0  0  0
  -28.3373   -0.6768   30.3443 C   0  0  0  0  0  0  0  0  0  0  0  0
  -29.3166   -1.2911   30.8396 C   0  0  0  0  0  0  0  0  0  0  0  0
  -29.9748   -2.2898   30.0427 C   0  0  0  0  0  0  0  0  0  0  0  0
  -31.0247   -3.0760   30.7146 C   0  0  0  0  0  0  0  0  0  0  0  0
  -31.2614   -2.8843   31.8300 C   0  0  0  0  0  0  0  0  0  0  0  0
  -30.7112   -1.9939   32.7524 C   0  0  0  0  0  0  0  0  0  0  0  0
  -29.6837   -1.2276   32.2609 C   0  0  0  0  0  0  0  0  0  0  0  0
  -25.7868   -0.6933   28.9734 F   0  0  0  0  0  0  0  0  0  0  0  0
  -26.8727   -0.2875   27.1478 F   0  0  0  0  0  0  0  0  0  0  0  0
  -31.6596   -4.0805   29.8122 C   0  0  0  0  0  0  0  0  0  0  0  0
  -31.2567   -5.1999   29.6489 O   0  0  0  0  0  0  0  0  0  0  0  0
  -32.6470   -3.6724   28.9319 N   0  0  0  0  0  0  0  0  0  0  0  0
  -33.2252   -4.5326   27.9690 C   0  0  0  0  0  0  0  0  0  0  0  0
  -33.2207   -2.3242   28.9917 C   0  0  0  0  0  0  0  0  0  0  0  0
  -33.0024   -1.5125   28.0647 C   0  0  0  0  0  0  0  0  0  0  0  0
  -32.9198   -1.6769   26.7982 C   0  0  0  0  0  0  0  0  0  0  0  0
  -33.2154   -0.6700   25.8934 C   0  0  0  0  0  0  0  0  0  0  0  0
  -33.0919    0.6543   26.2442 C   0  0  0  0  0  0  0  0  0  0  0  0
  -33.1073    0.9626   27.6210 C   0  0  0  0  0  0  0  0  0  0  0  0
  1  2  1  0
  2  3  1  0
  1  4  1  0
  2 11  1  0
  2 12  1  0
  7 13  1  0
 13 14  2  0
 13 15  1  0
 15 16  1  0
 15 17  1  0
 17 18  2  3
 18 19  1  0
 19 20  2  3
 20 21  1  0
 21 22  2  0
  4  5  1  0
  5  6  2  0
  6  7  1  0
  7  8  2  0
  8  9  1  0
  9 10  2  0
 10  5  1  0
M  END

$$$$
