No_858-gen_results/8p0m/2024-11-26-14-13-15/
     RDKit          3D

 35 38  0  0  0  0  0  0  0  0999 V2000
  -28.0162   -0.8135   28.8779 C   0  0  0  0  0  0  0  0  0  0  0  0
  -28.4690   -0.7850   29.8287 C   0  0  0  0  0  0  0  0  0  0  0  0
  -27.1356    0.2359   28.5352 C   0  0  0  0  0  0  0  0  0  0  0  0
  -26.8745    1.2825   29.3982 C   0  0  0  0  0  0  0  0  0  0  0  0
  -28.3613    0.1987   30.9244 C   0  0  0  0  0  0  0  0  0  0  0  0
  -27.5277    1.2234   30.6356 C   0  0  0  0  0  0  0  0  0  0  0  0
  -26.3987    0.2949   27.2279 C   0  0  0  0  0  0  0  0  0  0  0  0
  -25.0392    0.2356   27.3538 C   0  0  0  0  0  0  0  0  0  0  0  0
  -27.0287    0.3958   26.0087 C   0  0  0  0  0  0  0  0  0  0  0  0
  -28.3713    0.5360   25.8782 C   0  0  0  0  0  0  0  0  0  0  0  0
  -28.8860    0.5071   24.5687 C   0  0  0  0  0  0  0  0  0  0  0  0
  -30.2841    0.5712   24.3900 C   0  0  0  0  0  0  0  0  0  0  0  0
  -31.1106    0.6022   25.4906 C   0  0  0  0  0  0  0  0  0  0  0  0
  -30.6219    0.5694   26.7682 C   0  0  0  0  0  0  0  0  0  0  0  0
  -29.2916    0.5546   26.9892 C   0  0  0  0  0  0  0  0  0  0  0  0
  -26.1668    0.4589   24.8759 C   0  0  0  0  0  0  0  0  0  0  0  0
  -24.3948   -0.3287   28.4858 C   0  0  0  0  0  0  0  0  0  0  0  0
  -23.0100   -0.3020   28.6525 C   0  0  0  0  0  0  0  0  0  0  0  0
  -22.3341    0.6713   28.9822 C   0  0  0  0  0  0  0  0  0  0  0  0
  -21.8962    1.3167   28.2740 C   0  0  0  0  0  0  0  0  0  0  0  0
  -24.2110    0.5730   26.2392 C   0  0  0  0  0  0  0  0  0  0  0  0
  -24.7830    0.5980   24.9929 C   0  0  0  0  0  0  0  0  0  0  0  0
  -21.5029    2.7285   28.6574 C   0  0  0  0  0  0  0  0  0  0  0  0
  -31.6266    0.6715   27.9008 C   0  0  0  0  0  0  0  0  0  0  0  0
  -31.4606    1.6242   28.7640 N   0  0  0  0  0  0  0  0  0  0  0  0
  -31.9728    1.6289   30.0191 C   0  0  0  0  0  0  0  0  0  0  0  0
  -30.7798    2.8741   28.4435 C   0  0  0  0  0  0  0  0  0  0  0  0
  -31.5181    3.9981   28.4984 C   0  0  0  0  0  0  0  0  0  0  0  0
  -32.6325    2.8707   30.4531 C   0  0  0  0  0  0  0  0  0  0  0  0
  -31.9911    4.1412   30.0532 C   0  0  0  0  0  0  0  0  0  0  0  0
  -32.4695   -0.1716   28.0037 O   0  0  0  0  0  0  0  0  0  0  0  0
  -29.4921   -1.9308   30.3392 C   0  0  0  0  0  0  0  0  0  0  0  0
  -29.1934   -2.7116   31.0990 O   0  0  0  0  0  0  0  0  0  0  0  0
  -30.7476   -1.7182   29.9662 O   0  0  0  0  0  0  0  0  0  0  0  0
  -22.5120    3.1302   29.3369 C   0  0  0  0  0  0  0  0  0  0  0  0
  3  7  1  0
  9 10  1  0
 17 18  1  0
 18 19  2  3
 19 20  1  0
 20 23  1  0
 14 24  1  0
 24 25  1  0
 25 26  1  0
 25 27  1  0
 26 29  1  0
 28 30  1  0
 29 30  1  0
 24 31  2  0
  2 32  1  0
 32 33  2  0
 32 34  1  0
 23 35  1  0
 17  8  1  0
 28 27  1  0
  7  8  2  0
  8 21  1  0
 21 22  2  0
 22 16  1  0
 16  9  2  0
  9  7  1  0
  1  2  2  0
  2  5  1  0
  5  6  2  0
  6  4  1  0
  4  3  2  0
  3  1  1  0
 10 11  2  0
 11 12  1  0
 12 13  2  0
 13 14  1  0
 14 15  2  0
 15 10  1  0
M  END

$$$$
