No_861-gen_results/8p0m/2024-11-26-14-13-15/
     RDKit          3D

 24 26  0  0  0  0  0  0  0  0999 V2000
  -28.0162   -0.8135   28.8779 C   0  0  0  0  0  0  0  0  0  0  0  0
  -27.0636   -0.1190   28.6079 C   0  0  0  0  0  0  0  0  0  0  0  0
  -26.9716    0.7139   27.5060 C   0  0  0  0  0  0  0  0  0  0  0  0
  -28.1053    0.7744   26.6421 C   0  0  0  0  0  0  0  0  0  0  0  0
  -28.1273    1.5122   25.5121 C   0  0  0  0  0  0  0  0  0  0  0  0
  -27.9594   -1.6009   30.1427 C   0  0  0  0  0  0  0  0  0  0  0  0
  -26.7501   -1.7506   30.7832 C   0  0  0  0  0  0  0  0  0  0  0  0
  -25.6264   -1.1225   30.3809 C   0  0  0  0  0  0  0  0  0  0  0  0
  -25.7235   -0.2814   29.3107 C   0  0  0  0  0  0  0  0  0  0  0  0
  -26.9387    2.2628   25.1056 C   0  0  0  0  0  0  0  0  0  0  0  0
  -25.8140    2.2209   25.8874 C   0  0  0  0  0  0  0  0  0  0  0  0
  -25.8099    1.4784   27.0399 C   0  0  0  0  0  0  0  0  0  0  0  0
  -29.1448   -2.3838   30.5943 C   0  0  0  0  0  0  0  0  0  0  0  0
  -29.0436   -3.5812   30.8586 O   0  0  0  0  0  0  0  0  0  0  0  0
  -30.2898   -1.8366   30.5711 O   0  0  0  0  0  0  0  0  0  0  0  0
  -29.2819    1.6103   24.6418 C   0  0  0  0  0  0  0  0  0  0  0  0
  -30.4106    1.8539   25.2874 N   0  0  0  0  0  0  0  0  0  0  0  0
  -31.5812    2.0322   24.8126 C   0  0  0  0  0  0  0  0  0  0  0  0
  -32.6728    2.2916   25.5360 C   0  0  0  0  0  0  0  0  0  0  0  0
  -33.8789    2.5028   25.2621 C   0  0  0  0  0  0  0  0  0  0  0  0
  -34.1539    2.5229   23.8017 C   0  0  0  0  0  0  0  0  0  0  0  0
  -33.1284    2.3455   22.8674 C   0  0  0  0  0  0  0  0  0  0  0  0
  -31.8174    2.1422   23.3650 C   0  0  0  0  0  0  0  0  0  0  0  0
  -29.2321    1.4718   23.4859 O   0  0  0  0  0  0  0  0  0  0  0  0
  2  3  1  0
  6 13  1  0
 13 14  2  0
 13 15  1  0
  5 16  1  0
 16 17  1  0
 17 18  1  0
 16 24  2  0
 18 19  2  0
 19 20  1  0
 20 21  2  0
 21 22  1  0
 22 23  2  0
 23 18  1  0
  3  4  2  0
  4  5  1  0
  5 10  2  0
 10 11  1  0
 11 12  2  0
 12  3  1  0
  1  2  2  0
  2  9  1  0
  9  8  2  0
  8  7  1  0
  7  6  2  0
  6  1  1  0
M  END

$$$$
