No_85-gen_results/8p0m/2024-11-26-14-13-15/
     RDKit          3D

 13 14  0  0  0  0  0  0  0  0999 V2000
  -28.0162   -0.8135   28.8779 C   0  0  0  0  0  0  0  0  0  0  0  0
  -28.4690   -0.7850   29.8287 C   0  0  0  0  0  0  0  0  0  0  0  0
  -28.1960    0.3478   28.0550 C   0  0  0  0  0  0  0  0  0  0  0  0
  -27.4421    0.5100   26.7946 C   0  0  0  0  0  0  0  0  0  0  0  0
  -26.4394    0.8329   26.6142 C   0  0  0  0  0  0  0  0  0  0  0  0
  -25.5002    1.4288   27.3463 C   0  0  0  0  0  0  0  0  0  0  0  0
  -24.4112    1.5939   27.5024 C   0  0  0  0  0  0  0  0  0  0  0  0
  -23.7502    2.2597   28.5835 C   0  0  0  0  0  0  0  0  0  0  0  0
  -24.2732    1.9763   29.6640 C   0  0  0  0  0  0  0  0  0  0  0  0
  -25.6302    1.7484   29.8920 C   0  0  0  0  0  0  0  0  0  0  0  0
  -26.1844    1.2449   28.7365 C   0  0  0  0  0  0  0  0  0  0  0  0
  -29.2941   -0.2913   30.3073 C   0  0  0  0  0  0  0  0  0  0  0  0
  -29.1941    0.8739   28.7523 C   0  0  0  0  0  0  0  0  0  0  0  0
  1  2  2  0
  1  3  1  0
  3  4  1  0
  4  5  1  0
  2 12  1  0
  3 13  1  0
 12 13  2  0
  5  6  1  0
  6  7  2  0
  7  8  1  0
  8  9  2  0
  9 10  1  0
 10 11  2  0
 11  6  1  0
M  END

$$$$
