No_888-gen_results/8p0m/2024-11-26-14-13-15/
     RDKit          3D

 20 22  0  0  0  0  0  0  0  0999 V2000
  -28.0162   -0.8135   28.8779 C   0  0  0  0  0  0  0  0  0  0  0  0
  -28.4690   -0.7850   29.8287 C   0  0  0  0  0  0  0  0  0  0  0  0
  -26.5042   -0.7777   28.8766 C   0  0  0  0  0  0  0  0  0  0  0  0
  -25.8103   -0.8531   30.1028 C   0  0  0  0  0  0  0  0  0  0  0  0
  -27.9906   -0.8916   31.2257 C   0  0  0  0  0  0  0  0  0  0  0  0
  -26.6042   -0.8676   31.2652 C   0  0  0  0  0  0  0  0  0  0  0  0
  -30.0739   -0.8360   29.8615 C   0  0  0  0  0  0  0  0  0  0  0  0
  -30.6454   -0.1837   28.9598 N   0  0  0  0  0  0  0  0  0  0  0  0
  -31.7432   -0.5600   28.3299 C   0  0  0  0  0  0  0  0  0  0  0  0
  -32.1609   -0.4849   27.4211 C   0  0  0  0  0  0  0  0  0  0  0  0
  -31.4129    0.3589   26.4237 C   0  0  0  0  0  0  0  0  0  0  0  0
  -30.2861    0.9797   26.8857 C   0  0  0  0  0  0  0  0  0  0  0  0
  -29.4534    1.8617   26.1443 C   0  0  0  0  0  0  0  0  0  0  0  0
  -29.8278    0.5856   28.1234 C   0  0  0  0  0  0  0  0  0  0  0  0
  -30.5917   -1.1243   30.9624 O   0  0  0  0  0  0  0  0  0  0  0  0
  -29.1704    1.7602   24.9666 C   0  0  0  0  0  0  0  0  0  0  0  0
  -28.2023    1.5813   24.4934 C   0  0  0  0  0  0  0  0  0  0  0  0
  -26.9098    1.9565   25.2799 C   0  0  0  0  0  0  0  0  0  0  0  0
  -27.0670    2.5665   26.4210 C   0  0  0  0  0  0  0  0  0  0  0  0
  -28.3825    2.2617   27.1005 C   0  0  0  0  0  0  0  0  0  0  0  0
  2  7  1  0
  7  8  1  0
  8  9  1  0
 10 11  1  0
 12 13  1  0
  8 14  1  0
 12 14  1  0
  7 15  2  0
  9 10  1  0
 11 12  1  0
  1  2  2  0
  2  5  1  0
  5  6  2  0
  6  4  1  0
  4  3  2  0
  3  1  1  0
 13 16  2  0
 16 17  1  0
 17 18  2  0
 18 19  1  0
 19 20  2  0
 20 13  1  0
M  END

$$$$
