No_872-gen_results/8p0m/2024-11-26-14-13-15/
     RDKit          3D

 35 38  0  0  0  0  0  0  0  0999 V2000
  -28.0162   -0.8135   28.8779 C   0  0  0  0  0  0  0  0  0  0  0  0
  -27.0636   -0.1190   28.6079 C   0  0  0  0  0  0  0  0  0  0  0  0
  -25.7647   -0.3897   29.0360 C   0  0  0  0  0  0  0  0  0  0  0  0
  -24.5516    0.4058   28.7646 C   0  0  0  0  0  0  0  0  0  0  0  0
  -24.6957    1.4480   27.7988 C   0  0  0  0  0  0  0  0  0  0  0  0
  -23.5821    2.2165   27.4626 C   0  0  0  0  0  0  0  0  0  0  0  0
  -22.3295    1.8427   27.9661 C   0  0  0  0  0  0  0  0  0  0  0  0
  -22.1809    0.8284   28.8814 C   0  0  0  0  0  0  0  0  0  0  0  0
  -23.3190    0.0774   29.2471 C   0  0  0  0  0  0  0  0  0  0  0  0
  -27.9056   -1.8765   29.8669 C   0  0  0  0  0  0  0  0  0  0  0  0
  -26.6648   -2.3322   30.2886 C   0  0  0  0  0  0  0  0  0  0  0  0
  -25.5477   -1.5609   29.9180 C   0  0  0  0  0  0  0  0  0  0  0  0
  -29.0812   -2.6967   30.2508 C   0  0  0  0  0  0  0  0  0  0  0  0
  -29.3392   -2.7886   31.5028 O   0  0  0  0  0  0  0  0  0  0  0  0
  -29.4965   -3.6772   29.5487 O   0  0  0  0  0  0  0  0  0  0  0  0
  -23.7344    3.4481   26.2799 Cl  0  0  0  0  0  0  0  0  0  0  0  0
  -24.3765   -1.8458   30.4092 O   0  0  0  0  0  0  0  0  0  0  0  0
  -23.2573   -1.0747   30.0647 C   0  0  0  0  0  0  0  0  0  0  0  0
  -29.6081   -0.3790   28.3736 Cl  0  0  0  0  0  0  0  0  0  0  0  0
  -30.4872   -4.5123   30.1561 C   0  0  0  0  0  0  0  0  0  0  0  0
  -31.2421   -5.2096   29.3112 C   0  0  0  0  0  0  0  0  0  0  0  0
  -32.2365   -4.8658   29.2013 O   0  0  0  0  0  0  0  0  0  0  0  0
  -32.4563   -3.6067   29.1403 C   0  0  0  0  0  0  0  0  0  0  0  0
  -30.7373   -6.2606   28.4181 C   0  0  0  0  0  0  0  0  0  0  0  0
  -33.2177   -2.9706   28.3685 C   0  0  0  0  0  0  0  0  0  0  0  0
  -33.3377   -1.5628   28.2861 C   0  0  0  0  0  0  0  0  0  0  0  0
  -33.6450   -0.8603   27.1453 C   0  0  0  0  0  0  0  0  0  0  0  0
  -33.6348    0.5568   27.0808 C   0  0  0  0  0  0  0  0  0  0  0  0
  -33.3579    1.2756   28.2484 C   0  0  0  0  0  0  0  0  0  0  0  0
  -33.0977    0.6040   29.4427 C   0  0  0  0  0  0  0  0  0  0  0  0
  -33.0235   -0.8165   29.4450 C   0  0  0  0  0  0  0  0  0  0  0  0
  -34.6285   -3.5687   28.4634 C   0  0  0  0  0  0  0  0  0  0  0  0
  -35.3322   -3.6385   27.6978 C   0  0  0  0  0  0  0  0  0  0  0  0
  -36.6801   -4.2308   27.8244 C   0  0  0  0  0  0  0  0  0  0  0  0
  -36.9630   -4.7669   29.0347 C   0  0  0  0  0  0  0  0  0  0  0  0
  3  4  1  0
 10 13  1  0
 13 14  2  0
 13 15  1  0
  6 16  1  0
 12 17  1  0
  9 18  1  0
 17 18  1  0
  1 19  1  0
 15 20  1  0
 20 21  1  0
 21 22  1  0
 22 23  1  0
 21 24  1  0
 23 25  2  3
 25 26  1  0
 25 32  1  0
 32 33  2  3
 33 34  1  0
 34 35  2  0
 26 27  2  0
 27 28  1  0
 28 29  2  0
 29 30  1  0
 30 31  2  0
 31 26  1  0
  1  2  2  0
  2  3  1  0
  3 12  2  0
 12 11  1  0
 11 10  2  0
 10  1  1  0
  4  5  2  0
  5  6  1  0
  6  7  2  0
  7  8  1  0
  8  9  2  0
  9  4  1  0
M  END

$$$$
