No_891-gen_results/8p0m/2024-11-26-14-13-15/
     RDKit          3D

 20 22  0  0  0  0  0  0  0  0999 V2000
  -28.0162   -0.8135   28.8779 C   0  0  0  0  0  0  0  0  0  0  0  0
  -27.0636   -0.1189   28.6079 C   0  0  0  0  0  0  0  0  0  0  0  0
  -27.0010    0.6913   27.4910 C   0  0  0  0  0  0  0  0  0  0  0  0
  -25.8548    1.4825   27.0830 C   0  0  0  0  0  0  0  0  0  0  0  0
  -24.6901    1.4526   27.8807 C   0  0  0  0  0  0  0  0  0  0  0  0
  -24.7379    0.6010   29.0416 C   0  0  0  0  0  0  0  0  0  0  0  0
  -25.8234   -0.1688   29.3887 C   0  0  0  0  0  0  0  0  0  0  0  0
  -29.2150   -0.1726   29.0132 N   0  0  0  0  0  0  0  0  0  0  0  0
  -30.2463   -0.7736   29.6388 C   0  0  0  0  0  0  0  0  0  0  0  0
  -23.5190    2.2034   27.5550 C   0  0  0  0  0  0  0  0  0  0  0  0
  -23.6198    2.9624   26.6621 F   0  0  0  0  0  0  0  0  0  0  0  0
  -22.9780    2.8899   28.5956 F   0  0  0  0  0  0  0  0  0  0  0  0
  -22.4392    1.3445   27.2699 F   0  0  0  0  0  0  0  0  0  0  0  0
  -29.9992   -1.9199   30.3481 C   0  0  0  0  0  0  0  0  0  0  0  0
  -28.7285   -2.5275   30.3835 C   0  0  0  0  0  0  0  0  0  0  0  0
  -27.7067   -1.8460   29.8460 C   0  0  0  0  0  0  0  0  0  0  0  0
  -31.4060   -0.2992   29.3838 O   0  0  0  0  0  0  0  0  0  0  0  0
  -26.3408   -2.2862   30.0179 C   0  0  0  0  0  0  0  0  0  0  0  0
  -25.5068   -1.2876   30.1704 C   0  0  0  0  0  0  0  0  0  0  0  0
  -31.0717   -2.5582   30.8939 O   0  0  0  0  0  0  0  0  0  0  0  0
  1  2  1  0
  1  8  1  0
  8  9  1  0
  5 10  1  0
 10 11  1  0
 10 12  1  0
 10 13  1  0
  9 14  1  0
  1 16  1  0
 15 16  1  0
  9 17  2  0
 16 18  1  0
  7 19  1  0
 18 19  1  0
 14 20  1  0
 15 14  1  0
  2  3  2  0
  3  4  1  0
  4  5  2  0
  5  6  1  0
  6  7  2  0
  7  2  1  0
M  END

$$$$
