No_866-gen_results/8p0m/2024-11-26-14-13-15/
     RDKit          3D

  8  7  0  0  0  0  0  0  0  0999 V2000
  -28.0727   -1.2542   28.5316 F   0  0  0  0  0  0  0  0  0  0  0  0
  -27.3591   -0.3792   28.7224 C   0  0  0  0  0  0  0  0  0  0  0  0
  -26.9761   -0.0935   27.6617 F   0  0  0  0  0  0  0  0  0  0  0  0
  -26.3178   -0.8087   29.4966 F   0  0  0  0  0  0  0  0  0  0  0  0
  -27.9592    0.7832   29.4561 C   0  0  0  0  0  0  0  0  0  0  0  0
  -27.2113    1.1397   30.3401 F   0  0  0  0  0  0  0  0  0  0  0  0
  -28.0831    1.7767   28.6890 F   0  0  0  0  0  0  0  0  0  0  0  0
  -29.1086    0.3506   29.9996 F   0  0  0  0  0  0  0  0  0  0  0  0
  1  2  1  0
  2  3  1  0
  2  4  1  0
  2  5  1  0
  5  6  1  0
  5  7  1  0
  5  8  1  0
M  END

$$$$
