No_896-gen_results/8p0m/2024-11-26-14-13-15/
     RDKit          3D

 15 16  0  0  0  0  0  0  0  0999 V2000
  -28.0162   -0.8135   28.8779 C   0  0  0  0  0  0  0  0  0  0  0  0
  -27.0636   -0.1189   28.6079 C   0  0  0  0  0  0  0  0  0  0  0  0
  -26.8756    1.1325   28.9134 C   0  0  0  0  0  0  0  0  0  0  0  0
  -25.6883    1.9515   28.5672 C   0  0  0  0  0  0  0  0  0  0  0  0
  -24.6394    1.2834   27.8753 C   0  0  0  0  0  0  0  0  0  0  0  0
  -23.4486    1.9589   27.5372 C   0  0  0  0  0  0  0  0  0  0  0  0
  -29.0929   -0.1958   29.6763 C   0  0  0  0  0  0  0  0  0  0  0  0
  -29.0425    1.0855   30.0171 C   0  0  0  0  0  0  0  0  0  0  0  0
  -27.9077    1.8155   29.6664 C   0  0  0  0  0  0  0  0  0  0  0  0
  -25.9825    3.2766   27.8349 C   0  0  0  0  0  0  0  0  0  0  0  0
  -22.2737    1.2579   27.3183 C   0  0  0  0  0  0  0  0  0  0  0  0
  -21.8340    0.5657   28.3815 C   0  0  0  0  0  0  0  0  0  0  0  0
  -22.7755   -0.3923   29.0106 C   0  0  0  0  0  0  0  0  0  0  0  0
  -23.7983   -0.3951   28.8860 C   0  0  0  0  0  0  0  0  0  0  0  0
  -24.6181    0.0435   27.9776 N   0  0  0  0  0  0  0  0  0  0  0  0
  3  4  1  0
  4  5  2  3
  5  6  1  0
  4 10  1  0
  6 11  2  0
 11 12  1  0
 12 13  2  0
 13 14  1  0
  5 15  1  0
 14 15  2  0
  1  2  2  0
  2  3  1  0
  3  9  2  0
  9  8  1  0
  8  7  2  0
  7  1  1  0
M  END

$$$$
