No_856-gen_results/8p0m/2024-11-26-14-13-15/
     RDKit          3D

 19 20  0  0  0  0  0  0  0  0999 V2000
  -28.1493   -0.8198   28.9079 Cl  0  0  0  0  0  0  0  0  0  0  0  0
  -26.9116   -0.0797   28.9452 C   0  0  0  0  0  0  0  0  0  0  0  0
  -26.7384    1.0439   29.2534 C   0  0  0  0  0  0  0  0  0  0  0  0
  -25.4392    1.7115   29.2755 C   0  0  0  0  0  0  0  0  0  0  0  0
  -24.2812    0.9888   28.8542 C   0  0  0  0  0  0  0  0  0  0  0  0
  -24.4868   -0.3041   28.4957 C   0  0  0  0  0  0  0  0  0  0  0  0
  -25.7046   -0.8667   28.5244 C   0  0  0  0  0  0  0  0  0  0  0  0
  -22.9617    1.6322   28.7948 C   0  0  0  0  0  0  0  0  0  0  0  0
  -22.2496    1.6581   27.8575 N   0  0  0  0  0  0  0  0  0  0  0  0
  -22.7236    1.4442   26.6087 C   0  0  0  0  0  0  0  0  0  0  0  0
  -22.6770    2.7237   25.7818 C   0  0  0  0  0  0  0  0  0  0  0  0
  -20.8076    1.4851   27.9263 C   0  0  0  0  0  0  0  0  0  0  0  0
  -27.7452    1.8220   29.7300 O   0  0  0  0  0  0  0  0  0  0  0  0
  -27.6384    3.1643   29.6835 C   0  0  0  0  0  0  0  0  0  0  0  0
  -27.3627    3.9743   30.5790 C   0  0  0  0  0  0  0  0  0  0  0  0
  -27.2315    5.3873   30.5350 C   0  0  0  0  0  0  0  0  0  0  0  0
  -27.4883    5.9841   29.2922 C   0  0  0  0  0  0  0  0  0  0  0  0
  -27.8807    3.8136   28.3459 C   0  0  0  0  0  0  0  0  0  0  0  0
  -27.7769    5.1745   28.2351 C   0  0  0  0  0  0  0  0  0  0  0  0
  1  2  1  0
  5  8  1  0
  8  9  1  0
  9 10  1  0
 10 11  1  0
  9 12  1  0
  3 13  1  0
 13 14  1  0
  2  3  2  0
  3  4  1  0
  4  5  2  0
  5  6  1  0
  6  7  2  0
  7  2  1  0
 14 15  2  0
 15 16  1  0
 16 17  2  0
 17 19  1  0
 19 18  2  0
 18 14  1  0
M  END

$$$$
