No_885-gen_results/8p0m/2024-11-26-14-13-15/
     RDKit          3D

 10 11  0  0  0  0  0  0  0  0999 V2000
  -28.0162   -0.8135   28.8779 C   0  0  0  0  0  0  0  0  0  0  0  0
  -28.4690   -0.7850   29.8287 C   0  0  0  0  0  0  0  0  0  0  0  0
  -27.2166   -0.0832   27.9639 C   0  0  0  0  0  0  0  0  0  0  0  0
  -27.0905    1.2695   28.4177 C   0  0  0  0  0  0  0  0  0  0  0  0
  -27.6655    1.5758   29.6941 C   0  0  0  0  0  0  0  0  0  0  0  0
  -28.3335    0.6031   30.4319 C   0  0  0  0  0  0  0  0  0  0  0  0
  -26.3583    2.2788   27.6965 C   0  0  0  0  0  0  0  0  0  0  0  0
  -25.8439    2.1616   26.6256 C   0  0  0  0  0  0  0  0  0  0  0  0
  -25.7385    0.8923   25.9700 C   0  0  0  0  0  0  0  0  0  0  0  0
  -26.5225   -0.1890   26.6885 C   0  0  0  0  0  0  0  0  0  0  0  0
  4  7  2  0
  7  8  1  0
  8  9  2  0
  9 10  1  0
 10  3  2  0
  1  2  2  0
  2  6  1  0
  6  5  2  0
  5  4  1  0
  4  3  1  0
  3  1  1  0
M  END

$$$$
