No_807-gen_results/8p0m/2024-11-26-14-13-15/
     RDKit          3D

 20 20  0  0  0  0  0  0  0  0999 V2000
  -28.0727   -1.2542   28.5316 F   0  0  0  0  0  0  0  0  0  0  0  0
  -27.3591   -0.3792   28.7224 C   0  0  0  0  0  0  0  0  0  0  0  0
  -26.3323   -0.6441   29.4520 C   0  0  0  0  0  0  0  0  0  0  0  0
  -25.2562    0.3203   29.7818 C   0  0  0  0  0  0  0  0  0  0  0  0
  -25.4242    1.6275   29.2026 C   0  0  0  0  0  0  0  0  0  0  0  0
  -26.5263    1.8254   28.4032 C   0  0  0  0  0  0  0  0  0  0  0  0
  -27.4513    0.8601   28.1355 C   0  0  0  0  0  0  0  0  0  0  0  0
  -28.4529    1.1274   27.3543 F   0  0  0  0  0  0  0  0  0  0  0  0
  -23.9422    0.0254   30.8085 Cl  0  0  0  0  0  0  0  0  0  0  0  0
  -26.0211   -1.9466   30.1528 C   0  0  0  0  0  0  0  0  0  0  0  0
  -25.0102   -2.6225   29.8281 N   0  0  0  0  0  0  0  0  0  0  0  0
  -26.8738   -2.3379   31.0177 O   0  0  0  0  0  0  0  0  0  0  0  0
  -23.9855   -2.3081   28.9207 C   0  0  0  0  0  0  0  0  0  0  0  0
  -24.2605    2.8672   29.5650 Cl  0  0  0  0  0  0  0  0  0  0  0  0
  -26.6799    3.1012   27.8428 O   0  0  0  0  0  0  0  0  0  0  0  0
  -26.0996    3.3755   26.7284 C   0  0  0  0  0  0  0  0  0  0  0  0
  -24.7683    3.7830   26.6969 C   0  0  0  0  0  0  0  0  0  0  0  0
  -24.3042    4.3117   27.7215 O   0  0  0  0  0  0  0  0  0  0  0  0
  -24.0184    3.5659   25.6523 O   0  0  0  0  0  0  0  0  0  0  0  0
  -23.2488   -1.2581   28.9397 C   0  0  0  0  0  0  0  0  0  0  0  0
  1  2  1  0
  7  8  1  0
  4  9  1  0
  3 10  1  0
 10 11  1  0
 10 12  2  0
 11 13  1  0
  5 14  1  0
  6 15  1  0
 15 16  1  0
 16 17  1  0
 17 18  1  0
 17 19  2  0
 13 20  1  0
  2  3  2  0
  3  4  1  0
  4  5  2  0
  5  6  1  0
  6  7  2  0
  7  2  1  0
M  END

$$$$
