No_844-gen_results/8p0m/2024-11-26-14-13-15/
     RDKit          3D

 15 16  0  0  0  0  0  0  0  0999 V2000
  -28.0162   -0.8135   28.8779 C   0  0  0  0  0  0  0  0  0  0  0  0
  -27.0636   -0.1189   28.6079 C   0  0  0  0  0  0  0  0  0  0  0  0
  -25.8176   -0.3427   29.0488 N   0  0  0  0  0  0  0  0  0  0  0  0
  -25.5552   -1.4726   29.7295 C   0  0  0  0  0  0  0  0  0  0  0  0
  -27.8546   -1.9289   29.8134 C   0  0  0  0  0  0  0  0  0  0  0  0
  -26.5468   -2.2148   30.1855 N   0  0  0  0  0  0  0  0  0  0  0  0
  -27.1741    1.0565   27.8512 N   0  0  0  0  0  0  0  0  0  0  0  0
  -24.2747   -1.7329   30.0939 N   0  0  0  0  0  0  0  0  0  0  0  0
  -23.2817   -0.7836   30.3463 C   0  0  0  0  0  0  0  0  0  0  0  0
  -23.4839    0.2282   31.2299 C   0  0  0  0  0  0  0  0  0  0  0  0
  -27.0809    1.0469   26.4782 C   0  0  0  0  0  0  0  0  0  0  0  0
  -27.0860    2.1349   25.7302 C   0  0  0  0  0  0  0  0  0  0  0  0
  -27.4069    2.2841   28.4513 C   0  0  0  0  0  0  0  0  0  0  0  0
  -27.4487    3.4882   27.7426 C   0  0  0  0  0  0  0  0  0  0  0  0
  -27.3403    3.4642   26.3168 C   0  0  0  0  0  0  0  0  0  0  0  0
  2  7  1  0
  4  8  1  0
  8  9  1  0
  9 10  1  0
  7 11  1  0
  7 13  1  0
 12 15  1  0
 14 15  1  0
 11 12  1  0
 14 13  1  0
  1  2  2  0
  2  3  1  0
  3  4  2  0
  4  6  1  0
  6  5  2  0
  5  1  1  0
M  END

$$$$
