No_864-gen_results/8p0m/2024-11-26-14-13-15/
     RDKit          3D

 18 19  0  0  0  0  0  0  0  0999 V2000
  -28.0162   -0.8135   28.8779 C   0  0  0  0  0  0  0  0  0  0  0  0
  -28.4690   -0.7850   29.8287 C   0  0  0  0  0  0  0  0  0  0  0  0
  -26.5455   -0.8762   28.8500 C   0  0  0  0  0  0  0  0  0  0  0  0
  -25.8041   -1.0324   30.0571 C   0  0  0  0  0  0  0  0  0  0  0  0
  -27.9437   -0.9869   31.2075 C   0  0  0  0  0  0  0  0  0  0  0  0
  -26.5825   -1.0386   31.2231 C   0  0  0  0  0  0  0  0  0  0  0  0
  -30.2809   -0.7232   29.8834 Cl  0  0  0  0  0  0  0  0  0  0  0  0
  -23.9628   -1.1452   30.0599 Br  0  0  0  0  0  0  0  0  0  0  0  0
  -25.7939   -0.8661   27.7234 F   0  0  0  0  0  0  0  0  0  0  0  0
  -28.6684   -0.9731   32.3580 O   0  0  0  0  0  0  0  0  0  0  0  0
  -29.6635   -0.1998   32.5369 C   0  0  0  0  0  0  0  0  0  0  0  0
  -30.6999   -0.2623   33.0361 C   0  0  0  0  0  0  0  0  0  0  0  0
  -30.9787   -1.5817   33.7029 C   0  0  0  0  0  0  0  0  0  0  0  0
  -30.0628   -2.2950   34.1489 C   0  0  0  0  0  0  0  0  0  0  0  0
  -29.9505   -3.2304   34.5603 C   0  0  0  0  0  0  0  0  0  0  0  0
  -31.0465   -4.0252   34.6705 C   0  0  0  0  0  0  0  0  0  0  0  0
  -32.2912   -3.4489   34.3312 C   0  0  0  0  0  0  0  0  0  0  0  0
  -32.2253   -2.2191   33.8499 C   0  0  0  0  0  0  0  0  0  0  0  0
  2  7  1  0
  4  8  1  0
  3  9  1  0
  5 10  1  0
 10 11  1  0
 11 12  2  3
 12 13  1  0
 13 14  2  0
 14 15  1  0
 15 16  2  0
 16 17  1  0
 17 18  2  0
 18 13  1  0
  1  2  2  0
  2  5  1  0
  5  6  2  0
  6  4  1  0
  4  3  2  0
  3  1  1  0
M  END

$$$$
