No_827-gen_results/8p0m/2024-11-26-14-13-15/
     RDKit          3D

 15 15  0  0  0  0  0  0  0  0999 V2000
  -28.0162   -0.8135   28.8779 C   0  0  0  0  0  0  0  0  0  0  0  0
  -27.0636   -0.1189   28.6079 C   0  0  0  0  0  0  0  0  0  0  0  0
  -27.0010    0.6913   27.4910 C   0  0  0  0  0  0  0  0  0  0  0  0
  -25.8548    1.4825   27.0830 C   0  0  0  0  0  0  0  0  0  0  0  0
  -24.6901    1.4526   27.8807 C   0  0  0  0  0  0  0  0  0  0  0  0
  -24.7379    0.6010   29.0416 C   0  0  0  0  0  0  0  0  0  0  0  0
  -25.8234   -0.1688   29.3887 C   0  0  0  0  0  0  0  0  0  0  0  0
  -29.2075   -0.1514   29.0660 N   0  0  0  0  0  0  0  0  0  0  0  0
  -30.2318   -0.7607   29.6957 C   0  0  0  0  0  0  0  0  0  0  0  0
  -23.5223    2.2141   27.5499 C   0  0  0  0  0  0  0  0  0  0  0  0
  -23.4497    2.7698   26.3301 N   0  0  0  0  0  0  0  0  0  0  0  0
  -22.3266    1.8721   28.0068 O   0  0  0  0  0  0  0  0  0  0  0  0
  -29.9733   -1.9096   30.3644 C   0  0  0  0  0  0  0  0  0  0  0  0
  -31.0258   -2.6523   30.9368 C   0  0  0  0  0  0  0  0  0  0  0  0
  -27.8387   -1.8826   29.6274 O   0  0  0  0  0  0  0  0  0  0  0  0
  1  2  1  0
  1  8  1  0
  8  9  1  0
  5 10  1  0
 10 11  1  0
 10 12  2  0
  9 13  2  3
 13 14  1  0
  1 15  2  0
  2  3  2  0
  3  4  1  0
  4  5  2  0
  5  6  1  0
  6  7  2  0
  7  2  1  0
M  END

$$$$
