No_897-gen_results/8p0m/2024-11-26-14-13-15/
     RDKit          3D

 13 13  0  0  0  0  0  0  0  0999 V2000
  -28.0162   -0.8135   28.8779 C   0  0  0  0  0  0  0  0  0  0  0  0
  -28.4690   -0.7850   29.8287 C   0  0  0  0  0  0  0  0  0  0  0  0
  -28.1960    0.3478   28.0550 C   0  0  0  0  0  0  0  0  0  0  0  0
  -29.0191    1.3501   28.3782 C   0  0  0  0  0  0  0  0  0  0  0  0
  -29.6249    1.2683   29.6012 C   0  0  0  0  0  0  0  0  0  0  0  0
  -29.3821    0.1816   30.4004 C   0  0  0  0  0  0  0  0  0  0  0  0
  -27.4591    0.3787   26.7048 C   0  0  0  0  0  0  0  0  0  0  0  0
  -26.2285    0.3306   26.7945 N   0  0  0  0  0  0  0  0  0  0  0  0
  -28.0687    0.5552   25.4911 C   0  0  0  0  0  0  0  0  0  0  0  0
  -25.3520    0.2704   27.9008 C   0  0  0  0  0  0  0  0  0  0  0  0
  -24.1347    0.9439   27.8476 C   0  0  0  0  0  0  0  0  0  0  0  0
  -23.8341    1.8559   26.9091 C   0  0  0  0  0  0  0  0  0  0  0  0
  -24.7072    2.3380   26.0130 C   0  0  0  0  0  0  0  0  0  0  0  0
  3  7  1  0
  7  8  2  3
  7  9  1  0
  8 10  1  0
 10 11  2  3
 11 12  1  0
 12 13  1  0
  1  2  2  0
  2  6  1  0
  6  5  2  0
  5  4  1  0
  4  3  2  0
  3  1  1  0
M  END

$$$$
