No_851-gen_results/8p0m/2024-11-26-14-13-15/
     RDKit          3D

 17 18  0  0  0  0  0  0  0  0999 V2000
  -28.0727   -1.2542   28.5316 F   0  0  0  0  0  0  0  0  0  0  0  0
  -27.3591   -0.3792   28.7224 C   0  0  0  0  0  0  0  0  0  0  0  0
  -26.3323   -0.6441   29.4520 C   0  0  0  0  0  0  0  0  0  0  0  0
  -25.2562    0.3203   29.7818 C   0  0  0  0  0  0  0  0  0  0  0  0
  -25.4242    1.6275   29.2026 C   0  0  0  0  0  0  0  0  0  0  0  0
  -26.5263    1.8254   28.4032 C   0  0  0  0  0  0  0  0  0  0  0  0
  -27.4513    0.8601   28.1355 C   0  0  0  0  0  0  0  0  0  0  0  0
  -28.4698    1.1459   27.3479 O   0  0  0  0  0  0  0  0  0  0  0  0
  -28.2855    1.1403   26.0049 C   0  0  0  0  0  0  0  0  0  0  0  0
  -24.4004    2.6103   29.5543 C   0  0  0  0  0  0  0  0  0  0  0  0
  -23.1821    2.2775   29.6195 O   0  0  0  0  0  0  0  0  0  0  0  0
  -24.7801    3.8329   29.7206 O   0  0  0  0  0  0  0  0  0  0  0  0
  -29.2457    0.5033   25.2595 C   0  0  0  0  0  0  0  0  0  0  0  0
  -27.2031    1.7976   25.3646 C   0  0  0  0  0  0  0  0  0  0  0  0
  -29.0557    0.3970   23.8336 C   0  0  0  0  0  0  0  0  0  0  0  0
  -27.9850    1.0832   23.2905 C   0  0  0  0  0  0  0  0  0  0  0  0
  -26.9985    1.7228   24.0889 C   0  0  0  0  0  0  0  0  0  0  0  0
  1  2  1  0
  7  8  1  0
  8  9  1  0
  5 10  1  0
 10 11  1  0
 10 12  2  0
  2  3  2  0
  3  4  1  0
  4  5  2  0
  5  6  1  0
  6  7  2  0
  7  2  1  0
  9 13  2  0
 13 15  1  0
 15 16  2  0
 16 17  1  0
 17 14  2  0
 14  9  1  0
M  END

$$$$
