No_839-gen_results/8p0m/2024-11-26-14-13-15/
     RDKit          3D

 35 36  0  0  0  0  0  0  0  0999 V2000
  -28.0162   -0.8135   28.8779 C   0  0  0  0  0  0  0  0  0  0  0  0
  -27.0636   -0.1190   28.6079 C   0  0  0  0  0  0  0  0  0  0  0  0
  -27.0010    0.6913   27.4910 C   0  0  0  0  0  0  0  0  0  0  0  0
  -28.1373    0.7363   26.6350 C   0  0  0  0  0  0  0  0  0  0  0  0
  -29.2360    0.0765   27.0690 C   0  0  0  0  0  0  0  0  0  0  0  0
  -29.2177   -0.6429   28.1747 C   0  0  0  0  0  0  0  0  0  0  0  0
  -30.4152    0.1590   26.1819 C   0  0  0  0  0  0  0  0  0  0  0  0
  -31.2774   -0.5117   26.4083 O   0  0  0  0  0  0  0  0  0  0  0  0
  -30.5036    1.2086   25.2960 N   0  0  0  0  0  0  0  0  0  0  0  0
  -25.7095   -0.2223   29.4176 C   0  0  0  0  0  0  0  0  0  0  0  0
  -24.6240   -0.6447   28.9038 N   0  0  0  0  0  0  0  0  0  0  0  0
  -23.4756   -0.8626   29.4097 C   0  0  0  0  0  0  0  0  0  0  0  0
  -22.6705    0.2181   29.6594 C   0  0  0  0  0  0  0  0  0  0  0  0
  -23.0154   -2.0790   29.4974 O   0  0  0  0  0  0  0  0  0  0  0  0
  -25.6327    0.3624   30.5341 O   0  0  0  0  0  0  0  0  0  0  0  0
  -31.6730    1.3839   24.3999 C   0  0  0  0  0  0  0  0  0  0  0  0
  -22.9619    1.2430   30.1419 O   0  0  0  0  0  0  0  0  0  0  0  0
  -21.2997    0.1248   29.2729 O   0  0  0  0  0  0  0  0  0  0  0  0
  -28.0880   -1.7144   30.1338 C   0  0  0  0  0  0  0  0  0  0  0  0
  -27.3901   -2.6023   30.2599 O   0  0  0  0  0  0  0  0  0  0  0  0
  -29.0889   -1.5139   30.9360 O   0  0  0  0  0  0  0  0  0  0  0  0
  -31.6781    2.5735   23.7459 C   0  0  0  0  0  0  0  0  0  0  0  0
  -32.0257    3.6461   24.1963 C   0  0  0  0  0  0  0  0  0  0  0  0
  -31.8414    3.8768   25.5571 C   0  0  0  0  0  0  0  0  0  0  0  0
  -32.1994    5.1534   26.2014 C   0  0  0  0  0  0  0  0  0  0  0  0
  -33.1940    5.8590   25.5395 C   0  0  0  0  0  0  0  0  0  0  0  0
  -33.4969    5.6341   24.2070 C   0  0  0  0  0  0  0  0  0  0  0  0
  -32.9793    4.5294   23.5853 C   0  0  0  0  0  0  0  0  0  0  0  0
  -33.3522    4.1923   22.2404 C   0  0  0  0  0  0  0  0  0  0  0  0
  -30.2489    2.9285   23.0145 C   0  0  0  0  0  0  0  0  0  0  0  0
  -33.7174    3.0888   21.7926 N   0  0  0  0  0  0  0  0  0  0  0  0
  -33.5890    2.7032   20.5982 C   0  0  0  0  0  0  0  0  0  0  0  0
  -33.4268    5.2545   21.4216 O   0  0  0  0  0  0  0  0  0  0  0  0
  -33.7076    1.2757   20.3278 C   0  0  0  0  0  0  0  0  0  0  0  0
  -33.2426    3.4808   19.4368 C   0  0  0  0  0  0  0  0  0  0  0  0
  5  7  1  0
  7  8  2  0
  7  9  1  0
  2 10  1  0
 10 11  1  0
 11 12  1  0
 12 13  1  0
 12 14  2  0
 10 15  2  0
  9 16  1  0
 13 17  2  0
 13 18  1  0
  1 19  1  0
 19 20  1  0
 19 21  2  0
 16 22  1  0
 28 29  1  0
 22 30  1  0
 29 31  1  0
 31 32  1  0
 29 33  2  0
 32 34  2  0
 32 35  1  0
 22 23  1  0
  1  2  2  0
  2  3  1  0
  3  4  2  0
  4  5  1  0
  5  6  2  0
  6  1  1  0
 23 24  2  0
 24 25  1  0
 25 26  2  0
 26 27  1  0
 27 28  2  0
 28 23  1  0
M  END

$$$$
