No_877-gen_results/8p0m/2024-11-26-14-13-15/
     RDKit          3D

 34 38  0  0  0  0  0  0  0  0999 V2000
  -28.0162   -0.8135   28.8779 C   0  0  0  0  0  0  0  0  0  0  0  0
  -28.4690   -0.7850   29.8287 C   0  0  0  0  0  0  0  0  0  0  0  0
  -26.5455   -0.8762   28.8500 C   0  0  0  0  0  0  0  0  0  0  0  0
  -25.8041   -1.0324   30.0571 C   0  0  0  0  0  0  0  0  0  0  0  0
  -24.3697   -1.0998   30.0719 C   0  0  0  0  0  0  0  0  0  0  0  0
  -27.9902   -1.0051   31.2092 C   0  0  0  0  0  0  0  0  0  0  0  0
  -26.5616   -1.1368   31.2600 C   0  0  0  0  0  0  0  0  0  0  0  0
  -23.6342   -0.7826   29.0667 C   0  0  0  0  0  0  0  0  0  0  0  0
  -22.1763   -0.6779   29.1657 C   0  0  0  0  0  0  0  0  0  0  0  0
  -21.4400   -0.1303   28.1207 C   0  0  0  0  0  0  0  0  0  0  0  0
  -22.1014    0.8765   27.3078 C   0  0  0  0  0  0  0  0  0  0  0  0
  -23.5471    0.9961   27.3643 C   0  0  0  0  0  0  0  0  0  0  0  0
  -24.2626    0.3021   28.2488 C   0  0  0  0  0  0  0  0  0  0  0  0
  -25.7334   -0.2934   27.8598 N   0  0  0  0  0  0  0  0  0  0  0  0
  -26.2058    0.1296   26.5958 C   0  0  0  0  0  0  0  0  0  0  0  0
  -25.4368   -0.0624   25.5308 C   0  0  0  0  0  0  0  0  0  0  0  0
  -27.3911    0.7788   26.5236 C   0  0  0  0  0  0  0  0  0  0  0  0
  -27.8751    1.1913   25.3237 C   0  0  0  0  0  0  0  0  0  0  0  0
  -25.9480    0.2493   24.2483 C   0  0  0  0  0  0  0  0  0  0  0  0
  -27.1437    0.8711   24.1722 C   0  0  0  0  0  0  0  0  0  0  0  0
  -30.0983   -0.8042   29.9041 C   0  0  0  0  0  0  0  0  0  0  0  0
  -30.7391   -1.6430   30.2460 O   0  0  0  0  0  0  0  0  0  0  0  0
  -30.6280    0.3233   29.4090 O   0  0  0  0  0  0  0  0  0  0  0  0
  -29.2250    1.7757   25.0904 C   0  0  0  0  0  0  0  0  0  0  0  0
  -29.4575    2.8538   25.5823 N   0  0  0  0  0  0  0  0  0  0  0  0
  -30.5801    3.6032   25.4225 C   0  0  0  0  0  0  0  0  0  0  0  0
  -28.4122    3.6606   26.2684 C   0  0  0  0  0  0  0  0  0  0  0  0
  -29.9827    1.2006   24.3380 O   0  0  0  0  0  0  0  0  0  0  0  0
  -31.4932    3.5236   24.7945 C   0  0  0  0  0  0  0  0  0  0  0  0
  -32.6857    4.3197   24.7090 C   0  0  0  0  0  0  0  0  0  0  0  0
  -33.7325    4.1505   23.7736 C   0  0  0  0  0  0  0  0  0  0  0  0
  -33.6467    2.9746   22.9559 C   0  0  0  0  0  0  0  0  0  0  0  0
  -32.5763    2.1297   22.9709 C   0  0  0  0  0  0  0  0  0  0  0  0
  -31.4905    2.4184   23.7865 C   0  0  0  0  0  0  0  0  0  0  0  0
  4  5  1  0
  3 14  1  0
 13 14  1  0
 14 15  1  0
  2 21  1  0
 21 22  2  0
 21 23  1  0
 18 24  1  0
 24 25  1  0
 25 26  1  0
 25 27  1  0
 24 28  2  0
 26 29  1  0
  5  8  1  0
 15 16  2  0
 16 19  1  0
 19 20  2  0
 20 18  1  0
 18 17  2  0
 17 15  1  0
  1  2  2  0
  2  6  1  0
  6  7  2  0
  7  4  1  0
  4  3  2  0
  3  1  1  0
 29 30  2  0
 30 31  1  0
 31 32  2  0
 32 33  1  0
 33 34  2  0
 34 29  1  0
  8  9  2  0
  9 10  1  0
 10 11  2  0
 11 12  1  0
 12 13  2  0
 13  8  1  0
M  END

$$$$
