No_840-gen_results/8p0m/2024-11-26-14-13-15/
     RDKit          3D

 20 22  0  0  0  0  0  0  0  0999 V2000
  -28.0162   -0.8135   28.8779 C   0  0  0  0  0  0  0  0  0  0  0  0
  -28.4690   -0.7850   29.8287 C   0  0  0  0  0  0  0  0  0  0  0  0
  -26.5455   -0.8762   28.8500 C   0  0  0  0  0  0  0  0  0  0  0  0
  -25.6825   -0.7773   27.6829 C   0  0  0  0  0  0  0  0  0  0  0  0
  -27.9181   -1.0034   31.1877 C   0  0  0  0  0  0  0  0  0  0  0  0
  -26.5308   -1.0794   31.2463 C   0  0  0  0  0  0  0  0  0  0  0  0
  -25.7798   -1.0462   30.0905 C   0  0  0  0  0  0  0  0  0  0  0  0
  -25.2322    0.5793   27.3292 C   0  0  0  0  0  0  0  0  0  0  0  0
  -23.9816    0.8698   27.7676 C   0  0  0  0  0  0  0  0  0  0  0  0
  -23.1871    0.2885   28.7222 C   0  0  0  0  0  0  0  0  0  0  0  0
  -21.8564    0.6487   29.0241 C   0  0  0  0  0  0  0  0  0  0  0  0
  -21.2119    1.5319   28.1724 C   0  0  0  0  0  0  0  0  0  0  0  0
  -23.3480    2.1232   27.1410 C   0  0  0  0  0  0  0  0  0  0  0  0
  -21.9600    2.3025   27.2970 C   0  0  0  0  0  0  0  0  0  0  0  0
  -25.9775    1.3453   26.4500 C   0  0  0  0  0  0  0  0  0  0  0  0
  -27.3261    1.6212   26.6549 C   0  0  0  0  0  0  0  0  0  0  0  0
  -28.0978    2.1388   25.6644 C   0  0  0  0  0  0  0  0  0  0  0  0
  -27.6310    2.0581   24.4128 C   0  0  0  0  0  0  0  0  0  0  0  0
  -26.3169    1.5994   24.1439 C   0  0  0  0  0  0  0  0  0  0  0  0
  -25.4663    1.2220   25.1154 C   0  0  0  0  0  0  0  0  0  0  0  0
  3  4  1  0
  4  8  1  0
  8  9  1  0
  8 15  1  0
 15 16  2  0
 16 17  1  0
 17 18  2  0
 18 19  1  0
 19 20  2  0
 20 15  1  0
  1  2  2  0
  2  5  1  0
  5  6  2  0
  6  7  1  0
  7  3  2  0
  3  1  1  0
  9 10  2  0
 10 11  1  0
 11 12  2  0
 12 14  1  0
 14 13  2  0
 13  9  1  0
M  END

$$$$
