No_845-gen_results/8p0m/2024-11-26-14-13-15/
     RDKit          3D

 35 39  0  0  0  0  0  0  0  0999 V2000
  -28.0162   -0.8135   28.8779 C   0  0  0  0  0  0  0  0  0  0  0  0
  -28.4690   -0.7850   29.8287 C   0  0  0  0  0  0  0  0  0  0  0  0
  -28.1816    0.4277   28.1134 C   0  0  0  0  0  0  0  0  0  0  0  0
  -28.9841    1.4155   28.5154 C   0  0  0  0  0  0  0  0  0  0  0  0
  -29.3802    0.1384   30.4612 C   0  0  0  0  0  0  0  0  0  0  0  0
  -29.5415    1.2736   29.7242 C   0  0  0  0  0  0  0  0  0  0  0  0
  -27.4452    0.4872   26.7726 C   0  0  0  0  0  0  0  0  0  0  0  0
  -27.8631    0.8051   25.7558 C   0  0  0  0  0  0  0  0  0  0  0  0
  -29.2708    1.1430   25.6694 C   0  0  0  0  0  0  0  0  0  0  0  0
  -25.9673    0.0353   26.9219 C   0  0  0  0  0  0  0  0  0  0  0  0
  -25.3239   -0.2010   28.1330 C   0  0  0  0  0  0  0  0  0  0  0  0
  -24.4673    0.5496   28.7214 C   0  0  0  0  0  0  0  0  0  0  0  0
  -23.6763    0.2530   29.6300 C   0  0  0  0  0  0  0  0  0  0  0  0
  -23.7628   -1.0418   30.2582 C   0  0  0  0  0  0  0  0  0  0  0  0
  -25.3262   -1.5619   28.7070 C   0  0  0  0  0  0  0  0  0  0  0  0
  -24.5784   -1.9280   29.7099 C   0  0  0  0  0  0  0  0  0  0  0  0
  -29.8103    1.4216   24.3476 C   0  0  0  0  0  0  0  0  0  0  0  0
  -31.1545    1.7342   24.2384 C   0  0  0  0  0  0  0  0  0  0  0  0
  -31.9482    1.8763   25.3365 C   0  0  0  0  0  0  0  0  0  0  0  0
  -31.4534    1.6206   26.5782 C   0  0  0  0  0  0  0  0  0  0  0  0
  -30.1624    1.2815   26.7747 C   0  0  0  0  0  0  0  0  0  0  0  0
  -29.7292    1.1792   28.0418 N   0  0  0  0  0  0  0  0  0  0  0  0
  -31.0053    0.1199   28.6163 C   0  0  0  0  0  0  0  0  0  0  0  0
  -30.1362    2.4061   30.2579 C   0  0  0  0  0  0  0  0  0  0  0  0
  -25.2198    0.4179   25.9742 O   0  0  0  0  0  0  0  0  0  0  0  0
  -31.4750   -0.5310   27.8840 C   0  0  0  0  0  0  0  0  0  0  0  0
  -29.3835    3.3107   31.0925 C   0  0  0  0  0  0  0  0  0  0  0  0
  -31.5228    2.7417   30.1544 C   0  0  0  0  0  0  0  0  0  0  0  0
  -32.0954    3.8738   30.6842 C   0  0  0  0  0  0  0  0  0  0  0  0
  -29.9079    4.4506   31.6854 C   0  0  0  0  0  0  0  0  0  0  0  0
  -31.2815    4.7238   31.4952 C   0  0  0  0  0  0  0  0  0  0  0  0
  -32.4826   -1.5285   28.4199 C   0  0  0  0  0  0  0  0  0  0  0  0
  -33.1326   -2.4308   27.5594 C   0  0  0  0  0  0  0  0  0  0  0  0
  -32.7876   -2.4170   26.1845 C   0  0  0  0  0  0  0  0  0  0  0  0
  -31.8650   -1.5328   25.6498 C   0  0  0  0  0  0  0  0  0  0  0  0
  3  7  1  0
  7  8  2  0
  8  9  1  0
  7 10  1  0
 10 11  1  0
  4 22  1  0
 21 22  1  0
 22 23  1  0
  6 24  1  0
 10 25  2  0
 23 26  2  3
 26 32  1  0
 32 33  2  3
 33 34  1  0
 34 35  2  0
 24 27  2  0
 27 30  1  0
 30 31  2  0
 31 29  1  0
 29 28  2  0
 28 24  1  0
  9 17  2  0
 17 18  1  0
 18 19  2  0
 19 20  1  0
 20 21  2  0
 21  9  1  0
  1  2  2  0
  2  5  1  0
  5  6  2  0
  6  4  1  0
  4  3  2  0
  3  1  1  0
 11 12  2  0
 12 13  1  0
 13 14  2  0
 14 16  1  0
 16 15  2  0
 15 11  1  0
M  END

$$$$
