No_899-gen_results/8p0m/2024-11-26-14-13-15/
     RDKit          3D

 17 18  0  0  0  0  0  0  0  0999 V2000
  -28.0162   -0.8135   28.8779 C   0  0  0  0  0  0  0  0  0  0  0  0
  -27.0636   -0.1189   28.6079 C   0  0  0  0  0  0  0  0  0  0  0  0
  -25.7923   -0.4302   29.0761 C   0  0  0  0  0  0  0  0  0  0  0  0
  -25.5756   -1.5654   29.9363 C   0  0  0  0  0  0  0  0  0  0  0  0
  -26.7354   -2.3004   30.2173 C   0  0  0  0  0  0  0  0  0  0  0  0
  -27.9184   -1.9537   29.7629 C   0  0  0  0  0  0  0  0  0  0  0  0
  -27.1057    1.1023   27.7593 C   0  0  0  0  0  0  0  0  0  0  0  0
  -26.7157    2.2350   27.9945 C   0  0  0  0  0  0  0  0  0  0  0  0
  -26.6929    3.3459   27.0337 C   0  0  0  0  0  0  0  0  0  0  0  0
  -27.1962    3.0779   25.7437 C   0  0  0  0  0  0  0  0  0  0  0  0
  -27.5814    0.8882   26.3714 C   0  0  0  0  0  0  0  0  0  0  0  0
  -27.6132    1.8443   25.4645 C   0  0  0  0  0  0  0  0  0  0  0  0
  -29.0617   -2.7801   30.2115 C   0  0  0  0  0  0  0  0  0  0  0  0
  -29.5089   -2.6032   31.1878 N   0  0  0  0  0  0  0  0  0  0  0  0
  -30.4871   -3.3783   31.7977 C   0  0  0  0  0  0  0  0  0  0  0  0
  -29.2486   -3.8185   29.5624 O   0  0  0  0  0  0  0  0  0  0  0  0
  -29.2628   -1.3353   32.0502 C   0  0  0  0  0  0  0  0  0  0  0  0
  2  7  1  0
  6 13  1  0
 13 14  1  0
 14 15  1  0
 13 16  2  0
 14 17  1  0
  7  8  2  0
  8  9  1  0
  9 10  2  0
 10 12  1  0
 12 11  2  0
 11  7  1  0
  1  2  2  0
  2  3  1  0
  3  4  2  0
  4  5  1  0
  5  6  2  0
  6  1  1  0
M  END

$$$$
