No_929-gen_results/8p0m/2024-11-26-14-13-15/
     RDKit          3D

 25 27  0  0  0  0  0  0  0  0999 V2000
  -28.0162   -0.8135   28.8779 C   0  0  0  0  0  0  0  0  0  0  0  0
  -28.4690   -0.7850   29.8287 C   0  0  0  0  0  0  0  0  0  0  0  0
  -26.5455   -0.8762   28.8500 C   0  0  0  0  0  0  0  0  0  0  0  0
  -25.8041   -1.0324   30.0571 C   0  0  0  0  0  0  0  0  0  0  0  0
  -27.9437   -0.9869   31.2075 C   0  0  0  0  0  0  0  0  0  0  0  0
  -26.5825   -1.0386   31.2231 C   0  0  0  0  0  0  0  0  0  0  0  0
  -30.2809   -0.7232   29.8834 Cl  0  0  0  0  0  0  0  0  0  0  0  0
  -24.3690   -1.1185   30.0640 C   0  0  0  0  0  0  0  0  0  0  0  0
  -23.5954   -0.5553   29.0940 C   0  0  0  0  0  0  0  0  0  0  0  0
  -22.1333   -0.5992   29.2607 C   0  0  0  0  0  0  0  0  0  0  0  0
  -24.1205    0.2186   28.0688 C   0  0  0  0  0  0  0  0  0  0  0  0
  -23.2377    1.1256   27.3603 C   0  0  0  0  0  0  0  0  0  0  0  0
  -21.3124    0.1911   28.4682 C   0  0  0  0  0  0  0  0  0  0  0  0
  -21.8167    1.0486   27.5767 C   0  0  0  0  0  0  0  0  0  0  0  0
  -23.5785    2.1352   26.3022 C   0  0  0  0  0  0  0  0  0  0  0  0
  -24.7790    2.6743   26.4554 N   0  0  0  0  0  0  0  0  0  0  0  0
  -22.7359    2.6843   25.5867 O   0  0  0  0  0  0  0  0  0  0  0  0
  -25.8783    2.3207   27.2763 C   0  0  0  0  0  0  0  0  0  0  0  0
  -27.1398    2.6877   26.7468 C   0  0  0  0  0  0  0  0  0  0  0  0
  -27.9916    3.2952   27.6358 C   0  0  0  0  0  0  0  0  0  0  0  0
  -29.3238    3.5432   27.3221 C   0  0  0  0  0  0  0  0  0  0  0  0
  -29.6934    3.2830   25.9707 C   0  0  0  0  0  0  0  0  0  0  0  0
  -28.8394    2.7338   25.0623 C   0  0  0  0  0  0  0  0  0  0  0  0
  -27.5537    2.4511   25.4632 C   0  0  0  0  0  0  0  0  0  0  0  0
  -25.7240    1.9731   28.4303 O   0  0  0  0  0  0  0  0  0  0  0  0
  2  7  1  0
  4  8  1  0
 12 15  1  0
 15 16  1  0
 15 17  2  0
 16 18  1  0
 18 19  1  0
 18 25  2  0
  8  9  1  0
  9 10  2  0
 10 13  1  0
 13 14  2  0
 14 12  1  0
 12 11  2  0
 11  9  1  0
  1  2  2  0
  2  5  1  0
  5  6  2  0
  6  4  1  0
  4  3  2  0
  3  1  1  0
 19 20  2  0
 20 21  1  0
 21 22  2  0
 22 23  1  0
 23 24  2  0
 24 19  1  0
M  END

$$$$
