No_974-gen_results/8p0m/2024-11-26-14-13-15/
     RDKit          3D

 19 20  0  0  0  0  0  0  0  0999 V2000
  -28.0162   -0.8135   28.8779 C   0  0  0  0  0  0  0  0  0  0  0  0
  -27.0636   -0.1189   28.6079 C   0  0  0  0  0  0  0  0  0  0  0  0
  -26.9287    1.1713   29.0083 C   0  0  0  0  0  0  0  0  0  0  0  0
  -25.7702    2.0341   28.6884 C   0  0  0  0  0  0  0  0  0  0  0  0
  -24.7141    1.4431   27.9188 C   0  0  0  0  0  0  0  0  0  0  0  0
  -24.8590    0.0783   27.5836 C   0  0  0  0  0  0  0  0  0  0  0  0
  -25.9647   -0.6606   27.9164 C   0  0  0  0  0  0  0  0  0  0  0  0
  -28.0422   -1.5426   30.2417 C   0  0  0  0  0  0  0  0  0  0  0  0
  -29.0635   -2.4584   30.5917 C   0  0  0  0  0  0  0  0  0  0  0  0
  -30.3213   -2.0364   30.3596 C   0  0  0  0  0  0  0  0  0  0  0  0
  -30.4813   -1.0555   29.3342 C   0  0  0  0  0  0  0  0  0  0  0  0
  -29.3912   -0.4346   28.6881 C   0  0  0  0  0  0  0  0  0  0  0  0
  -23.5102    2.1343   27.5620 C   0  0  0  0  0  0  0  0  0  0  0  0
  -23.3098    2.6885   26.6624 F   0  0  0  0  0  0  0  0  0  0  0  0
  -23.0260    2.8450   28.6897 F   0  0  0  0  0  0  0  0  0  0  0  0
  -22.4018    1.1073   27.6496 F   0  0  0  0  0  0  0  0  0  0  0  0
  -31.8446   -0.7458   28.8275 C   0  0  0  0  0  0  0  0  0  0  0  0
  -32.5612    0.0077   29.3212 O   0  0  0  0  0  0  0  0  0  0  0  0
  -32.1231   -1.3899   27.6874 O   0  0  0  0  0  0  0  0  0  0  0  0
  1  2  1  0
  5 13  1  0
 13 14  1  0
 13 15  1  0
 13 16  1  0
 11 17  1  0
 17 18  2  0
 17 19  1  0
  2  3  2  0
  3  4  1  0
  4  5  2  0
  5  6  1  0
  6  7  2  0
  7  2  1  0
  1  8  2  0
  8  9  1  0
  9 10  2  0
 10 11  1  0
 11 12  2  0
 12  1  1  0
M  END

$$$$
