No_955-gen_results/8p0m/2024-11-26-14-13-15/
     RDKit          3D

 35 39  0  0  0  0  0  0  0  0999 V2000
  -28.0162   -0.8135   28.8779 C   0  0  0  0  0  0  0  0  0  0  0  0
  -28.4690   -0.7850   29.8287 C   0  0  0  0  0  0  0  0  0  0  0  0
  -26.5042   -0.7777   28.8766 C   0  0  0  0  0  0  0  0  0  0  0  0
  -25.8103   -0.8531   30.1028 C   0  0  0  0  0  0  0  0  0  0  0  0
  -27.9906   -0.8916   31.2257 C   0  0  0  0  0  0  0  0  0  0  0  0
  -26.6042   -0.8676   31.2652 C   0  0  0  0  0  0  0  0  0  0  0  0
  -29.9342   -0.7549   29.6857 O   0  0  0  0  0  0  0  0  0  0  0  0
  -30.6124    0.3173   30.1204 C   0  0  0  0  0  0  0  0  0  0  0  0
  -31.5369    0.7044   29.3871 C   0  0  0  0  0  0  0  0  0  0  0  0
  -32.2965    1.8990   29.7527 C   0  0  0  0  0  0  0  0  0  0  0  0
  -31.9405    2.5478   30.9619 C   0  0  0  0  0  0  0  0  0  0  0  0
  -30.8958    2.0402   31.6995 C   0  0  0  0  0  0  0  0  0  0  0  0
  -30.1874    0.9716   31.3327 C   0  0  0  0  0  0  0  0  0  0  0  0
  -24.3856   -0.8915   30.1413 C   0  0  0  0  0  0  0  0  0  0  0  0
  -23.7905    0.3809   29.9311 C   0  0  0  0  0  0  0  0  0  0  0  0
  -23.4862    0.8181   28.6804 C   0  0  0  0  0  0  0  0  0  0  0  0
  -24.2521    1.1907   27.8037 C   0  0  0  0  0  0  0  0  0  0  0  0
  -23.8115    1.6826   26.5230 C   0  0  0  0  0  0  0  0  0  0  0  0
  -22.4341    1.9592   26.3551 C   0  0  0  0  0  0  0  0  0  0  0  0
  -21.5592    1.6570   27.3669 C   0  0  0  0  0  0  0  0  0  0  0  0
  -22.0106    1.1779   28.5929 C   0  0  0  0  0  0  0  0  0  0  0  0
  -23.7556    1.2704   31.1163 C   0  0  0  0  0  0  0  0  0  0  0  0
  -33.4186    2.3456   28.9420 C   0  0  0  0  0  0  0  0  0  0  0  0
  -33.8949    3.4974   29.0719 C   0  0  0  0  0  0  0  0  0  0  0  0
  -33.6349    4.2352   30.3080 C   0  0  0  0  0  0  0  0  0  0  0  0
  -32.6197    3.8169   31.1715 C   0  0  0  0  0  0  0  0  0  0  0  0
  -34.3252    5.5172   30.5955 C   0  0  0  0  0  0  0  0  0  0  0  0
  -33.6065    6.5315   30.8789 C   0  0  0  0  0  0  0  0  0  0  0  0
  -35.7131    5.4869   30.4985 C   0  0  0  0  0  0  0  0  0  0  0  0
  -34.1483    7.7962   31.1128 C   0  0  0  0  0  0  0  0  0  0  0  0
  -36.3389    6.7623   30.7417 C   0  0  0  0  0  0  0  0  0  0  0  0
  -35.5645    7.8800   31.0584 C   0  0  0  0  0  0  0  0  0  0  0  0
  -36.2341    9.1716   31.3063 C   0  0  0  0  0  0  0  0  0  0  0  0
  -36.6294    9.9962   30.7830 C   0  0  0  0  0  0  0  0  0  0  0  0
  -37.1669   11.0722   30.8155 C   0  0  0  0  0  0  0  0  0  0  0  0
  2  7  1  0
  7  8  1  0
  4 14  1  0
 14 15  1  0
 15 16  1  0
 15 22  1  0
 25 27  1  0
 32 33  1  0
 33 34  2  3
 34 35  1  0
 27 28  2  0
 28 30  1  0
 30 32  2  0
 32 31  1  0
 31 29  2  0
 29 27  1  0
  1  2  2  0
  2  5  1  0
  5  6  2  0
  6  4  1  0
  4  3  2  0
  3  1  1  0
  8  9  2  0
  9 10  1  0
 11 12  1  0
 12 13  2  0
 13  8  1  0
 10 11  2  0
 11 26  1  0
 26 25  2  0
 25 24  1  0
 24 23  2  0
 23 10  1  0
 16 17  2  0
 17 18  1  0
 18 19  2  0
 19 20  1  0
 20 21  2  0
 21 16  1  0
M  END

$$$$
