No_987-gen_results/8p0m/2024-11-26-14-13-15/
     RDKit          3D

 35 39  0  0  0  0  0  0  0  0999 V2000
  -28.0162   -0.8135   28.8779 C   0  0  0  0  0  0  0  0  0  0  0  0
  -28.4690   -0.7850   29.8287 C   0  0  0  0  0  0  0  0  0  0  0  0
  -27.1356    0.2359   28.5352 C   0  0  0  0  0  0  0  0  0  0  0  0
  -26.3351    0.2900   27.2835 C   0  0  0  0  0  0  0  0  0  0  0  0
  -28.3692    0.1957   30.9236 C   0  0  0  0  0  0  0  0  0  0  0  0
  -27.5158    1.2655   30.6540 C   0  0  0  0  0  0  0  0  0  0  0  0
  -26.8411    1.2942   29.4761 C   0  0  0  0  0  0  0  0  0  0  0  0
  -25.6774    1.5198   26.9774 C   0  0  0  0  0  0  0  0  0  0  0  0
  -24.6511    1.5543   26.2096 C   0  0  0  0  0  0  0  0  0  0  0  0
  -23.8845    2.8924   26.0981 C   0  0  0  0  0  0  0  0  0  0  0  0
  -24.3714    4.0010   26.8162 C   0  0  0  0  0  0  0  0  0  0  0  0
  -25.5144    3.8796   27.5451 C   0  0  0  0  0  0  0  0  0  0  0  0
  -26.1260    2.6350   27.7528 C   0  0  0  0  0  0  0  0  0  0  0  0
  -26.7823    2.5336   28.9410 N   0  0  0  0  0  0  0  0  0  0  0  0
  -27.2257    3.7324   29.5840 C   0  0  0  0  0  0  0  0  0  0  0  0
  -26.5128    4.2891   30.3632 O   0  0  0  0  0  0  0  0  0  0  0  0
  -28.5728    4.1034   29.2539 C   0  0  0  0  0  0  0  0  0  0  0  0
  -29.0637    5.0186   30.0287 C   0  0  0  0  0  0  0  0  0  0  0  0
  -29.2814    3.5346   28.1767 C   0  0  0  0  0  0  0  0  0  0  0  0
  -30.6128    3.8400   27.9759 C   0  0  0  0  0  0  0  0  0  0  0  0
  -30.4699    5.4243   29.7838 C   0  0  0  0  0  0  0  0  0  0  0  0
  -31.1900    4.8376   28.7624 C   0  0  0  0  0  0  0  0  0  0  0  0
  -31.3770    3.2294   26.9136 C   0  0  0  0  0  0  0  0  0  0  0  0
  -31.3194    2.0013   26.9033 C   0  0  0  0  0  0  0  0  0  0  0  0
  -31.5523    1.1674   27.8322 C   0  0  0  0  0  0  0  0  0  0  0  0
  -31.5233   -0.2726   27.7321 C   0  0  0  0  0  0  0  0  0  0  0  0
  -31.1908   -0.7658   26.4877 C   0  0  0  0  0  0  0  0  0  0  0  0
  -30.8773    0.0190   25.4275 C   0  0  0  0  0  0  0  0  0  0  0  0
  -30.9291    1.3650   25.5549 C   0  0  0  0  0  0  0  0  0  0  0  0
  -31.7703   -1.0833   28.7539 O   0  0  0  0  0  0  0  0  0  0  0  0
  -32.2366   -0.5711   29.9108 C   0  0  0  0  0  0  0  0  0  0  0  0
  -30.4732   -0.5706   24.1610 C   0  0  0  0  0  0  0  0  0  0  0  0
  -29.3096   -0.2035   23.5593 C   0  0  0  0  0  0  0  0  0  0  0  0
  -28.2258    0.1592   24.4541 C   0  0  0  0  0  0  0  0  0  0  0  0
  -31.8683   -1.2893   31.0322 C   0  0  0  0  0  0  0  0  0  0  0  0
  3  4  1  0
  4  8  1  0
  7 14  1  0
 13 14  1  0
 14 15  1  0
 15 16  2  0
 15 17  1  0
 20 23  1  0
 23 24  1  0
 26 30  1  0
 30 31  1  0
 28 32  1  0
 32 33  2  3
 33 34  1  0
 31 35  2  0
 24 25  2  0
 25 26  1  0
 26 27  2  0
 27 28  1  0
 28 29  2  0
 29 24  1  0
 17 18  2  0
 18 21  1  0
 21 22  2  0
 22 20  1  0
 20 19  2  0
 19 17  1  0
  1  2  2  0
  2  5  1  0
  5  6  2  0
  6  7  1  0
  7  3  2  0
  3  1  1  0
  8  9  2  0
  9 10  1  0
 10 11  2  0
 11 12  1  0
 12 13  2  0
 13  8  1  0
M  END

$$$$
