No_942-gen_results/8p0m/2024-11-26-14-13-15/
     RDKit          3D

 18 19  0  0  0  0  0  0  0  0999 V2000
  -28.0162   -0.8135   28.8779 C   0  0  0  0  0  0  0  0  0  0  0  0
  -27.0636   -0.1189   28.6079 C   0  0  0  0  0  0  0  0  0  0  0  0
  -26.9716    0.7139   27.5060 C   0  0  0  0  0  0  0  0  0  0  0  0
  -28.1053    0.7744   26.6421 C   0  0  0  0  0  0  0  0  0  0  0  0
  -29.2041    0.1179   27.0477 C   0  0  0  0  0  0  0  0  0  0  0  0
  -30.3488    0.2568   26.2203 C   0  0  0  0  0  0  0  0  0  0  0  0
  -29.1817   -0.6758   28.1173 C   0  0  0  0  0  0  0  0  0  0  0  0
  -30.3285   -0.0553   25.0162 O   0  0  0  0  0  0  0  0  0  0  0  0
  -31.5408    0.4942   26.7257 O   0  0  0  0  0  0  0  0  0  0  0  0
  -25.6689    1.4187   27.1340 C   0  0  0  0  0  0  0  0  0  0  0  0
  -24.5290    1.0495   27.7204 C   0  0  0  0  0  0  0  0  0  0  0  0
  -24.2813    0.1499   28.7288 C   0  0  0  0  0  0  0  0  0  0  0  0
  -24.9289   -0.4352   29.2653 C   0  0  0  0  0  0  0  0  0  0  0  0
  -25.8999   -0.5635   29.2311 C   0  0  0  0  0  0  0  0  0  0  0  0
  -23.3076    1.8762   27.2209 C   0  0  0  0  0  0  0  0  0  0  0  0
  -22.1006    1.5716   27.7631 N   0  0  0  0  0  0  0  0  0  0  0  0
  -23.4049    2.8425   26.3374 N   0  0  0  0  0  0  0  0  0  0  0  0
  -26.2303   -1.6467   30.0445 N   0  0  0  0  0  0  0  0  0  0  0  0
  5  6  1  0
  6  8  2  0
  6  9  1  0
  3 10  1  0
 10 11  2  0
 11 12  1  0
 12 13  2  0
  2 14  1  0
 13 14  1  0
 11 15  1  0
 15 16  2  0
 15 17  1  0
 14 18  1  0
  1  2  2  0
  2  3  1  0
  3  4  2  0
  4  5  1  0
  5  7  2  0
  7  1  1  0
M  END

$$$$
