No_918-gen_results/8p0m/2024-11-26-14-13-15/
     RDKit          3D

 26 27  0  0  0  0  0  0  0  0999 V2000
  -28.0162   -0.8135   28.8779 C   0  0  0  0  0  0  0  0  0  0  0  0
  -27.0636   -0.1189   28.6079 C   0  0  0  0  0  0  0  0  0  0  0  0
  -26.9287    1.1713   29.0083 C   0  0  0  0  0  0  0  0  0  0  0  0
  -25.7702    2.0341   28.6884 C   0  0  0  0  0  0  0  0  0  0  0  0
  -24.7141    1.4431   27.9188 C   0  0  0  0  0  0  0  0  0  0  0  0
  -24.6669    0.3608   27.7694 C   0  0  0  0  0  0  0  0  0  0  0  0
  -25.8568   -0.6337   27.9784 C   0  0  0  0  0  0  0  0  0  0  0  0
  -29.1771   -0.3120   28.9657 N   0  0  0  0  0  0  0  0  0  0  0  0
  -30.1660   -0.9128   29.7452 C   0  0  0  0  0  0  0  0  0  0  0  0
  -29.9040   -2.0623   29.9466 F   0  0  0  0  0  0  0  0  0  0  0  0
  -31.4488   -0.7996   29.1994 O   0  0  0  0  0  0  0  0  0  0  0  0
  -30.1503   -0.1534   31.1685 C   0  0  0  0  0  0  0  0  0  0  0  0
  -23.4874    2.3404   27.7248 C   0  0  0  0  0  0  0  0  0  0  0  0
  -23.6259    3.3575   27.1824 F   0  0  0  0  0  0  0  0  0  0  0  0
  -22.2874    1.8685   27.7596 F   0  0  0  0  0  0  0  0  0  0  0  0
  -29.7640   -0.9113   32.0567 F   0  0  0  0  0  0  0  0  0  0  0  0
  -31.4303    0.2115   31.4376 F   0  0  0  0  0  0  0  0  0  0  0  0
  -29.4185    0.9447   31.0645 F   0  0  0  0  0  0  0  0  0  0  0  0
  -29.6021    0.6622   27.9775 C   0  0  0  0  0  0  0  0  0  0  0  0
  -29.7933    1.9481   28.3466 C   0  0  0  0  0  0  0  0  0  0  0  0
  -30.4939    2.7262   27.7880 C   0  0  0  0  0  0  0  0  0  0  0  0
  -31.3030    2.4557   26.8411 C   0  0  0  0  0  0  0  0  0  0  0  0
  -31.1490    1.1343   26.2867 C   0  0  0  0  0  0  0  0  0  0  0  0
  -30.6704    0.1449   27.1709 C   0  0  0  0  0  0  0  0  0  0  0  0
  -30.4687   -0.9973   26.4876 O   0  0  0  0  0  0  0  0  0  0  0  0
  -32.3328    0.7369   25.5156 O   0  0  0  0  0  0  0  0  0  0  0  0
  1  2  1  0
  1  8  1  0
  8  9  1  0
  9 10  1  0
  9 11  1  0
  9 12  1  0
  5 13  1  0
 13 14  1  0
 13 15  1  0
 12 16  1  0
 12 17  1  0
 12 18  1  0
  8 19  1  0
 24 25  1  0
 23 26  1  0
  2  3  2  0
  3  4  1  0
  4  5  2  0
  5  6  1  0
  6  7  2  0
  7  2  1  0
 19 20  2  0
 20 21  1  0
 21 22  2  0
 22 23  1  0
 23 24  2  0
 24 19  1  0
M  END

$$$$
