No_905-gen_results/8p0m/2024-11-26-14-13-15/
     RDKit          3D

 35 36  0  0  0  0  0  0  0  0999 V2000
  -28.0162   -0.8135   28.8779 C   0  0  0  0  0  0  0  0  0  0  0  0
  -28.4690   -0.7850   29.8287 C   0  0  0  0  0  0  0  0  0  0  0  0
  -27.0871    0.2903   28.6377 C   0  0  0  0  0  0  0  0  0  0  0  0
  -26.2516    0.4114   27.4223 C   0  0  0  0  0  0  0  0  0  0  0  0
  -28.3913    0.1041   30.9805 C   0  0  0  0  0  0  0  0  0  0  0  0
  -27.5332    1.1666   30.7866 C   0  0  0  0  0  0  0  0  0  0  0  0
  -26.8281    1.2557   29.6454 C   0  0  0  0  0  0  0  0  0  0  0  0
  -26.2894   -0.3208   26.7008 F   0  0  0  0  0  0  0  0  0  0  0  0
  -26.4501    1.7036   26.8785 F   0  0  0  0  0  0  0  0  0  0  0  0
  -24.8206    0.5392   27.7857 F   0  0  0  0  0  0  0  0  0  0  0  0
  -29.4616   -2.0181   30.2134 C   0  0  0  0  0  0  0  0  0  0  0  0
  -30.4886   -1.8749   29.8085 O   0  0  0  0  0  0  0  0  0  0  0  0
  -28.9037   -3.1893   30.5526 O   0  0  0  0  0  0  0  0  0  0  0  0
  -27.3161    2.1916   31.8350 C   0  0  0  0  0  0  0  0  0  0  0  0
  -27.1093    2.1246   32.8777 N   0  0  0  0  0  0  0  0  0  0  0  0
  -26.9880    3.2383   31.2969 F   0  0  0  0  0  0  0  0  0  0  0  0
  -27.0547    1.0411   33.6591 C   0  0  0  0  0  0  0  0  0  0  0  0
  -25.8151    0.4249   33.8054 C   0  0  0  0  0  0  0  0  0  0  0  0
  -27.6583    1.2337   35.0554 C   0  0  0  0  0  0  0  0  0  0  0  0
  -28.8419    0.5253   35.2844 C   0  0  0  0  0  0  0  0  0  0  0  0
  -29.7951    0.8402   35.8785 C   0  0  0  0  0  0  0  0  0  0  0  0
  -29.6113    1.9333   36.9024 C   0  0  0  0  0  0  0  0  0  0  0  0
  -28.4350    2.6550   36.8411 C   0  0  0  0  0  0  0  0  0  0  0  0
  -27.4805    2.4023   35.8432 C   0  0  0  0  0  0  0  0  0  0  0  0
  -25.2489   -0.4486   32.8336 C   0  0  0  0  0  0  0  0  0  0  0  0
  -23.9671   -0.9182   32.8959 C   0  0  0  0  0  0  0  0  0  0  0  0
  -23.3408   -1.2120   31.7189 C   0  0  0  0  0  0  0  0  0  0  0  0
  -24.1298   -1.3035   30.4588 C   0  0  0  0  0  0  0  0  0  0  0  0
  -24.4134   -2.2832   29.9859 C   0  0  0  0  0  0  0  0  0  0  0  0
  -25.0033   -2.4168   28.5653 C   0  0  0  0  0  0  0  0  0  0  0  0
  -30.5816    2.1955   37.8354 O   0  0  0  0  0  0  0  0  0  0  0  0
  -31.4776    2.6980   37.8903 C   0  0  0  0  0  0  0  0  0  0  0  0
  -32.2181    3.0299   38.7353 C   0  0  0  0  0  0  0  0  0  0  0  0
  -32.0778    3.2270   36.5397 C   0  0  0  0  0  0  0  0  0  0  0  0
  -33.2874    3.8782   36.4227 C   0  0  0  0  0  0  0  0  0  0  0  0
  3  4  1  0
  4  8  1  0
  4  9  1  0
  4 10  1  0
  2 11  1  0
 11 12  1  0
 11 13  2  0
  6 14  1  0
 14 15  2  3
 14 16  1  0
 15 17  1  0
 17 18  1  0
 17 19  1  0
 18 25  2  3
 25 26  1  0
 26 27  2  3
 27 28  1  0
 28 29  2  3
 29 30  1  0
 22 31  1  0
 31 32  1  0
 32 33  2  0
 32 34  1  0
 34 35  1  0
  1  2  2  0
  2  5  1  0
  5  6  2  0
  6  7  1  0
  7  3  2  0
  3  1  1  0
 19 20  2  0
 20 21  1  0
 21 22  2  0
 22 23  1  0
 23 24  2  0
 24 19  1  0
M  END

$$$$
