No_954-gen_results/8p0m/2024-11-26-14-13-15/
     RDKit          3D

 19 19  0  0  0  0  0  0  0  0999 V2000
  -28.0162   -0.8135   28.8779 C   0  0  0  0  0  0  0  0  0  0  0  0
  -27.0636   -0.1189   28.6079 C   0  0  0  0  0  0  0  0  0  0  0  0
  -26.9716    0.7139   27.5060 C   0  0  0  0  0  0  0  0  0  0  0  0
  -28.1053    0.7744   26.6421 C   0  0  0  0  0  0  0  0  0  0  0  0
  -29.2008    0.1044   27.0527 C   0  0  0  0  0  0  0  0  0  0  0  0
  -28.0219   -1.5899   30.0879 C   0  0  0  0  0  0  0  0  0  0  0  0
  -29.1640   -0.6394   28.1484 C   0  0  0  0  0  0  0  0  0  0  0  0
  -28.8376   -1.8977   30.7662 N   0  0  0  0  0  0  0  0  0  0  0  0
  -26.8304   -2.2582   30.3410 O   0  0  0  0  0  0  0  0  0  0  0  0
  -28.8433   -2.9197   31.8446 C   0  0  0  0  0  0  0  0  0  0  0  0
  -30.2878    0.1950   26.2891 F   0  0  0  0  0  0  0  0  0  0  0  0
  -28.0285    1.6827   25.4723 C   0  0  0  0  0  0  0  0  0  0  0  0
  -28.0828    2.9039   25.6386 C   0  0  0  0  0  0  0  0  0  0  0  0
  -28.0824    1.0383   24.1780 C   0  0  0  0  0  0  0  0  0  0  0  0
  -27.3049    3.6735   26.4996 C   0  0  0  0  0  0  0  0  0  0  0  0
  -27.4906    5.0362   26.8416 C   0  0  0  0  0  0  0  0  0  0  0  0
  -26.6569    5.7200   27.7024 C   0  0  0  0  0  0  0  0  0  0  0  0
  -25.4882    5.0265   28.2010 C   0  0  0  0  0  0  0  0  0  0  0  0
  -25.1791    3.7578   27.7815 C   0  0  0  0  0  0  0  0  0  0  0  0
  1  6  1  0
  6  8  1  0
  6  9  2  0
  8 10  1  0
  5 11  1  0
  4 12  1  0
 12 13  1  0
 12 14  1  0
 13 15  2  3
 15 16  1  0
 16 17  2  3
 17 18  1  0
 18 19  2  0
  1  2  2  0
  2  3  1  0
  3  4  2  0
  4  5  1  0
  5  7  2  0
  7  1  1  0
M  END

$$$$
