No_983-gen_results/8p0m/2024-11-26-14-13-15/
     RDKit          3D

  9  9  0  0  0  0  0  0  0  0999 V2000
  -28.1229   -1.3353   28.4874 O   0  0  0  0  0  0  0  0  0  0  0  0
  -27.4806   -0.4044   28.7094 C   0  0  0  0  0  0  0  0  0  0  0  0
  -26.3804   -0.0867   27.9394 C   0  0  0  0  0  0  0  0  0  0  0  0
  -27.7306    0.3455   29.8481 F   0  0  0  0  0  0  0  0  0  0  0  0
  -25.1283   -0.3314   28.3752 C   0  0  0  0  0  0  0  0  0  0  0  0
  -26.5376    0.6088   26.6774 C   0  0  0  0  0  0  0  0  0  0  0  0
  -23.9165    0.1748   27.6201 C   0  0  0  0  0  0  0  0  0  0  0  0
  -25.4137    1.0237   25.9248 C   0  0  0  0  0  0  0  0  0  0  0  0
  -24.1197    0.8405   26.4096 C   0  0  0  0  0  0  0  0  0  0  0  0
  1  2  2  0
  2  3  1  0
  2  4  1  0
  3  5  2  0
  5  7  1  0
  7  9  2  0
  9  8  1  0
  8  6  2  0
  6  3  1  0
M  END

$$$$
