No_956-gen_results/8p0m/2024-11-26-14-13-15/
     RDKit          3D

 25 26  0  0  0  0  0  0  0  0999 V2000
  -28.0162   -0.8135   28.8779 C   0  0  0  0  0  0  0  0  0  0  0  0
  -27.0636   -0.1189   28.6079 C   0  0  0  0  0  0  0  0  0  0  0  0
  -27.0010    0.6913   27.4910 C   0  0  0  0  0  0  0  0  0  0  0  0
  -25.8548    1.4825   27.0830 C   0  0  0  0  0  0  0  0  0  0  0  0
  -24.6901    1.4526   27.8807 C   0  0  0  0  0  0  0  0  0  0  0  0
  -24.7379    0.6010   29.0416 C   0  0  0  0  0  0  0  0  0  0  0  0
  -25.8234   -0.1688   29.3887 C   0  0  0  0  0  0  0  0  0  0  0  0
  -29.2252   -0.0469   29.2805 C   0  0  0  0  0  0  0  0  0  0  0  0
  -29.6809    0.6666   28.4495 F   0  0  0  0  0  0  0  0  0  0  0  0
  -30.2672   -0.9607   29.6520 F   0  0  0  0  0  0  0  0  0  0  0  0
  -29.0319    0.7259   30.3839 F   0  0  0  0  0  0  0  0  0  0  0  0
  -23.3478    2.3938   27.5509 Cl  0  0  0  0  0  0  0  0  0  0  0  0
  -23.4721    0.5556   29.8872 C   0  0  0  0  0  0  0  0  0  0  0  0
  -22.3461    0.0035   29.3158 C   0  0  0  0  0  0  0  0  0  0  0  0
  -23.8805   -0.1277   31.2098 C   0  0  0  0  0  0  0  0  0  0  0  0
  -23.1649    2.0696   30.4053 C   0  0  0  0  0  0  0  0  0  0  0  0
  -24.5993   -1.2241   31.2238 C   0  0  0  0  0  0  0  0  0  0  0  0
  -25.9967   -0.8799   30.6763 C   0  0  0  0  0  0  0  0  0  0  0  0
  -25.9191    2.3034   25.9037 C   0  0  0  0  0  0  0  0  0  0  0  0
  -26.9246    3.1871   25.8275 C   0  0  0  0  0  0  0  0  0  0  0  0
  -26.9329    4.3642   26.5934 C   0  0  0  0  0  0  0  0  0  0  0  0
  -28.0948    5.2185   26.5797 C   0  0  0  0  0  0  0  0  0  0  0  0
  -28.1837    6.3895   27.3364 C   0  0  0  0  0  0  0  0  0  0  0  0
  -27.0492    6.7172   28.0912 C   0  0  0  0  0  0  0  0  0  0  0  0
  -25.8937    5.9187   28.1254 C   0  0  0  0  0  0  0  0  0  0  0  0
  1  2  1  0
  1  8  1  0
  8  9  1  0
  8 10  1  0
  8 11  1  0
  5 12  1  0
  6 13  1  0
 13 14  1  0
 13 15  1  0
 13 16  1  0
 15 17  1  0
  7 18  1  0
 17 18  1  0
  4 19  1  0
 19 20  1  0
 20 21  2  3
 21 22  1  0
 22 23  2  3
 23 24  1  0
 24 25  2  0
  2  3  2  0
  3  4  1  0
  4  5  2  0
  5  6  1  0
  6  7  2  0
  7  2  1  0
M  END

$$$$
