No_904-gen_results/8p0m/2024-11-26-14-13-15/
     RDKit          3D

 18 19  0  0  0  0  0  0  0  0999 V2000
  -28.0162   -0.8135   28.8779 C   0  0  0  0  0  0  0  0  0  0  0  0
  -27.0636   -0.1189   28.6079 C   0  0  0  0  0  0  0  0  0  0  0  0
  -26.9716    0.7139   27.5060 C   0  0  0  0  0  0  0  0  0  0  0  0
  -25.8205    1.4909   27.1160 C   0  0  0  0  0  0  0  0  0  0  0  0
  -24.6562    1.4242   27.9180 C   0  0  0  0  0  0  0  0  0  0  0  0
  -24.6847    0.5901   29.0659 C   0  0  0  0  0  0  0  0  0  0  0  0
  -25.8099   -0.1265   29.3338 C   0  0  0  0  0  0  0  0  0  0  0  0
  -29.2186   -0.0422   29.3127 C   0  0  0  0  0  0  0  0  0  0  0  0
  -30.0835   -0.8956   29.6667 F   0  0  0  0  0  0  0  0  0  0  0  0
  -28.9946    0.7190   30.3302 F   0  0  0  0  0  0  0  0  0  0  0  0
  -29.6600    0.6038   28.2395 F   0  0  0  0  0  0  0  0  0  0  0  0
  -23.4950    2.2481   27.6245 C   0  0  0  0  0  0  0  0  0  0  0  0
  -22.5795    2.2577   28.4947 O   0  0  0  0  0  0  0  0  0  0  0  0
  -23.3626    2.8044   26.4845 O   0  0  0  0  0  0  0  0  0  0  0  0
  -25.7178   -1.1239   30.7191 Cl  0  0  0  0  0  0  0  0  0  0  0  0
  -25.9302    2.3399   25.9636 C   0  0  0  0  0  0  0  0  0  0  0  0
  -24.3719    2.6579   25.5314 C   0  0  0  0  0  0  0  0  0  0  0  0
  -23.6690    0.5321   29.8793 O   0  0  0  0  0  0  0  0  0  0  0  0
  1  2  2  3
  2  3  1  0
  3  4  1  0
  4  5  1  0
  5  6  1  0
  2  7  1  0
  6  7  1  0
  1  8  1  0
  8  9  1  0
  8 10  1  0
  8 11  1  0
  5 12  1  0
 12 13  2  0
 12 14  1  0
  7 15  1  0
  4 16  1  0
 14 17  1  0
 16 17  1  0
  6 18  2  0
M  END

$$$$
