No_99-gen_results/8p0m/2024-11-26-14-13-15/
     RDKit          3D

 20 22  0  0  0  0  0  0  0  0999 V2000
  -28.0162   -0.8135   28.8779 C   0  0  0  0  0  0  0  0  0  0  0  0
  -27.0636   -0.1189   28.6079 C   0  0  0  0  0  0  0  0  0  0  0  0
  -26.9287    1.1713   29.0083 C   0  0  0  0  0  0  0  0  0  0  0  0
  -27.9560    1.7411   29.7840 C   0  0  0  0  0  0  0  0  0  0  0  0
  -29.0569   -0.3271   29.7466 C   0  0  0  0  0  0  0  0  0  0  0  0
  -28.9828    0.9722   30.1516 C   0  0  0  0  0  0  0  0  0  0  0  0
  -26.0278   -0.5935   27.8711 F   0  0  0  0  0  0  0  0  0  0  0  0
  -30.2418    1.5803   31.1479 Cl  0  0  0  0  0  0  0  0  0  0  0  0
  -25.7486    2.0101   28.5753 C   0  0  0  0  0  0  0  0  0  0  0  0
  -24.6223    1.8845   29.3105 C   0  0  0  0  0  0  0  0  0  0  0  0
  -23.3037    1.9108   28.5950 C   0  0  0  0  0  0  0  0  0  0  0  0
  -23.3110    2.2755   27.2084 C   0  0  0  0  0  0  0  0  0  0  0  0
  -24.5579    2.5010   26.5877 C   0  0  0  0  0  0  0  0  0  0  0  0
  -25.5771    1.9279   27.0771 C   0  0  0  0  0  0  0  0  0  0  0  0
  -26.1099    3.5951   28.8855 C   0  0  0  0  0  0  0  0  0  0  0  0
  -25.8156    4.0927   30.0122 C   0  0  0  0  0  0  0  0  0  0  0  0
  -26.1608    5.4672   30.2743 C   0  0  0  0  0  0  0  0  0  0  0  0
  -26.6988    6.2066   29.2067 C   0  0  0  0  0  0  0  0  0  0  0  0
  -26.7408    4.3634   27.8965 C   0  0  0  0  0  0  0  0  0  0  0  0
  -27.0509    5.6393   28.0693 C   0  0  0  0  0  0  0  0  0  0  0  0
  2  7  1  0
  6  8  1  0
  3  9  1  0
  9 10  1  0
 11 12  1  0
  9 14  1  0
 13 14  1  0
  9 15  1  0
 10 11  1  0
 12 13  1  0
 15 16  2  0
 16 17  1  0
 17 18  2  0
 18 20  1  0
 20 19  2  0
 19 15  1  0
  1  2  2  0
  2  3  1  0
  3  4  2  0
  4  6  1  0
  6  5  2  0
  5  1  1  0
M  END

$$$$
