No_952-gen_results/8p0m/2024-11-26-14-13-15/
     RDKit          3D

 13 14  0  0  0  0  0  0  0  0999 V2000
  -28.0162   -0.8135   28.8779 C   0  0  0  0  0  0  0  0  0  0  0  0
  -28.4690   -0.7850   29.8287 C   0  0  0  0  0  0  0  0  0  0  0  0
  -27.1356    0.2359   28.5352 C   0  0  0  0  0  0  0  0  0  0  0  0
  -26.3351    0.2900   27.2835 C   0  0  0  0  0  0  0  0  0  0  0  0
  -28.3692    0.1957   30.9236 C   0  0  0  0  0  0  0  0  0  0  0  0
  -27.5158    1.2655   30.6540 C   0  0  0  0  0  0  0  0  0  0  0  0
  -26.8411    1.2942   29.4761 C   0  0  0  0  0  0  0  0  0  0  0  0
  -25.8079    1.4528   26.9401 N   0  0  0  0  0  0  0  0  0  0  0  0
  -24.7027    1.9039   27.5729 C   0  0  0  0  0  0  0  0  0  0  0  0
  -24.8844    2.4702   28.9313 C   0  0  0  0  0  0  0  0  0  0  0  0
  -25.7556    2.2611   29.5643 C   0  0  0  0  0  0  0  0  0  0  0  0
  -25.8170    3.0376   30.9143 C   0  0  0  0  0  0  0  0  0  0  0  0
  -26.6241    2.7451   31.8099 N   0  0  0  0  0  0  0  0  0  0  0  0
  3  4  1  0
  4  8  1  0
  8  9  2  0
  9 10  1  0
  7 11  1  0
 10 11  1  0
 11 12  1  0
 12 13  2  0
  1  2  2  0
  2  5  1  0
  5  6  2  0
  6  7  1  0
  7  3  2  0
  3  1  1  0
M  END

$$$$
