No_965-gen_results/8p0m/2024-11-26-14-13-15/
     RDKit          3D

 15 16  0  0  0  0  0  0  0  0999 V2000
  -28.0162   -0.8135   28.8779 C   0  0  0  0  0  0  0  0  0  0  0  0
  -28.4690   -0.7850   29.8287 C   0  0  0  0  0  0  0  0  0  0  0  0
  -28.1960    0.3478   28.0550 C   0  0  0  0  0  0  0  0  0  0  0  0
  -27.4421    0.5100   26.7946 C   0  0  0  0  0  0  0  0  0  0  0  0
  -27.8427    1.3330   25.8056 C   0  0  0  0  0  0  0  0  0  0  0  0
  -29.4716    0.1210   30.3515 C   0  0  0  0  0  0  0  0  0  0  0  0
  -29.7075    1.1848   29.5963 C   0  0  0  0  0  0  0  0  0  0  0  0
  -29.0356    1.3672   28.4021 C   0  0  0  0  0  0  0  0  0  0  0  0
  -28.8078    2.3943   26.1524 C   0  0  0  0  0  0  0  0  0  0  0  0
  -29.3448    2.3671   27.4295 C   0  0  0  0  0  0  0  0  0  0  0  0
  -26.1635   -0.5990   26.3934 Cl  0  0  0  0  0  0  0  0  0  0  0  0
  -30.6796    2.2382   30.0009 C   0  0  0  0  0  0  0  0  0  0  0  0
  -31.2333    1.9663   31.1282 F   0  0  0  0  0  0  0  0  0  0  0  0
  -29.9503    3.3377   30.1123 F   0  0  0  0  0  0  0  0  0  0  0  0
  -31.5934    2.3652   29.0341 F   0  0  0  0  0  0  0  0  0  0  0  0
  4 11  1  0
  7 12  1  0
 12 13  1  0
 12 14  1  0
 12 15  1  0
  3  4  2  0
  4  5  1  0
  5  9  2  0
  9 10  1  0
 10  8  2  0
  1  2  2  0
  2  6  1  0
  6  7  2  0
  7  8  1  0
  8  3  1  0
  3  1  1  0
M  END

$$$$
