No_993-gen_results/8p0m/2024-11-26-14-13-15/
     RDKit          3D

 15 16  0  0  0  0  0  0  0  0999 V2000
  -28.0162   -0.8135   28.8779 C   0  0  0  0  0  0  0  0  0  0  0  0
  -27.0636   -0.1190   28.6079 C   0  0  0  0  0  0  0  0  0  0  0  0
  -26.9287    1.1713   29.0083 C   0  0  0  0  0  0  0  0  0  0  0  0
  -27.9560    1.7411   29.7840 C   0  0  0  0  0  0  0  0  0  0  0  0
  -29.0569   -0.3271   29.7466 C   0  0  0  0  0  0  0  0  0  0  0  0
  -28.9828    0.9722   30.1516 C   0  0  0  0  0  0  0  0  0  0  0  0
  -25.8815   -0.6260   27.7945 C   0  0  0  0  0  0  0  0  0  0  0  0
  -24.6421   -0.3005   28.1531 N   0  0  0  0  0  0  0  0  0  0  0  0
  -23.9456   -1.1124   28.9868 C   0  0  0  0  0  0  0  0  0  0  0  0
  -22.6225   -0.6261   29.3630 C   0  0  0  0  0  0  0  0  0  0  0  0
  -22.4267    0.6222   28.6323 C   0  0  0  0  0  0  0  0  0  0  0  0
  -23.8562    0.8091   27.8972 C   0  0  0  0  0  0  0  0  0  0  0  0
  -24.0259    1.9091   27.0400 C   0  0  0  0  0  0  0  0  0  0  0  0
  -24.7637    2.9808   27.3752 C   0  0  0  0  0  0  0  0  0  0  0  0
  -24.9152    4.0910   26.4361 C   0  0  0  0  0  0  0  0  0  0  0  0
  2  7  1  0
  7  8  1  0
  8  9  1  0
  9 10  2  0
 10 11  1  0
  8 12  1  0
 11 12  1  0
 12 13  1  0
 13 14  2  3
 14 15  1  0
  1  2  2  0
  2  3  1  0
  3  4  2  0
  4  6  1  0
  6  5  2  0
  5  1  1  0
M  END

$$$$
