No_95-gen_results/8p0m/2024-11-26-14-13-15/
     RDKit          3D

 15 16  0  0  0  0  0  0  0  0999 V2000
  -28.0162   -0.8135   28.8779 C   0  0  0  0  0  0  0  0  0  0  0  0
  -27.0636   -0.1189   28.6079 C   0  0  0  0  0  0  0  0  0  0  0  0
  -27.0010    0.6913   27.4910 C   0  0  0  0  0  0  0  0  0  0  0  0
  -25.8548    1.4825   27.0830 C   0  0  0  0  0  0  0  0  0  0  0  0
  -24.6901    1.4526   27.8807 C   0  0  0  0  0  0  0  0  0  0  0  0
  -24.7379    0.6010   29.0416 C   0  0  0  0  0  0  0  0  0  0  0  0
  -25.8234   -0.1688   29.3887 C   0  0  0  0  0  0  0  0  0  0  0  0
  -29.2075   -0.1514   29.0660 N   0  0  0  0  0  0  0  0  0  0  0  0
  -29.7474    0.5548   28.4314 C   0  0  0  0  0  0  0  0  0  0  0  0
  -30.5112    0.4543   27.7164 C   0  0  0  0  0  0  0  0  0  0  0  0
  -31.1131    1.4012   26.7379 C   0  0  0  0  0  0  0  0  0  0  0  0
  -30.6078    2.7189   26.9114 C   0  0  0  0  0  0  0  0  0  0  0  0
  -29.6330    3.0002   27.7694 C   0  0  0  0  0  0  0  0  0  0  0  0
  -29.1505    2.0010   28.5175 C   0  0  0  0  0  0  0  0  0  0  0  0
  -27.9097   -1.9373   29.4154 O   0  0  0  0  0  0  0  0  0  0  0  0
  1  2  1  0
  1  8  1  0
  1 15  2  0
  8  9  1  0
  2  3  2  0
  3  4  1  0
  4  5  2  0
  5  6  1  0
  6  7  2  0
  7  2  1  0
  9 10  2  0
 10 11  1  0
 11 12  2  0
 12 13  1  0
 13 14  2  0
 14  9  1  0
M  END

$$$$
