No_994-gen_results/8p0m/2024-11-26-14-13-15/
     RDKit          3D

 26 27  0  0  0  0  0  0  0  0999 V2000
  -28.0162   -0.8135   28.8779 C   0  0  0  0  0  0  0  0  0  0  0  0
  -28.4690   -0.7850   29.8287 C   0  0  0  0  0  0  0  0  0  0  0  0
  -28.1960    0.3478   28.0550 C   0  0  0  0  0  0  0  0  0  0  0  0
  -29.0191    1.3501   28.3782 C   0  0  0  0  0  0  0  0  0  0  0  0
  -29.4107    0.1803   30.3782 C   0  0  0  0  0  0  0  0  0  0  0  0
  -29.6059    1.2495   29.6193 C   0  0  0  0  0  0  0  0  0  0  0  0
  -27.3287    0.2486   26.8200 C   0  0  0  0  0  0  0  0  0  0  0  0
  -27.7119    0.5479   25.7451 N   0  0  0  0  0  0  0  0  0  0  0  0
  -26.0489   -0.0351   26.9431 O   0  0  0  0  0  0  0  0  0  0  0  0
  -29.0692    0.8915   25.4162 C   0  0  0  0  0  0  0  0  0  0  0  0
  -27.0118   -0.1343   24.6224 C   0  0  0  0  0  0  0  0  0  0  0  0
  -30.5426    2.3470   30.0126 C   0  0  0  0  0  0  0  0  0  0  0  0
  -30.2938    3.0631   30.8997 O   0  0  0  0  0  0  0  0  0  0  0  0
  -31.7158    2.2558   29.4557 O   0  0  0  0  0  0  0  0  0  0  0  0
  -29.7428    0.2822   24.3587 C   0  0  0  0  0  0  0  0  0  0  0  0
  -30.5480   -0.7479   24.6357 C   0  0  0  0  0  0  0  0  0  0  0  0
  -30.9505   -1.1055   25.9160 C   0  0  0  0  0  0  0  0  0  0  0  0
  -31.9280   -2.0513   26.2045 C   0  0  0  0  0  0  0  0  0  0  0  0
  -32.3771   -2.8019   25.1008 C   0  0  0  0  0  0  0  0  0  0  0  0
  -32.0374   -2.5279   23.8086 C   0  0  0  0  0  0  0  0  0  0  0  0
  -31.1850   -1.4989   23.6044 C   0  0  0  0  0  0  0  0  0  0  0  0
  -32.3888   -2.4799   27.7910 Cl  0  0  0  0  0  0  0  0  0  0  0  0
  -28.4107   -2.0384   30.8708 C   0  0  0  0  0  0  0  0  0  0  0  0
  -28.2313   -2.0286   31.9101 O   0  0  0  0  0  0  0  0  0  0  0  0
  -28.5304   -3.2733   30.1824 O   0  0  0  0  0  0  0  0  0  0  0  0
  -30.2586    1.4125   23.4823 C   0  0  0  0  0  0  0  0  0  0  0  0
  3  7  1  0
  7  8  1  0
  7  9  2  0
  8 10  1  0
  8 11  1  0
  6 12  1  0
 12 13  2  0
 12 14  1  0
 10 15  2  3
 15 16  1  0
 18 22  1  0
  2 23  1  0
 23 24  2  0
 23 25  1  0
 15 26  1  0
  1  2  2  0
  2  5  1  0
  5  6  2  0
  6  4  1  0
  4  3  2  0
  3  1  1  0
 16 17  2  0
 17 18  1  0
 18 19  2  0
 19 20  1  0
 20 21  2  0
 21 16  1  0
M  END

$$$$
