No_984-gen_results/8p0m/2024-11-26-14-13-15/
     RDKit          3D

 29 31  0  0  0  0  0  0  0  0999 V2000
  -28.0162   -0.8135   28.8779 C   0  0  0  0  0  0  0  0  0  0  0  0
  -27.0636   -0.1189   28.6079 C   0  0  0  0  0  0  0  0  0  0  0  0
  -27.0010    0.6913   27.4910 C   0  0  0  0  0  0  0  0  0  0  0  0
  -28.1373    0.7363   26.6350 C   0  0  0  0  0  0  0  0  0  0  0  0
  -29.2360    0.0765   27.0690 C   0  0  0  0  0  0  0  0  0  0  0  0
  -29.2177   -0.6429   28.1747 C   0  0  0  0  0  0  0  0  0  0  0  0
  -30.4585    0.0647   26.4120 N   0  0  0  0  0  0  0  0  0  0  0  0
  -30.5457   -0.1345   25.1409 C   0  0  0  0  0  0  0  0  0  0  0  0
  -31.6851    0.2692   27.1044 C   0  0  0  0  0  0  0  0  0  0  0  0
  -25.6859   -0.2198   29.3882 C   0  0  0  0  0  0  0  0  0  0  0  0
  -25.2090    1.0267   30.0240 C   0  0  0  0  0  0  0  0  0  0  0  0
  -25.4175    1.2004   31.1267 C   0  0  0  0  0  0  0  0  0  0  0  0
  -24.9833    2.5030   31.8381 C   0  0  0  0  0  0  0  0  0  0  0  0
  -24.3746    1.8997   29.1689 C   0  0  0  0  0  0  0  0  0  0  0  0
  -23.9599    1.5744   27.9696 N   0  0  0  0  0  0  0  0  0  0  0  0
  -25.4712    2.9526   33.0255 C   0  0  0  0  0  0  0  0  0  0  0  0
  -26.3104    2.0782   33.7210 C   0  0  0  0  0  0  0  0  0  0  0  0
  -26.6718    0.8458   33.2064 C   0  0  0  0  0  0  0  0  0  0  0  0
  -26.3076    0.4702   31.9568 C   0  0  0  0  0  0  0  0  0  0  0  0
  -22.6523    1.1521   27.9564 C   0  0  0  0  0  0  0  0  0  0  0  0
  -21.8554    1.7928   26.8801 C   0  0  0  0  0  0  0  0  0  0  0  0
  -22.2757    0.0058   28.4497 O   0  0  0  0  0  0  0  0  0  0  0  0
  -32.7018   -0.0521   26.5608 C   0  0  0  0  0  0  0  0  0  0  0  0
  -31.7160   -0.5291   24.4483 C   0  0  0  0  0  0  0  0  0  0  0  0
  -32.8752   -0.3714   25.1908 C   0  0  0  0  0  0  0  0  0  0  0  0
  -28.1256    1.6149   25.4643 C   0  0  0  0  0  0  0  0  0  0  0  0
  -27.3135    1.1904   24.5916 F   0  0  0  0  0  0  0  0  0  0  0  0
  -27.5057    3.1493   25.9271 Cl  0  0  0  0  0  0  0  0  0  0  0  0
  -29.2401    2.0804   24.9406 F   0  0  0  0  0  0  0  0  0  0  0  0
  5  7  1  0
  7  8  1  0
  7  9  1  0
  2 10  1  0
 10 11  1  0
 11 14  1  0
 14 15  1  0
 15 20  1  0
 20 21  1  0
 20 22  2  0
 23 25  1  0
 24 25  1  0
  4 26  1  0
 26 27  1  0
 26 28  1  0
 26 29  1  0
 11 12  1  0
  8 24  1  0
 23  9  1  0
  1  2  2  0
  2  3  1  0
  3  4  2  0
  4  5  1  0
  5  6  2  0
  6  1  1  0
 12 13  2  0
 13 16  1  0
 16 17  2  0
 17 18  1  0
 18 19  2  0
 19 12  1  0
M  END

$$$$
