No_948-gen_results/8p0m/2024-11-26-14-13-15/
     RDKit          3D

 15 16  0  0  0  0  0  0  0  0999 V2000
  -28.0162   -0.8135   28.8779 C   0  0  0  0  0  0  0  0  0  0  0  0
  -27.0636   -0.1189   28.6079 C   0  0  0  0  0  0  0  0  0  0  0  0
  -26.8756    1.1325   28.9134 C   0  0  0  0  0  0  0  0  0  0  0  0
  -25.6883    1.9515   28.5672 C   0  0  0  0  0  0  0  0  0  0  0  0
  -24.6394    1.2834   27.8753 C   0  0  0  0  0  0  0  0  0  0  0  0
  -24.8068   -0.0513   27.6040 C   0  0  0  0  0  0  0  0  0  0  0  0
  -25.9020   -0.7670   27.9511 C   0  0  0  0  0  0  0  0  0  0  0  0
  -28.7202   -0.6024   30.0461 N   0  0  0  0  0  0  0  0  0  0  0  0
  -23.6178    2.1689   27.4249 C   0  0  0  0  0  0  0  0  0  0  0  0
  -23.6625    2.8097   26.3142 C   0  0  0  0  0  0  0  0  0  0  0  0
  -22.2638    1.9154   28.0012 C   0  0  0  0  0  0  0  0  0  0  0  0
  -28.4505    0.0893   30.8118 C   0  0  0  0  0  0  0  0  0  0  0  0
  -27.5888    1.2772   30.5182 C   0  0  0  0  0  0  0  0  0  0  0  0
  -22.1637    1.4806   29.1660 F   0  0  0  0  0  0  0  0  0  0  0  0
  -21.6216    1.0224   27.1495 F   0  0  0  0  0  0  0  0  0  0  0  0
  3  4  1  0
  4  5  1  0
  5  6  1  0
  2  7  1  0
  6  7  1  0
  5  9  1  0
  9 10  2  0
  9 11  1  0
 11 14  1  0
 11 15  1  0
  1  2  2  0
  2  3  1  0
  3 13  2  0
 13 12  1  0
 12  8  2  0
  8  1  1  0
M  END

$$$$
