No_985-gen_results/8p0m/2024-11-26-14-13-15/
     RDKit          3D

 21 22  0  0  0  0  0  0  0  0999 V2000
  -28.0162   -0.8135   28.8779 C   0  0  0  0  0  0  0  0  0  0  0  0
  -27.0636   -0.1189   28.6079 C   0  0  0  0  0  0  0  0  0  0  0  0
  -27.0010    0.6913   27.4910 C   0  0  0  0  0  0  0  0  0  0  0  0
  -28.1373    0.7363   26.6350 C   0  0  0  0  0  0  0  0  0  0  0  0
  -29.2360    0.0765   27.0690 C   0  0  0  0  0  0  0  0  0  0  0  0
  -29.2177   -0.6429   28.1747 C   0  0  0  0  0  0  0  0  0  0  0  0
  -28.0466   -1.5481   30.0087 F   0  0  0  0  0  0  0  0  0  0  0  0
  -30.4219    0.1562   26.1804 C   0  0  0  0  0  0  0  0  0  0  0  0
  -31.3040   -0.4731   26.3606 O   0  0  0  0  0  0  0  0  0  0  0  0
  -30.3796    0.9304   25.0782 O   0  0  0  0  0  0  0  0  0  0  0  0
  -25.7040    1.4049   27.0944 C   0  0  0  0  0  0  0  0  0  0  0  0
  -25.2020    2.3395   28.1029 C   0  0  0  0  0  0  0  0  0  0  0  0
  -23.9704    2.9219   27.7955 C   0  0  0  0  0  0  0  0  0  0  0  0
  -23.2482    2.5268   26.6151 C   0  0  0  0  0  0  0  0  0  0  0  0
  -24.9606    1.0908   26.0057 C   0  0  0  0  0  0  0  0  0  0  0  0
  -23.7938    1.6615   25.7392 C   0  0  0  0  0  0  0  0  0  0  0  0
  -25.8568    2.7865   29.3103 C   0  0  0  0  0  0  0  0  0  0  0  0
  -26.4631    3.8726   29.4290 N   0  0  0  0  0  0  0  0  0  0  0  0
  -27.3481    4.1940   30.3312 C   0  0  0  0  0  0  0  0  0  0  0  0
  -26.1551    4.9107   28.4868 C   0  0  0  0  0  0  0  0  0  0  0  0
  -28.4659    4.7230   30.0019 C   0  0  0  0  0  0  0  0  0  0  0  0
  1  7  1  0
  5  8  1  0
  8  9  2  0
  8 10  1  0
  3 11  1  0
 12 17  1  0
 17 18  1  0
 18 19  1  0
 18 20  1  0
 19 21  2  0
  1  2  2  0
  2  3  1  0
  3  4  2  0
  4  5  1  0
  5  6  2  0
  6  1  1  0
 11 12  2  0
 12 13  1  0
 13 14  2  0
 14 16  1  0
 16 15  2  0
 15 11  1  0
M  END

$$$$
