No_938-gen_results/8p0m/2024-11-26-14-13-15/
     RDKit          3D

 19 21  0  0  0  0  0  0  0  0999 V2000
  -28.0162   -0.8135   28.8779 C   0  0  0  0  0  0  0  0  0  0  0  0
  -28.4690   -0.7850   29.8287 C   0  0  0  0  0  0  0  0  0  0  0  0
  -27.0871    0.2903   28.6377 C   0  0  0  0  0  0  0  0  0  0  0  0
  -26.8317    1.2487   29.5869 C   0  0  0  0  0  0  0  0  0  0  0  0
  -28.3914    0.0801   31.0065 C   0  0  0  0  0  0  0  0  0  0  0  0
  -27.4940    1.1521   30.7841 C   0  0  0  0  0  0  0  0  0  0  0  0
  -26.3109    0.3918   27.3640 C   0  0  0  0  0  0  0  0  0  0  0  0
  -24.9686    0.2477   27.4806 C   0  0  0  0  0  0  0  0  0  0  0  0
  -26.9237    0.5760   26.1378 C   0  0  0  0  0  0  0  0  0  0  0  0
  -28.2756    0.6826   25.9801 C   0  0  0  0  0  0  0  0  0  0  0  0
  -28.7840    0.7118   24.6873 C   0  0  0  0  0  0  0  0  0  0  0  0
  -30.1765    0.8329   24.4848 C   0  0  0  0  0  0  0  0  0  0  0  0
  -30.9981    0.8550   25.5515 C   0  0  0  0  0  0  0  0  0  0  0  0
  -30.5177    0.8330   26.8554 C   0  0  0  0  0  0  0  0  0  0  0  0
  -29.2028    0.7841   27.0710 C   0  0  0  0  0  0  0  0  0  0  0  0
  -26.0630    1.3808   25.3370 C   0  0  0  0  0  0  0  0  0  0  0  0
  -24.3455   -0.4651   28.5468 C   0  0  0  0  0  0  0  0  0  0  0  0
  -24.0932    0.6700   26.4251 C   0  0  0  0  0  0  0  0  0  0  0  0
  -24.7071    1.1882   25.3043 C   0  0  0  0  0  0  0  0  0  0  0  0
  3  7  1  0
  9 10  1  0
  8 17  1  0
  7  8  2  0
  8 18  1  0
 18 19  2  0
 19 16  1  0
 16  9  2  0
  9  7  1  0
  1  2  2  0
  2  5  1  0
  5  6  2  0
  6  4  1  0
  4  3  2  0
  3  1  1  0
 10 11  2  0
 11 12  1  0
 12 13  2  0
 13 14  1  0
 14 15  2  0
 15 10  1  0
M  END

$$$$
