No_989-gen_results/8p0m/2024-11-26-14-13-15/
     RDKit          3D

 21 23  0  0  0  0  0  0  0  0999 V2000
  -28.1229   -1.3353   28.4874 O   0  0  0  0  0  0  0  0  0  0  0  0
  -27.4806   -0.4044   28.7094 C   0  0  0  0  0  0  0  0  0  0  0  0
  -26.3804   -0.0867   27.9394 C   0  0  0  0  0  0  0  0  0  0  0  0
  -27.4232    0.1749   30.0549 N   0  0  0  0  0  0  0  0  0  0  0  0
  -25.4065    0.7421   28.2860 C   0  0  0  0  0  0  0  0  0  0  0  0
  -24.3010    1.1589   27.4854 C   0  0  0  0  0  0  0  0  0  0  0  0
  -23.2507    1.9038   28.0519 C   0  0  0  0  0  0  0  0  0  0  0  0
  -23.2204    1.9881   29.4562 C   0  0  0  0  0  0  0  0  0  0  0  0
  -24.2137    1.4699   30.2937 C   0  0  0  0  0  0  0  0  0  0  0  0
  -25.2194    0.7935   29.7100 C   0  0  0  0  0  0  0  0  0  0  0  0
  -26.3617    0.5332   30.5880 C   0  0  0  0  0  0  0  0  0  0  0  0
  -28.6989   -0.0264   30.7649 C   0  0  0  0  0  0  0  0  0  0  0  0
  -22.2618    2.3766   27.3399 F   0  0  0  0  0  0  0  0  0  0  0  0
  -29.6992    0.4584   30.7201 C   0  0  0  0  0  0  0  0  0  0  0  0
  -29.7951    1.6466   29.7854 C   0  0  0  0  0  0  0  0  0  0  0  0
  -28.9701    2.6070   29.9624 C   0  0  0  0  0  0  0  0  0  0  0  0
  -29.0397    3.3702   31.2272 C   0  0  0  0  0  0  0  0  0  0  0  0
  -28.0211    4.2442   31.5135 C   0  0  0  0  0  0  0  0  0  0  0  0
  -28.0568    3.1962   29.0248 C   0  0  0  0  0  0  0  0  0  0  0  0
  -27.1456    4.2652   29.2725 C   0  0  0  0  0  0  0  0  0  0  0  0
  -27.1679    4.8248   30.5641 C   0  0  0  0  0  0  0  0  0  0  0  0
  1  2  2  0
  2  3  1  0
  2  4  1  0
  3  5  1  0
  4 11  1  0
 10 11  1  0
  4 12  1  0
  7 13  1  0
 12 14  2  3
 14 15  1  0
 15 16  1  0
 16 17  2  0
 17 18  1  0
 18 21  2  0
 21 20  1  0
 20 19  2  0
 19 16  1  0
  5  6  2  0
  6  7  1  0
  7  8  2  0
  8  9  1  0
  9 10  2  0
 10  5  1  0
M  END

$$$$
