No_947-gen_results/8p0m/2024-11-26-14-13-15/
     RDKit          3D

 24 25  0  0  0  0  0  0  0  0999 V2000
  -28.0162   -0.8135   28.8779 C   0  0  0  0  0  0  0  0  0  0  0  0
  -28.4690   -0.7850   29.8287 C   0  0  0  0  0  0  0  0  0  0  0  0
  -28.1816    0.4277   28.1134 C   0  0  0  0  0  0  0  0  0  0  0  0
  -27.4498    0.6435   26.8500 C   0  0  0  0  0  0  0  0  0  0  0  0
  -27.8596    1.4573   25.9076 C   0  0  0  0  0  0  0  0  0  0  0  0
  -28.3080   -1.9885   30.8635 C   0  0  0  0  0  0  0  0  0  0  0  0
  -27.5277   -3.0190   30.3596 C   0  0  0  0  0  0  0  0  0  0  0  0
  -26.7389   -2.8481   29.2719 C   0  0  0  0  0  0  0  0  0  0  0  0
  -26.9091   -1.6576   28.5337 C   0  0  0  0  0  0  0  0  0  0  0  0
  -28.9559    2.3522   26.0931 C   0  0  0  0  0  0  0  0  0  0  0  0
  -29.6155    2.2334   27.3096 C   0  0  0  0  0  0  0  0  0  0  0  0
  -29.2776    1.2382   28.2547 C   0  0  0  0  0  0  0  0  0  0  0  0
  -25.6894   -3.8220   28.9940 C   0  0  0  0  0  0  0  0  0  0  0  0
  -24.3690   -3.3924   28.8018 N   0  0  0  0  0  0  0  0  0  0  0  0
  -25.8454   -5.0237   29.1792 O   0  0  0  0  0  0  0  0  0  0  0  0
  -23.9013   -2.0640   28.8057 C   0  0  0  0  0  0  0  0  0  0  0  0
  -22.7148   -1.7760   29.5427 C   0  0  0  0  0  0  0  0  0  0  0  0
  -22.2071   -0.4390   29.2871 C   0  0  0  0  0  0  0  0  0  0  0  0
  -22.7984    0.4901   28.4440 C   0  0  0  0  0  0  0  0  0  0  0  0
  -24.3754   -1.2237   28.0233 F   0  0  0  0  0  0  0  0  0  0  0  0
  -22.2360    1.8498   28.2391 C   0  0  0  0  0  0  0  0  0  0  0  0
  -23.0566    2.6170   27.4379 C   0  0  0  0  0  0  0  0  0  0  0  0
  -24.3419    2.0567   26.9421 C   0  0  0  0  0  0  0  0  0  0  0  0
  -24.6733    0.7861   27.1901 C   0  0  0  0  0  0  0  0  0  0  0  0
  8 13  1  0
 13 14  1  0
 13 15  2  0
 14 16  1  0
 16 17  2  3
 17 18  1  0
 18 19  2  3
 16 20  1  0
 19 21  1  0
 21 22  2  3
 22 23  1  0
 23 24  2  0
  3  1  1  0
  3  4  2  0
  4  5  1  0
  5 10  2  0
 10 11  1  0
 11 12  2  0
 12  3  1  0
  1  2  2  0
  2  6  1  0
  6  7  2  0
  7  8  1  0
  8  9  2  0
  9  1  1  0
M  END

$$$$
