No_91-gen_results/8p0m/2024-11-26-14-13-15/
     RDKit          3D

 26 29  0  0  0  0  0  0  0  0999 V2000
  -28.0162   -0.8135   28.8779 C   0  0  0  0  0  0  0  0  0  0  0  0
  -28.4690   -0.7850   29.8287 C   0  0  0  0  0  0  0  0  0  0  0  0
  -28.1960    0.3478   28.0550 C   0  0  0  0  0  0  0  0  0  0  0  0
  -29.0191    1.3501   28.3782 C   0  0  0  0  0  0  0  0  0  0  0  0
  -29.6249    1.2683   29.6012 C   0  0  0  0  0  0  0  0  0  0  0  0
  -29.3821    0.1816   30.4004 C   0  0  0  0  0  0  0  0  0  0  0  0
  -27.4591    0.3787   26.7048 C   0  0  0  0  0  0  0  0  0  0  0  0
  -26.1349    0.3565   26.8183 C   0  0  0  0  0  0  0  0  0  0  0  0
  -25.3867    0.0256   27.9208 C   0  0  0  0  0  0  0  0  0  0  0  0
  -23.9775    0.0236   27.9125 C   0  0  0  0  0  0  0  0  0  0  0  0
  -23.2127   -0.3711   29.0874 C   0  0  0  0  0  0  0  0  0  0  0  0
  -21.8409   -0.0878   29.1559 C   0  0  0  0  0  0  0  0  0  0  0  0
  -21.2546    0.7653   28.1996 C   0  0  0  0  0  0  0  0  0  0  0  0
  -22.0890    1.4072   27.2475 C   0  0  0  0  0  0  0  0  0  0  0  0
  -23.4181    1.0760   27.1777 C   0  0  0  0  0  0  0  0  0  0  0  0
  -24.2089    1.7284   26.1767 C   0  0  0  0  0  0  0  0  0  0  0  0
  -25.5371    1.8197   26.2761 C   0  0  0  0  0  0  0  0  0  0  0  0
  -29.2919    2.4588   27.5182 C   0  0  0  0  0  0  0  0  0  0  0  0
  -28.6145    3.6189   27.7037 C   0  0  0  0  0  0  0  0  0  0  0  0
  -30.1688    2.2720   26.4353 C   0  0  0  0  0  0  0  0  0  0  0  0
  -27.7097    3.8801   28.6525 C   0  0  0  0  0  0  0  0  0  0  0  0
  -27.5106    3.2039   29.8102 C   0  0  0  0  0  0  0  0  0  0  0  0
  -26.4111    3.5989   30.7020 C   0  0  0  0  0  0  0  0  0  0  0  0
  -25.6190    4.5576   30.2581 C   0  0  0  0  0  0  0  0  0  0  0  0
  -25.6750    5.2490   29.0717 C   0  0  0  0  0  0  0  0  0  0  0  0
  -26.7361    4.8961   28.2693 C   0  0  0  0  0  0  0  0  0  0  0  0
  3  7  1  0
  7  8  1  0
  4 18  1  0
 18 19  1  0
 18 20  1  0
 19 21  1  0
  8  9  2  0
  9 10  1  0
 15 16  1  0
 16 17  2  0
 17  8  1  0
  1  2  2  0
  2  6  1  0
  6  5  2  0
  5  4  1  0
  4  3  2  0
  3  1  1  0
 10 11  2  0
 11 12  1  0
 12 13  2  0
 13 14  1  0
 14 15  2  0
 15 10  1  0
 21 22  2  0
 22 23  1  0
 23 24  2  0
 24 25  1  0
 25 26  2  0
 26 21  1  0
M  END

$$$$
