No_971-gen_results/8p0m/2024-11-26-14-13-15/
     RDKit          3D

 35 37  0  0  0  0  0  0  0  0999 V2000
  -28.0162   -0.8135   28.8779 C   0  0  0  0  0  0  0  0  0  0  0  0
  -28.4690   -0.7850   29.8287 C   0  0  0  0  0  0  0  0  0  0  0  0
  -27.1356    0.2359   28.5352 C   0  0  0  0  0  0  0  0  0  0  0  0
  -26.8745    1.2825   29.3982 C   0  0  0  0  0  0  0  0  0  0  0  0
  -28.3613    0.1987   30.9244 C   0  0  0  0  0  0  0  0  0  0  0  0
  -27.5277    1.2234   30.6356 C   0  0  0  0  0  0  0  0  0  0  0  0
  -26.4181    0.0763   27.2578 C   0  0  0  0  0  0  0  0  0  0  0  0
  -25.0141    0.0394   27.3317 C   0  0  0  0  0  0  0  0  0  0  0  0
  -27.0064    0.2951   26.0062 C   0  0  0  0  0  0  0  0  0  0  0  0
  -26.2879    0.1993   24.8537 C   0  0  0  0  0  0  0  0  0  0  0  0
  -24.3404   -0.1643   28.6024 C   0  0  0  0  0  0  0  0  0  0  0  0
  -28.3708    0.5626   25.8798 C   0  0  0  0  0  0  0  0  0  0  0  0
  -24.2312   -1.2425   29.1521 C   0  0  0  0  0  0  0  0  0  0  0  0
  -23.4919   -1.3860   30.4064 C   0  0  0  0  0  0  0  0  0  0  0  0
  -22.9498   -0.2491   30.9815 C   0  0  0  0  0  0  0  0  0  0  0  0
  -23.7100    0.9947   29.2676 C   0  0  0  0  0  0  0  0  0  0  0  0
  -23.7627    2.2823   28.6570 N   0  0  0  0  0  0  0  0  0  0  0  0
  -23.0329    0.9274   30.4594 C   0  0  0  0  0  0  0  0  0  0  0  0
  -29.1270    1.2941   26.7207 C   0  0  0  0  0  0  0  0  0  0  0  0
  -28.6870    2.6810   26.8664 C   0  0  0  0  0  0  0  0  0  0  0  0
  -30.3180    0.9042   27.3781 C   0  0  0  0  0  0  0  0  0  0  0  0
  -30.9840    1.7821   28.2292 C   0  0  0  0  0  0  0  0  0  0  0  0
  -30.6134    3.1189   28.2719 C   0  0  0  0  0  0  0  0  0  0  0  0
  -29.3750    3.5798   27.7551 C   0  0  0  0  0  0  0  0  0  0  0  0
  -29.0926   -0.0776   24.8108 C   0  0  0  0  0  0  0  0  0  0  0  0
  -27.3285    2.3783   31.6040 C   0  0  0  0  0  0  0  0  0  0  0  0
  -27.9043    2.7094   32.3616 O   0  0  0  0  0  0  0  0  0  0  0  0
  -26.0175    2.8240   31.4432 O   0  0  0  0  0  0  0  0  0  0  0  0
  -30.0899    0.6090   24.2610 C   0  0  0  0  0  0  0  0  0  0  0  0
  -32.2167    1.3239   28.8973 C   0  0  0  0  0  0  0  0  0  0  0  0
  -33.3067    1.3259   28.4365 N   0  0  0  0  0  0  0  0  0  0  0  0
  -32.0264    0.8741   30.1464 O   0  0  0  0  0  0  0  0  0  0  0  0
  -34.3851    0.7626   28.8070 C   0  0  0  0  0  0  0  0  0  0  0  0
  -29.5333   -1.9259   30.3425 C   0  0  0  0  0  0  0  0  0  0  0  0
  -30.5527   -1.6732   30.6558 O   0  0  0  0  0  0  0  0  0  0  0  0
  3  7  1  0
  7  8  1  0
  7  9  1  0
  9 10  1  0
  8 11  1  0
  9 12  1  0
 16 17  1  0
 12 19  1  0
 12 25  1  0
  6 26  1  0
 26 27  2  0
 26 28  1  0
 25 29  2  0
 22 30  1  0
 30 31  1  0
 30 32  2  0
 31 33  1  0
  2 34  1  0
 34 35  2  0
 11 13  2  0
 13 14  1  0
 14 15  2  0
 15 18  1  0
 18 16  2  0
 16 11  1  0
 19 20  2  0
 20 24  1  0
 24 23  2  0
 23 22  1  0
 22 21  2  0
 21 19  1  0
  1  2  2  0
  2  5  1  0
  5  6  2  0
  6  4  1  0
  4  3  2  0
  3  1  1  0
M  END

$$$$
