No_991-gen_results/8p0m/2024-11-26-14-13-15/
     RDKit          3D

 32 35  0  0  0  0  0  0  0  0999 V2000
  -28.1229   -1.3353   28.4874 O   0  0  0  0  0  0  0  0  0  0  0  0
  -27.0637   -0.8242   28.8687 C   0  0  0  0  0  0  0  0  0  0  0  0
  -25.9773   -1.1378   28.8137 N   0  0  0  0  0  0  0  0  0  0  0  0
  -24.7669   -0.3464   29.1634 C   0  0  0  0  0  0  0  0  0  0  0  0
  -27.1956    0.6551   29.5913 C   0  0  0  0  0  0  0  0  0  0  0  0
  -24.9526    0.8453   29.7586 C   0  0  0  0  0  0  0  0  0  0  0  0
  -26.1881    1.3390   29.9057 C   0  0  0  0  0  0  0  0  0  0  0  0
  -23.4124   -0.9077   29.0012 C   0  0  0  0  0  0  0  0  0  0  0  0
  -23.0582   -2.1107   29.0443 C   0  0  0  0  0  0  0  0  0  0  0  0
  -22.3752    0.1232   28.6498 C   0  0  0  0  0  0  0  0  0  0  0  0
  -22.6178    1.4453   28.3450 C   0  0  0  0  0  0  0  0  0  0  0  0
  -23.7884    2.0144   28.8600 N   0  0  0  0  0  0  0  0  0  0  0  0
  -23.9741   -3.0125   29.4103 N   0  0  0  0  0  0  0  0  0  0  0  0
  -24.3389   -4.1215   28.6345 C   0  0  0  0  0  0  0  0  0  0  0  0
  -25.3480   -4.9688   29.3696 C   0  0  0  0  0  0  0  0  0  0  0  0
  -25.4870   -6.0821   29.2540 O   0  0  0  0  0  0  0  0  0  0  0  0
  -26.2641   -4.2638   30.0441 O   0  0  0  0  0  0  0  0  0  0  0  0
  -28.6826    1.0130   29.7040 C   0  0  0  0  0  0  0  0  0  0  0  0
  -29.3197    0.8181   30.6182 N   0  0  0  0  0  0  0  0  0  0  0  0
  -28.8836    0.8853   31.8139 C   0  0  0  0  0  0  0  0  0  0  0  0
  -30.7029    0.3341   30.4723 C   0  0  0  0  0  0  0  0  0  0  0  0
  -29.0885    1.6762   28.6107 O   0  0  0  0  0  0  0  0  0  0  0  0
  -28.9560    1.8784   32.5532 C   0  0  0  0  0  0  0  0  0  0  0  0
  -28.3524    2.0046   33.8581 C   0  0  0  0  0  0  0  0  0  0  0  0
  -27.6996    0.8984   34.4393 C   0  0  0  0  0  0  0  0  0  0  0  0
  -28.0784   -0.2921   32.4531 C   0  0  0  0  0  0  0  0  0  0  0  0
  -27.5576   -0.2284   33.7067 C   0  0  0  0  0  0  0  0  0  0  0  0
  -30.8962   -0.8610   30.1512 C   0  0  0  0  0  0  0  0  0  0  0  0
  -31.8603   -1.3949   30.3551 C   0  0  0  0  0  0  0  0  0  0  0  0
  -33.0567   -0.7265   30.6987 C   0  0  0  0  0  0  0  0  0  0  0  0
  -32.9181    0.6080   31.0346 C   0  0  0  0  0  0  0  0  0  0  0  0
  -31.6730    1.1741   31.0492 C   0  0  0  0  0  0  0  0  0  0  0  0
  1  2  2  0
  2  3  1  0
  3  4  1  0
  2  5  1  0
  5  7  1  0
  6  7  1  0
  4  8  1  0
  8 10  1  0
 10 11  1  0
  6 12  1  0
 11 12  1  0
  9 13  1  0
 13 14  1  0
 14 15  1  0
 15 16  1  0
 15 17  2  0
  5 18  1  0
 18 19  1  0
 19 20  1  0
 19 21  1  0
 18 22  2  0
  9  8  1  0
  4  6  1  0
 20 23  2  0
 23 24  1  0
 24 25  2  0
 25 27  1  0
 27 26  2  0
 26 20  1  0
 21 28  2  0
 28 29  1  0
 29 30  2  0
 30 31  1  0
 31 32  2  0
 32 21  1  0
M  END

$$$$
