No_943-gen_results/8p0m/2024-11-26-14-13-15/
     RDKit          3D

 21 22  0  0  0  0  0  0  0  0999 V2000
  -28.0162   -0.8135   28.8779 C   0  0  0  0  0  0  0  0  0  0  0  0
  -27.0636   -0.1189   28.6079 C   0  0  0  0  0  0  0  0  0  0  0  0
  -26.9716    0.7139   27.5060 C   0  0  0  0  0  0  0  0  0  0  0  0
  -25.8205    1.4909   27.1160 C   0  0  0  0  0  0  0  0  0  0  0  0
  -24.6562    1.4242   27.9180 C   0  0  0  0  0  0  0  0  0  0  0  0
  -24.6847    0.5901   29.0659 C   0  0  0  0  0  0  0  0  0  0  0  0
  -25.8099   -0.1266   29.3338 C   0  0  0  0  0  0  0  0  0  0  0  0
  -28.7497   -0.6995   30.0375 Cl  0  0  0  0  0  0  0  0  0  0  0  0
  -23.4625    2.1949   27.6092 C   0  0  0  0  0  0  0  0  0  0  0  0
  -22.4203    2.4615   28.7918 Cl  0  0  0  0  0  0  0  0  0  0  0  0
  -23.1912    2.6152   26.4672 F   0  0  0  0  0  0  0  0  0  0  0  0
  -28.0651    0.7907   26.5464 C   0  0  0  0  0  0  0  0  0  0  0  0
  -29.3144    1.2180   27.0165 C   0  0  0  0  0  0  0  0  0  0  0  0
  -30.3826    1.2766   26.1441 C   0  0  0  0  0  0  0  0  0  0  0  0
  -27.9213    0.4663   25.2181 C   0  0  0  0  0  0  0  0  0  0  0  0
  -28.9537    0.4933   24.3293 C   0  0  0  0  0  0  0  0  0  0  0  0
  -30.1861    0.9831   24.7643 C   0  0  0  0  0  0  0  0  0  0  0  0
  -31.3079    1.0580   23.8427 C   0  0  0  0  0  0  0  0  0  0  0  0
  -32.3745    1.1605   24.5398 F   0  0  0  0  0  0  0  0  0  0  0  0
  -31.1512    2.2355   23.0859 F   0  0  0  0  0  0  0  0  0  0  0  0
  -31.3196    0.0897   22.9700 F   0  0  0  0  0  0  0  0  0  0  0  0
  1  8  1  0
  5  9  1  0
  9 10  1  0
  9 11  1  0
  3 12  1  0
 17 18  1  0
 18 19  1  0
 18 20  1  0
 18 21  1  0
  1  2  1  0
 12 13  2  0
 13 14  1  0
 14 17  2  0
 17 16  1  0
 16 15  2  0
 15 12  1  0
  2  3  2  0
  3  4  1  0
  4  5  2  0
  5  6  1  0
  6  7  2  0
  7  2  1  0
M  END

$$$$
