No_928-gen_results/8p0m/2024-11-26-14-13-15/
     RDKit          3D

 28 30  0  0  0  0  0  0  0  0999 V2000
  -28.0162   -0.8135   28.8779 C   0  0  0  0  0  0  0  0  0  0  0  0
  -27.0636   -0.1190   28.6079 C   0  0  0  0  0  0  0  0  0  0  0  0
  -25.7923   -0.4302   29.0761 C   0  0  0  0  0  0  0  0  0  0  0  0
  -25.5756   -1.5654   29.9363 C   0  0  0  0  0  0  0  0  0  0  0  0
  -26.7354   -2.3004   30.2173 C   0  0  0  0  0  0  0  0  0  0  0  0
  -27.9184   -1.9537   29.7629 C   0  0  0  0  0  0  0  0  0  0  0  0
  -29.0001   -2.7012   30.1151 O   0  0  0  0  0  0  0  0  0  0  0  0
  -24.5290    0.3490   28.7998 C   0  0  0  0  0  0  0  0  0  0  0  0
  -23.3442    0.0060   29.1658 C   0  0  0  0  0  0  0  0  0  0  0  0
  -22.1783    0.7811   28.7783 C   0  0  0  0  0  0  0  0  0  0  0  0
  -22.3217    1.7499   27.7727 C   0  0  0  0  0  0  0  0  0  0  0  0
  -24.6102    1.3558   27.7479 C   0  0  0  0  0  0  0  0  0  0  0  0
  -23.5148    2.0341   27.3068 C   0  0  0  0  0  0  0  0  0  0  0  0
  -30.1256   -2.1340   30.5841 C   0  0  0  0  0  0  0  0  0  0  0  0
  -31.1953   -2.7166   30.1353 C   0  0  0  0  0  0  0  0  0  0  0  0
  -31.1822   -3.9861   29.6791 C   0  0  0  0  0  0  0  0  0  0  0  0
  -29.9837   -4.3464   29.5057 F   0  0  0  0  0  0  0  0  0  0  0  0
  -32.0819   -4.5171   28.9032 F   0  0  0  0  0  0  0  0  0  0  0  0
  -32.0613   -1.8783   29.2064 N   0  0  0  0  0  0  0  0  0  0  0  0
  -32.0865   -1.9077   27.9769 C   0  0  0  0  0  0  0  0  0  0  0  0
  -32.7198   -0.8065   27.2448 C   0  0  0  0  0  0  0  0  0  0  0  0
  -32.3982   -0.5407   26.0210 C   0  0  0  0  0  0  0  0  0  0  0  0
  -31.6167   -1.4477   25.2452 C   0  0  0  0  0  0  0  0  0  0  0  0
  -31.2686   -2.6588   25.8078 C   0  0  0  0  0  0  0  0  0  0  0  0
  -31.3693   -2.7332   27.1755 N   0  0  0  0  0  0  0  0  0  0  0  0
  -33.0035   -0.8775   29.9138 C   0  0  0  0  0  0  0  0  0  0  0  0
  -34.2799   -1.2267   30.1428 C   0  0  0  0  0  0  0  0  0  0  0  0
  -35.1121   -0.3100   30.6673 C   0  0  0  0  0  0  0  0  0  0  0  0
  6  7  1  0
  3  8  1  0
  7 14  1  0
 14 15  2  3
 15 16  1  0
 16 17  1  0
 16 18  1  0
 15 19  1  0
 19 20  1  0
 19 26  1  0
 26 27  2  3
 27 28  1  0
  1  2  2  0
  2  3  1  0
  3  4  2  0
  4  5  1  0
  5  6  2  0
  6  1  1  0
 20 21  2  0
 21 22  1  0
 22 23  2  0
 23 24  1  0
 24 25  2  0
 25 20  1  0
  8  9  2  0
  9 10  1  0
 10 11  2  0
 11 13  1  0
 13 12  2  0
 12  8  1  0
M  END

$$$$
