No_972-gen_results/8p0m/2024-11-26-14-13-15/
     RDKit          3D

 35 39  0  0  0  0  0  0  0  0999 V2000
  -28.0162   -0.8135   28.8779 C   0  0  0  0  0  0  0  0  0  0  0  0
  -28.4690   -0.7850   29.8287 C   0  0  0  0  0  0  0  0  0  0  0  0
  -27.0871    0.2903   28.6377 C   0  0  0  0  0  0  0  0  0  0  0  0
  -26.2516    0.4114   27.4223 C   0  0  0  0  0  0  0  0  0  0  0  0
  -28.3913    0.1041   30.9805 C   0  0  0  0  0  0  0  0  0  0  0  0
  -27.5332    1.1666   30.7866 C   0  0  0  0  0  0  0  0  0  0  0  0
  -26.8281    1.2557   29.6454 C   0  0  0  0  0  0  0  0  0  0  0  0
  -25.6445    1.6653   27.2215 C   0  0  0  0  0  0  0  0  0  0  0  0
  -25.3909    2.5603   28.2290 C   0  0  0  0  0  0  0  0  0  0  0  0
  -26.0984    2.4436   29.4093 C   0  0  0  0  0  0  0  0  0  0  0  0
  -25.8602    3.5115   30.4219 C   0  0  0  0  0  0  0  0  0  0  0  0
  -26.8756    3.7028   31.1496 O   0  0  0  0  0  0  0  0  0  0  0  0
  -24.9211    4.3166   30.3404 O   0  0  0  0  0  0  0  0  0  0  0  0
  -29.5840   -2.2296   30.2486 Cl  0  0  0  0  0  0  0  0  0  0  0  0
  -24.8186    1.7404   25.9734 C   0  0  0  0  0  0  0  0  0  0  0  0
  -24.9897    1.0010   24.9913 N   0  0  0  0  0  0  0  0  0  0  0  0
  -23.7292    2.6907   25.9789 C   0  0  0  0  0  0  0  0  0  0  0  0
  -23.6313    3.5767   26.8883 F   0  0  0  0  0  0  0  0  0  0  0  0
  -22.6943    2.6436   25.0583 C   0  0  0  0  0  0  0  0  0  0  0  0
  -22.8267    1.5920   24.0732 C   0  0  0  0  0  0  0  0  0  0  0  0
  -23.9736    0.7742   24.0795 C   0  0  0  0  0  0  0  0  0  0  0  0
  -26.6665    4.7931   32.0401 C   0  0  0  0  0  0  0  0  0  0  0  0
  -26.5914    4.5322   33.3227 C   0  0  0  0  0  0  0  0  0  0  0  0
  -26.9790    3.2916   33.6955 C   0  0  0  0  0  0  0  0  0  0  0  0
  -27.6840    3.2751   34.9754 C   0  0  0  0  0  0  0  0  0  0  0  0
  -27.2168    3.9166   35.9424 N   0  0  0  0  0  0  0  0  0  0  0  0
  -26.8824    5.3190   35.6679 C   0  0  0  0  0  0  0  0  0  0  0  0
  -26.4215    5.5844   34.4062 C   0  0  0  0  0  0  0  0  0  0  0  0
  -27.9375    3.8889   37.2467 C   0  0  0  0  0  0  0  0  0  0  0  0
  -27.3941    3.0141   38.0722 C   0  0  0  0  0  0  0  0  0  0  0  0
  -28.0923    2.5233   39.0202 C   0  0  0  0  0  0  0  0  0  0  0  0
  -29.3333    3.0447   39.3764 C   0  0  0  0  0  0  0  0  0  0  0  0
  -29.8622    3.9658   38.5123 C   0  0  0  0  0  0  0  0  0  0  0  0
  -29.1579    4.3765   37.3628 C   0  0  0  0  0  0  0  0  0  0  0  0
  -29.7075    5.3258   36.3989 C   0  0  0  0  0  0  0  0  0  0  0  0
 10 11  1  0
 11 12  1  0
 11 13  2  0
  2 14  1  0
  8 15  1  0
 17 18  1  0
 12 22  1  0
 22 23  1  0
 23 24  1  0
 24 25  1  0
 25 26  1  0
 26 27  1  0
 23 28  1  0
 27 28  1  0
 26 29  1  0
 34 35  1  0
 15 16  2  0
 16 21  1  0
 21 20  2  0
 20 19  1  0
 19 17  2  0
 17 15  1  0
  1  2  2  0
  2  5  1  0
  5  6  2  0
  6  7  1  0
  3  1  1  0
  3  4  2  0
  4  8  1  0
  8  9  2  0
  9 10  1  0
 10  7  2  0
  7  3  1  0
 29 30  2  0
 30 31  1  0
 31 32  2  0
 32 33  1  0
 33 34  2  0
 34 29  1  0
M  END

$$$$
