No_981-gen_results/8p0m/2024-11-26-14-13-15/
     RDKit          3D

 35 38  0  0  0  0  0  0  0  0999 V2000
  -28.0162   -0.8135   28.8779 C   0  0  0  0  0  0  0  0  0  0  0  0
  -27.0636   -0.1189   28.6079 C   0  0  0  0  0  0  0  0  0  0  0  0
  -26.9287    1.1713   29.0083 C   0  0  0  0  0  0  0  0  0  0  0  0
  -25.7702    2.0341   28.6884 C   0  0  0  0  0  0  0  0  0  0  0  0
  -24.7141    1.4431   27.9188 C   0  0  0  0  0  0  0  0  0  0  0  0
  -24.8590    0.0783   27.5836 C   0  0  0  0  0  0  0  0  0  0  0  0
  -25.9647   -0.6606   27.9164 C   0  0  0  0  0  0  0  0  0  0  0  0
  -29.2431   -0.1966   29.1279 C   0  0  0  0  0  0  0  0  0  0  0  0
  -30.3776   -0.9907   29.4760 C   0  0  0  0  0  0  0  0  0  0  0  0
  -30.1680   -2.2239   30.0410 C   0  0  0  0  0  0  0  0  0  0  0  0
  -28.9018   -2.7950   30.1380 C   0  0  0  0  0  0  0  0  0  0  0  0
  -27.8265   -2.0945   29.6609 C   0  0  0  0  0  0  0  0  0  0  0  0
  -23.4891    2.1164   27.5629 C   0  0  0  0  0  0  0  0  0  0  0  0
  -22.6203    1.6110   27.2723 F   0  0  0  0  0  0  0  0  0  0  0  0
  -23.9074    3.0421   26.5016 F   0  0  0  0  0  0  0  0  0  0  0  0
  -23.1796    3.0569   28.5861 F   0  0  0  0  0  0  0  0  0  0  0  0
  -28.6720   -4.0180   30.6727 O   0  0  0  0  0  0  0  0  0  0  0  0
  -31.5916   -0.4804   29.4376 O   0  0  0  0  0  0  0  0  0  0  0  0
  -32.2521   -0.3902   28.3240 C   0  0  0  0  0  0  0  0  0  0  0  0
  -33.3435    0.3658   28.3546 C   0  0  0  0  0  0  0  0  0  0  0  0
  -33.7779    0.9743   29.3427 C   0  0  0  0  0  0  0  0  0  0  0  0
  -34.1180    0.4876   27.0411 C   0  0  0  0  0  0  0  0  0  0  0  0
  -35.0133    1.7732   29.3760 C   0  0  0  0  0  0  0  0  0  0  0  0
  -35.3085    1.2573   27.0930 C   0  0  0  0  0  0  0  0  0  0  0  0
  -35.7251    1.8790   28.2039 C   0  0  0  0  0  0  0  0  0  0  0  0
  -31.8081   -0.9471   27.2986 O   0  0  0  0  0  0  0  0  0  0  0  0
  -37.2220    2.6994   28.3206 Cl  0  0  0  0  0  0  0  0  0  0  0  0
  -29.3002   -5.0449   30.3251 C   0  0  0  0  0  0  0  0  0  0  0  0
  -29.8790   -5.6730   31.5219 C   0  0  0  0  0  0  0  0  0  0  0  0
  -30.7396   -6.8375   31.2921 C   0  0  0  0  0  0  0  0  0  0  0  0
  -31.2466   -7.0199   30.0169 C   0  0  0  0  0  0  0  0  0  0  0  0
  -30.7995   -6.2512   28.9308 C   0  0  0  0  0  0  0  0  0  0  0  0
  -29.8893   -5.1750   29.1680 C   0  0  0  0  0  0  0  0  0  0  0  0
  -31.2829   -6.5142   27.5860 C   0  0  0  0  0  0  0  0  0  0  0  0
  -31.3811   -7.7150   27.0428 C   0  0  0  0  0  0  0  0  0  0  0  0
  1  2  1  0
  5 13  1  0
 13 14  1  0
 13 15  1  0
 13 16  1  0
 11 17  1  0
  9 18  1  0
 18 19  1  0
 19 20  1  0
 19 26  2  0
 25 27  1  0
 17 28  1  0
 32 34  1  0
 34 35  2  0
 28 29  2  0
 29 30  1  0
 30 31  2  0
 31 32  1  0
 32 33  2  0
 33 28  1  0
  2  3  2  0
  3  4  1  0
  4  5  2  0
  5  6  1  0
  6  7  2  0
  7  2  1  0
 20 21  2  0
 21 23  1  0
 23 25  2  0
 25 24  1  0
 24 22  2  0
 22 20  1  0
  1  8  2  0
  8  9  1  0
  9 10  2  0
 10 11  1  0
 11 12  2  0
 12  1  1  0
M  END

$$$$
