No_901-gen_results/8p0m/2024-11-26-14-13-15/
     RDKit          3D

 35 38  0  0  0  0  0  0  0  0999 V2000
  -28.1229   -1.3353   28.4874 O   0  0  0  0  0  0  0  0  0  0  0  0
  -27.4806   -0.4044   28.7094 C   0  0  0  0  0  0  0  0  0  0  0  0
  -26.3804   -0.0867   27.9394 C   0  0  0  0  0  0  0  0  0  0  0  0
  -27.6664    0.4468   29.8988 N   0  0  0  0  0  0  0  0  0  0  0  0
  -25.1773   -0.4388   28.3946 C   0  0  0  0  0  0  0  0  0  0  0  0
  -23.9281   -0.2469   27.6677 C   0  0  0  0  0  0  0  0  0  0  0  0
  -24.0115    0.7683   26.6848 C   0  0  0  0  0  0  0  0  0  0  0  0
  -25.2436    1.2341   26.2435 C   0  0  0  0  0  0  0  0  0  0  0  0
  -26.3955    0.8712   26.8685 C   0  0  0  0  0  0  0  0  0  0  0  0
  -28.7606    0.1154   30.7716 C   0  0  0  0  0  0  0  0  0  0  0  0
  -26.8564    1.5271   30.2014 C   0  0  0  0  0  0  0  0  0  0  0  0
  -26.3606    1.6712   31.1605 C   0  0  0  0  0  0  0  0  0  0  0  0
  -27.2448    1.6336   32.4398 C   0  0  0  0  0  0  0  0  0  0  0  0
  -28.1748    0.3881   32.2424 C   0  0  0  0  0  0  0  0  0  0  0  0
  -27.6370    1.3593   26.2943 C   0  0  0  0  0  0  0  0  0  0  0  0
  -28.0320    2.5567   26.7440 C   0  0  0  0  0  0  0  0  0  0  0  0
  -29.2881    3.0875   26.3721 C   0  0  0  0  0  0  0  0  0  0  0  0
  -28.4534    0.5679   25.6060 C   0  0  0  0  0  0  0  0  0  0  0  0
  -29.7035    0.9954   25.1839 C   0  0  0  0  0  0  0  0  0  0  0  0
  -30.1019    2.2900   25.5332 C   0  0  0  0  0  0  0  0  0  0  0  0
  -25.0183   -1.3481   29.3848 F   0  0  0  0  0  0  0  0  0  0  0  0
  -25.0113    2.3096   31.5617 C   0  0  0  0  0  0  0  0  0  0  0  0
  -24.6715    3.2516   31.7453 O   0  0  0  0  0  0  0  0  0  0  0  0
  -24.0186    1.2620   31.2704 O   0  0  0  0  0  0  0  0  0  0  0  0
  -31.7385    2.9100   24.8492 Br  0  0  0  0  0  0  0  0  0  0  0  0
  -29.3927    0.5671   33.2220 C   0  0  0  0  0  0  0  0  0  0  0  0
  -30.2398    1.4467   33.1000 C   0  0  0  0  0  0  0  0  0  0  0  0
  -31.3252    1.5812   33.9948 C   0  0  0  0  0  0  0  0  0  0  0  0
  -31.4412    0.6120   35.0174 C   0  0  0  0  0  0  0  0  0  0  0  0
  -30.5128   -0.3945   35.1206 C   0  0  0  0  0  0  0  0  0  0  0  0
  -29.4219   -0.4865   34.2553 C   0  0  0  0  0  0  0  0  0  0  0  0
  -27.3225   -0.8956   32.6098 C   0  0  0  0  0  0  0  0  0  0  0  0
  -30.6330   -1.3931   36.2241 C   0  0  0  0  0  0  0  0  0  0  0  0
  -30.4921   -2.4857   36.0888 O   0  0  0  0  0  0  0  0  0  0  0  0
  -30.9051   -0.8664   37.4166 O   0  0  0  0  0  0  0  0  0  0  0  0
  1  2  2  0
  2  3  1  0
  2  4  1  0
  4 10  1  0
  4 11  1  0
 12 13  1  0
 10 14  1  0
 13 14  1  0
  9 15  1  0
  5 21  1  0
 12 22  1  0
 22 23  2  0
 22 24  1  0
 20 25  1  0
 14 26  1  0
 14 32  1  0
 30 33  1  0
 33 34  2  0
 33 35  1  0
 12 11  1  0
 15 16  2  0
 16 17  1  0
 17 20  2  0
 20 19  1  0
 19 18  2  0
 18 15  1  0
  3  5  2  0
  5  6  1  0
  6  7  2  0
  7  8  1  0
  8  9  2  0
  9  3  1  0
 26 27  2  0
 27 28  1  0
 28 29  2  0
 29 30  1  0
 30 31  2  0
 31 26  1  0
M  END

$$$$
