No_975-gen_results/8p0m/2024-11-26-14-13-15/
     RDKit          3D

 35 39  0  0  0  0  0  0  0  0999 V2000
  -28.0162   -0.8135   28.8779 C   0  0  0  0  0  0  0  0  0  0  0  0
  -27.0636   -0.1190   28.6079 C   0  0  0  0  0  0  0  0  0  0  0  0
  -25.7647   -0.3897   29.0360 C   0  0  0  0  0  0  0  0  0  0  0  0
  -25.5296   -1.5302   29.9014 C   0  0  0  0  0  0  0  0  0  0  0  0
  -26.4408   -2.2130   30.0940 C   0  0  0  0  0  0  0  0  0  0  0  0
  -27.7549   -1.9968   29.7465 C   0  0  0  0  0  0  0  0  0  0  0  0
  -24.5585    0.5005   28.7224 C   0  0  0  0  0  0  0  0  0  0  0  0
  -23.3192    0.1329   28.9979 C   0  0  0  0  0  0  0  0  0  0  0  0
  -22.1893    0.9297   28.6470 C   0  0  0  0  0  0  0  0  0  0  0  0
  -22.4182    1.9459   27.6599 C   0  0  0  0  0  0  0  0  0  0  0  0
  -24.6349    1.5817   27.7705 C   0  0  0  0  0  0  0  0  0  0  0  0
  -23.7900    2.2032   27.3987 C   0  0  0  0  0  0  0  0  0  0  0  0
  -28.8977   -2.8590   30.1715 C   0  0  0  0  0  0  0  0  0  0  0  0
  -30.0044   -2.4661   30.3142 N   0  0  0  0  0  0  0  0  0  0  0  0
  -28.5676   -4.0902   30.5023 O   0  0  0  0  0  0  0  0  0  0  0  0
  -31.1494   -3.3172   30.7216 C   0  0  0  0  0  0  0  0  0  0  0  0
  -24.0779    3.6532   26.5320 P   0  0  0  0  0  0  0  0  0  0  0  0
  -25.4530    3.7243   26.4385 O   0  0  0  0  0  0  0  0  0  0  0  0
  -23.5547    3.3924   25.0133 O   0  0  0  0  0  0  0  0  0  0  0  0
  -24.0420    4.7990   27.3178 O   0  0  0  0  0  0  0  0  0  0  0  0
  -26.5699    4.2140   26.9474 C   0  0  0  0  0  0  0  0  0  0  0  0
  -27.7578    3.7556   26.5244 C   0  0  0  0  0  0  0  0  0  0  0  0
  -27.9702    2.6904   25.8262 C   0  0  0  0  0  0  0  0  0  0  0  0
  -29.1904    2.1895   25.3169 C   0  0  0  0  0  0  0  0  0  0  0  0
  -30.3493    2.9827   25.5901 C   0  0  0  0  0  0  0  0  0  0  0  0
  -30.2574    4.1908   26.2985 C   0  0  0  0  0  0  0  0  0  0  0  0
  -28.9766    4.6285   26.7523 C   0  0  0  0  0  0  0  0  0  0  0  0
  -31.1575   -4.2180   31.3372 C   0  0  0  0  0  0  0  0  0  0  0  0
  -32.2125   -2.2543   31.1040 C   0  0  0  0  0  0  0  0  0  0  0  0
  -32.3021   -1.1279   30.7007 C   0  0  0  0  0  0  0  0  0  0  0  0
  -31.2046   -0.4395   30.1039 C   0  0  0  0  0  0  0  0  0  0  0  0
  -30.1536   -1.0102   30.0181 C   0  0  0  0  0  0  0  0  0  0  0  0
  -29.0483   -0.3553   29.2990 C   0  0  0  0  0  0  0  0  0  0  0  0
  -31.0902   -5.3093   31.0124 C   0  0  0  0  0  0  0  0  0  0  0  0
  -30.9854   -6.5986   31.8056 C   0  0  0  0  0  0  0  0  0  0  0  0
  3  7  1  0
  6 13  1  0
 13 14  1  0
 13 15  2  0
 14 16  1  0
 12 17  1  0
 17 18  1  0
 17 19  2  0
 17 20  1  0
 18 21  1  0
 16 28  1  0
 16 29  1  0
 30 31  1  0
 14 32  1  0
  1 33  1  0
 32 33  1  0
 28 34  2  3
 34 35  1  0
 21 22  1  0
 29 30  1  0
 31 32  1  0
  1  2  2  0
  2  3  1  0
  3  4  2  0
  4  5  1  0
  5  6  2  0
  6  1  1  0
 22 23  2  0
 23 24  1  0
 24 25  2  0
 25 26  1  0
 26 27  2  0
 27 22  1  0
  7  8  2  0
  8  9  1  0
  9 10  2  0
 10 12  1  0
 12 11  2  0
 11  7  1  0
M  END

$$$$
