No_996-gen_results/8p0m/2024-11-26-14-13-15/
     RDKit          3D

 31 33  0  0  0  0  0  0  0  0999 V2000
  -28.0162   -0.8135   28.8779 C   0  0  0  0  0  0  0  0  0  0  0  0
  -28.4690   -0.7850   29.8287 C   0  0  0  0  0  0  0  0  0  0  0  0
  -26.5042   -0.7777   28.8766 C   0  0  0  0  0  0  0  0  0  0  0  0
  -25.6540   -0.6597   27.7191 C   0  0  0  0  0  0  0  0  0  0  0  0
  -28.1834   -0.8426   30.8354 C   0  0  0  0  0  0  0  0  0  0  0  0
  -26.7573   -0.8210   31.2264 C   0  0  0  0  0  0  0  0  0  0  0  0
  -25.8874   -0.7938   30.1755 C   0  0  0  0  0  0  0  0  0  0  0  0
  -25.8515    0.3677   26.7874 C   0  0  0  0  0  0  0  0  0  0  0  0
  -24.8464    0.7885   26.0119 C   0  0  0  0  0  0  0  0  0  0  0  0
  -24.0301    1.7487   26.0846 C   0  0  0  0  0  0  0  0  0  0  0  0
  -24.1832    2.6878   27.1579 C   0  0  0  0  0  0  0  0  0  0  0  0
  -25.4113    2.7140   27.8325 C   0  0  0  0  0  0  0  0  0  0  0  0
  -26.1805    1.7400   27.8738 C   0  0  0  0  0  0  0  0  0  0  0  0
  -25.6336    3.8143   28.7768 C   0  0  0  0  0  0  0  0  0  0  0  0
  -25.4765    3.6929   29.9338 O   0  0  0  0  0  0  0  0  0  0  0  0
  -25.7941    5.1097   28.1818 N   0  0  0  0  0  0  0  0  0  0  0  0
  -25.9452    6.2950   29.0286 C   0  0  0  0  0  0  0  0  0  0  0  0
  -25.8916    6.3417   30.1511 C   0  0  0  0  0  0  0  0  0  0  0  0
  -26.5826    5.7229   31.0321 C   0  0  0  0  0  0  0  0  0  0  0  0
  -26.3116    5.9365   32.4317 C   0  0  0  0  0  0  0  0  0  0  0  0
  -25.3022    6.8016   32.8817 C   0  0  0  0  0  0  0  0  0  0  0  0
  -24.5287    7.4377   31.9065 C   0  0  0  0  0  0  0  0  0  0  0  0
  -24.7255    7.2390   30.5934 C   0  0  0  0  0  0  0  0  0  0  0  0
  -26.3677    7.2173   28.2021 O   0  0  0  0  0  0  0  0  0  0  0  0
  -24.4760   -0.7534   30.3627 C   0  0  0  0  0  0  0  0  0  0  0  0
  -23.7379    0.4327   30.1847 C   0  0  0  0  0  0  0  0  0  0  0  0
  -22.3339    0.4117   30.0161 C   0  0  0  0  0  0  0  0  0  0  0  0
  -21.7208    1.1525   29.0984 C   0  0  0  0  0  0  0  0  0  0  0  0
  -23.8579   -1.9862   30.6533 C   0  0  0  0  0  0  0  0  0  0  0  0
  -20.7876    0.5012   28.1167 C   0  0  0  0  0  0  0  0  0  0  0  0
  -24.8370   -1.7496   27.3922 C   0  0  0  0  0  0  0  0  0  0  0  0
  3  4  1  0
  4  8  1  0
 12 14  1  0
 14 15  2  0
 14 16  1  0
 16 17  1  0
 17 18  1  0
 17 24  2  0
  7 25  1  0
 25 26  1  0
 26 27  2  3
 27 28  1  0
 25 29  1  0
 28 30  1  0
  4 31  1  0
 18 19  2  0
 19 20  1  0
 20 21  2  0
 21 22  1  0
 22 23  2  0
 23 18  1  0
  8  9  2  0
  9 10  1  0
 10 11  2  0
 11 12  1  0
 12 13  2  0
 13  8  1  0
  1  2  2  0
  2  5  1  0
  5  6  2  0
  6  7  1  0
  7  3  2  0
  3  1  1  0
M  END

$$$$
