No_957-gen_results/8p0m/2024-11-26-14-13-15/
     RDKit          3D

 17 17  0  0  0  0  0  0  0  0999 V2000
  -28.0162   -0.8135   28.8779 C   0  0  0  0  0  0  0  0  0  0  0  0
  -28.4690   -0.7850   29.8287 C   0  0  0  0  0  0  0  0  0  0  0  0
  -26.5042   -0.7777   28.8766 C   0  0  0  0  0  0  0  0  0  0  0  0
  -25.6540   -0.6597   27.7191 C   0  0  0  0  0  0  0  0  0  0  0  0
  -27.9180   -0.9374   31.1824 C   0  0  0  0  0  0  0  0  0  0  0  0
  -26.5423   -0.9399   31.2606 C   0  0  0  0  0  0  0  0  0  0  0  0
  -25.7832   -0.8935   30.1201 C   0  0  0  0  0  0  0  0  0  0  0  0
  -24.8325    0.6214   27.5153 Cl  0  0  0  0  0  0  0  0  0  0  0  0
  -30.0629   -0.8355   29.8971 C   0  0  0  0  0  0  0  0  0  0  0  0
  -30.6896   -0.4016   29.1426 O   0  0  0  0  0  0  0  0  0  0  0  0
  -30.6648   -1.4599   30.9540 O   0  0  0  0  0  0  0  0  0  0  0  0
  -26.4667   -0.5436   26.5503 C   0  0  0  0  0  0  0  0  0  0  0  0
  -25.8207   -0.1276   25.3162 C   0  0  0  0  0  0  0  0  0  0  0  0
  -24.6716    0.6035   25.7330 C   0  0  0  0  0  0  0  0  0  0  0  0
  -24.5658    2.0283   25.3221 C   0  0  0  0  0  0  0  0  0  0  0  0
  -23.5897    0.2770   25.1905 F   0  0  0  0  0  0  0  0  0  0  0  0
  -25.5099    2.9049   25.9467 C   0  0  0  0  0  0  0  0  0  0  0  0
  3  4  1  0
  4  8  1  0
  2  9  1  0
  9 10  2  0
  9 11  1  0
  4 12  1  0
 12 13  2  3
 13 14  1  0
 14 15  1  0
 14 16  1  0
 15 17  1  0
  1  2  2  0
  2  5  1  0
  5  6  2  0
  6  7  1  0
  7  3  2  0
  3  1  1  0
M  END

$$$$
