No_992-gen_results/8p0m/2024-11-26-14-13-15/
     RDKit          3D

 11 12  0  0  0  0  0  0  0  0999 V2000
  -28.0162   -0.8135   28.8779 C   0  0  0  0  0  0  0  0  0  0  0  0
  -28.4690   -0.7850   29.8287 C   0  0  0  0  0  0  0  0  0  0  0  0
  -27.0871    0.2903   28.6377 C   0  0  0  0  0  0  0  0  0  0  0  0
  -26.8317    1.2487   29.5869 C   0  0  0  0  0  0  0  0  0  0  0  0
  -28.3292   -0.0397   30.8362 C   0  0  0  0  0  0  0  0  0  0  0  0
  -27.4945    1.0625   30.7933 C   0  0  0  0  0  0  0  0  0  0  0  0
  -26.3215    0.4301   27.3429 C   0  0  0  0  0  0  0  0  0  0  0  0
  -25.5405    1.6125   27.1784 C   0  0  0  0  0  0  0  0  0  0  0  0
  -25.3330    2.4964   28.1907 C   0  0  0  0  0  0  0  0  0  0  0  0
  -25.9970    2.3794   29.3913 C   0  0  0  0  0  0  0  0  0  0  0  0
  -25.7777    3.2785   30.3353 F   0  0  0  0  0  0  0  0  0  0  0  0
 10 11  1  0
  4 10  2  0
 10  9  1  0
  9  8  2  0
  8  7  1  0
  7  3  2  0
  1  2  2  0
  2  5  1  0
  5  6  2  0
  6  4  1  0
  4  3  1  0
  3  1  1  0
M  END

$$$$
