No_94-gen_results/8p0m/2024-11-26-14-13-15/
     RDKit          3D

 23 26  0  0  0  0  0  0  0  0999 V2000
  -28.1229   -1.3353   28.4874 O   0  0  0  0  0  0  0  0  0  0  0  0
  -27.4806   -0.4044   28.7094 C   0  0  0  0  0  0  0  0  0  0  0  0
  -26.3804   -0.0867   27.9394 C   0  0  0  0  0  0  0  0  0  0  0  0
  -27.8993    0.6459   29.6321 N   0  0  0  0  0  0  0  0  0  0  0  0
  -25.3739    0.7466   28.5670 C   0  0  0  0  0  0  0  0  0  0  0  0
  -25.8508    1.8817   29.3165 C   0  0  0  0  0  0  0  0  0  0  0  0
  -26.9703    1.5334   30.1657 C   0  0  0  0  0  0  0  0  0  0  0  0
  -29.0967    0.3419   30.3283 C   0  0  0  0  0  0  0  0  0  0  0  0
  -30.2315    0.7510   29.6182 C   0  0  0  0  0  0  0  0  0  0  0  0
  -31.3038   -0.0220   29.6553 C   0  0  0  0  0  0  0  0  0  0  0  0
  -31.3567   -1.0829   30.5488 C   0  0  0  0  0  0  0  0  0  0  0  0
  -30.2222   -1.5407   31.2354 C   0  0  0  0  0  0  0  0  0  0  0  0
  -29.0278   -0.7383   31.2113 C   0  0  0  0  0  0  0  0  0  0  0  0
  -24.3537   -0.0346   29.3878 C   0  0  0  0  0  0  0  0  0  0  0  0
  -24.2246   -1.1297   29.6842 C   0  0  0  0  0  0  0  0  0  0  0  0
  -23.0901   -1.7711   30.3976 C   0  0  0  0  0  0  0  0  0  0  0  0
  -22.1622   -0.8020   30.8506 C   0  0  0  0  0  0  0  0  0  0  0  0
  -23.1806    0.9467   29.8877 C   0  0  0  0  0  0  0  0  0  0  0  0
  -22.2212    0.4899   30.4008 N   0  0  0  0  0  0  0  0  0  0  0  0
  -24.6376    1.5412   27.3640 C   0  0  0  0  0  0  0  0  0  0  0  0
  -24.4858    2.7787   27.2907 C   0  0  0  0  0  0  0  0  0  0  0  0
  -25.1969    3.7281   28.1293 C   0  0  0  0  0  0  0  0  0  0  0  0
  -25.7258    3.2790   29.2534 C   0  0  0  0  0  0  0  0  0  0  0  0
  1  2  2  0
  2  3  1  0
  2  4  1  0
  3  5  1  0
  5  6  1  0
  4  7  1  0
  6  7  1  0
  4  8  1  0
  5 14  1  0
  5 20  1  0
 21 22  1  0
  6 23  1  0
 22 23  1  0
 21 20  1  0
 14 15  2  0
 15 16  1  0
 16 17  2  0
 17 19  1  0
 19 18  2  0
 18 14  1  0
  8  9  2  0
  9 10  1  0
 10 11  2  0
 11 12  1  0
 12 13  2  0
 13  8  1  0
M  END

$$$$
