No_958-gen_results/8p0m/2024-11-26-14-13-15/
     RDKit          3D

 22 24  0  0  0  0  0  0  0  0999 V2000
  -28.0162   -0.8135   28.8779 C   0  0  0  0  0  0  0  0  0  0  0  0
  -28.4690   -0.7850   29.8287 C   0  0  0  0  0  0  0  0  0  0  0  0
  -26.5042   -0.7777   28.8766 C   0  0  0  0  0  0  0  0  0  0  0  0
  -25.8103   -0.8531   30.1028 C   0  0  0  0  0  0  0  0  0  0  0  0
  -27.9906   -0.8916   31.2257 C   0  0  0  0  0  0  0  0  0  0  0  0
  -26.6042   -0.8676   31.2652 C   0  0  0  0  0  0  0  0  0  0  0  0
  -30.0417   -0.7687   29.6526 C   0  0  0  0  0  0  0  0  0  0  0  0
  -30.6973    0.2390   30.2017 N   0  0  0  0  0  0  0  0  0  0  0  0
  -31.8654    0.4530   30.1273 C   0  0  0  0  0  0  0  0  0  0  0  0
  -32.6924   -0.4657   29.4322 C   0  0  0  0  0  0  0  0  0  0  0  0
  -32.0202   -1.5736   28.8575 C   0  0  0  0  0  0  0  0  0  0  0  0
  -30.6677   -1.7575   29.0459 C   0  0  0  0  0  0  0  0  0  0  0  0
  -32.7474   -2.6141   28.0983 C   0  0  0  0  0  0  0  0  0  0  0  0
  -32.5585   -2.6051   26.7293 C   0  0  0  0  0  0  0  0  0  0  0  0
  -32.6090   -3.8172   26.0334 C   0  0  0  0  0  0  0  0  0  0  0  0
  -33.0772   -4.9898   26.6607 C   0  0  0  0  0  0  0  0  0  0  0  0
  -33.2669   -4.9481   28.0235 C   0  0  0  0  0  0  0  0  0  0  0  0
  -32.9500   -3.8157   28.7726 C   0  0  0  0  0  0  0  0  0  0  0  0
  -34.0891   -0.3267   29.2521 C   0  0  0  0  0  0  0  0  0  0  0  0
  -34.6342    0.5992   29.2903 N   0  0  0  0  0  0  0  0  0  0  0  0
  -34.7454   -1.4403   29.0742 O   0  0  0  0  0  0  0  0  0  0  0  0
  -36.0829    0.8892   29.2018 C   0  0  0  0  0  0  0  0  0  0  0  0
  2  7  1  0
 11 13  1  0
 10 19  1  0
 19 20  1  0
 19 21  2  0
 20 22  1  0
 13 14  2  0
 14 15  1  0
 15 16  2  0
 16 17  1  0
 17 18  2  0
 18 13  1  0
  1  2  2  0
  2  5  1  0
  5  6  2  0
  6  4  1  0
  4  3  2  0
  3  1  1  0
  7  8  2  0
  8  9  1  0
  9 10  2  0
 10 11  1  0
 11 12  2  0
 12  7  1  0
M  END

$$$$
