No_936-gen_results/8p0m/2024-11-26-14-13-15/
     RDKit          3D

 13 14  0  0  0  0  0  0  0  0999 V2000
  -28.0162   -0.8135   28.8779 C   0  0  0  0  0  0  0  0  0  0  0  0
  -28.4690   -0.7850   29.8287 C   0  0  0  0  0  0  0  0  0  0  0  0
  -26.5042   -0.7777   28.8766 C   0  0  0  0  0  0  0  0  0  0  0  0
  -25.7622   -0.0022   27.9705 C   0  0  0  0  0  0  0  0  0  0  0  0
  -29.9993   -0.7599   29.8953 C   0  0  0  0  0  0  0  0  0  0  0  0
  -24.9658    0.7968   28.2217 C   0  0  0  0  0  0  0  0  0  0  0  0
  -23.9358    0.5547   29.2899 C   0  0  0  0  0  0  0  0  0  0  0  0
  -24.4572   -0.4513   30.2247 C   0  0  0  0  0  0  0  0  0  0  0  0
  -25.7142   -1.0578   30.0962 C   0  0  0  0  0  0  0  0  0  0  0  0
  -30.5689   -0.5881   28.6854 C   0  0  0  0  0  0  0  0  0  0  0  0
  -29.8646   -0.3510   27.5829 C   0  0  0  0  0  0  0  0  0  0  0  0
  -28.5182   -0.3159   27.6740 C   0  0  0  0  0  0  0  0  0  0  0  0
  -30.4140   -0.0544   26.4105 F   0  0  0  0  0  0  0  0  0  0  0  0
  1  3  1  0
 11 13  1  0
  3  4  2  0
  4  6  1  0
  6  7  2  0
  7  8  1  0
  8  9  2  0
  9  3  1  0
  1  2  2  0
  2  5  1  0
  5 10  2  0
 10 11  1  0
 11 12  2  0
 12  1  1  0
M  END

$$$$
