No_96-gen_results/8p0m/2024-11-26-14-13-15/
     RDKit          3D

 35 36  0  0  0  0  0  0  0  0999 V2000
  -28.0162   -0.8135   28.8779 C   0  0  0  0  0  0  0  0  0  0  0  0
  -27.0636   -0.1189   28.6079 C   0  0  0  0  0  0  0  0  0  0  0  0
  -26.9287    1.1713   29.0083 C   0  0  0  0  0  0  0  0  0  0  0  0
  -27.9560    1.7411   29.7840 C   0  0  0  0  0  0  0  0  0  0  0  0
  -29.0569   -0.3271   29.7466 C   0  0  0  0  0  0  0  0  0  0  0  0
  -28.9828    0.9722   30.1516 C   0  0  0  0  0  0  0  0  0  0  0  0
  -25.8815   -0.6260   27.7945 C   0  0  0  0  0  0  0  0  0  0  0  0
  -24.6972   -1.0572   28.6241 C   0  0  0  0  0  0  0  0  0  0  0  0
  -24.6429   -2.2546   29.1042 C   0  0  0  0  0  0  0  0  0  0  0  0
  -23.6235   -0.1510   28.7890 C   0  0  0  0  0  0  0  0  0  0  0  0
  -22.4506   -0.6386   29.5030 C   0  0  0  0  0  0  0  0  0  0  0  0
  -23.4348   -2.7398   29.7626 C   0  0  0  0  0  0  0  0  0  0  0  0
  -22.3907   -1.8579   29.9589 C   0  0  0  0  0  0  0  0  0  0  0  0
  -30.0367    1.4474   30.9419 O   0  0  0  0  0  0  0  0  0  0  0  0
  -29.8343   -1.2708   30.2653 O   0  0  0  0  0  0  0  0  0  0  0  0
  -29.3137   -2.3136   30.9121 C   0  0  0  0  0  0  0  0  0  0  0  0
  -29.6732   -3.6019   30.3768 C   0  0  0  0  0  0  0  0  0  0  0  0
  -28.7330   -4.4826   30.4344 O   0  0  0  0  0  0  0  0  0  0  0  0
  -30.7421   -3.8088   29.9093 O   0  0  0  0  0  0  0  0  0  0  0  0
  -31.2101    1.5151   30.4473 C   0  0  0  0  0  0  0  0  0  0  0  0
  -32.2034    0.9321   31.2120 C   0  0  0  0  0  0  0  0  0  0  0  0
  -33.0610    1.4204   31.4417 O   0  0  0  0  0  0  0  0  0  0  0  0
  -31.9841   -0.3604   31.5640 O   0  0  0  0  0  0  0  0  0  0  0  0
  -27.8497    3.1613   30.2160 C   0  0  0  0  0  0  0  0  0  0  0  0
  -27.4817    3.8961   29.4802 O   0  0  0  0  0  0  0  0  0  0  0  0
  -28.1490    3.4162   31.4558 O   0  0  0  0  0  0  0  0  0  0  0  0
  -27.2494    3.3975   32.4826 C   0  0  0  0  0  0  0  0  0  0  0  0
  -27.1014    2.4144   33.2409 C   0  0  0  0  0  0  0  0  0  0  0  0
  -26.0571    1.4790   32.9724 C   0  0  0  0  0  0  0  0  0  0  0  0
  -26.4261    0.2516   32.4832 C   0  0  0  0  0  0  0  0  0  0  0  0
  -25.5973   -0.7505   33.0642 C   0  0  0  0  0  0  0  0  0  0  0  0
  -24.3390   -0.6710   32.4482 N   0  0  0  0  0  0  0  0  0  0  0  0
  -26.9733    2.9014   34.8207 C   0  0  0  0  0  0  0  0  0  0  0  0
  -26.8050    1.7775   35.5113 F   0  0  0  0  0  0  0  0  0  0  0  0
  -25.9011    3.6147   35.0855 F   0  0  0  0  0  0  0  0  0  0  0  0
  2  7  1  0
  7  8  1  0
  6 14  1  0
  5 15  1  0
 15 16  1  0
 16 17  1  0
 17 18  2  0
 17 19  1  0
 14 20  1  0
 20 21  1  0
 21 22  2  0
 21 23  1  0
  4 24  1  0
 24 25  2  0
 24 26  1  0
 26 27  1  0
 27 28  1  0
 28 29  1  0
 29 30  1  0
 30 31  1  0
 31 32  1  0
 28 33  1  0
 33 34  1  0
 33 35  1  0
  1  2  2  0
  2  3  1  0
  3  4  2  0
  4  6  1  0
  6  5  2  0
  5  1  1  0
  8  9  2  0
  9 12  1  0
 12 13  2  0
 13 11  1  0
 11 10  2  0
 10  8  1  0
M  END

$$$$
