No_902-gen_results/8p0m/2024-11-26-14-13-15/
     RDKit          3D

 24 25  0  0  0  0  0  0  0  0999 V2000
  -28.0162   -0.8135   28.8779 C   0  0  0  0  0  0  0  0  0  0  0  0
  -27.0636   -0.1189   28.6079 C   0  0  0  0  0  0  0  0  0  0  0  0
  -26.9287    1.1713   29.0083 C   0  0  0  0  0  0  0  0  0  0  0  0
  -27.9560    1.7411   29.7840 C   0  0  0  0  0  0  0  0  0  0  0  0
  -29.0569   -0.3271   29.7466 C   0  0  0  0  0  0  0  0  0  0  0  0
  -28.9828    0.9722   30.1516 C   0  0  0  0  0  0  0  0  0  0  0  0
  -25.9387   -0.8037   27.9016 C   0  0  0  0  0  0  0  0  0  0  0  0
  -25.8774   -1.8238   28.0511 F   0  0  0  0  0  0  0  0  0  0  0  0
  -24.6418   -0.1398   28.1880 F   0  0  0  0  0  0  0  0  0  0  0  0
  -25.9983   -0.3678   26.4940 F   0  0  0  0  0  0  0  0  0  0  0  0
  -30.2288    1.4559   31.2442 Cl  0  0  0  0  0  0  0  0  0  0  0  0
  -27.7793    3.1784   30.1713 C   0  0  0  0  0  0  0  0  0  0  0  0
  -27.0987    3.4058   31.2758 C   0  0  0  0  0  0  0  0  0  0  0  0
  -26.1836    3.9097   31.5776 C   0  0  0  0  0  0  0  0  0  0  0  0
  -25.3380    4.1096   32.4748 C   0  0  0  0  0  0  0  0  0  0  0  0
  -25.6335    3.4358   33.7046 C   0  0  0  0  0  0  0  0  0  0  0  0
  -26.7806    2.6254   33.6482 C   0  0  0  0  0  0  0  0  0  0  0  0
  -27.5192    2.5280   32.4758 C   0  0  0  0  0  0  0  0  0  0  0  0
  -27.1883    1.8618   34.8654 C   0  0  0  0  0  0  0  0  0  0  0  0
  -28.0947    2.2106   35.4957 O   0  0  0  0  0  0  0  0  0  0  0  0
  -26.4918    0.7875   35.0591 O   0  0  0  0  0  0  0  0  0  0  0  0
  -30.1874   -1.2254   30.1124 C   0  0  0  0  0  0  0  0  0  0  0  0
  -30.2228   -1.7411   31.1543 O   0  0  0  0  0  0  0  0  0  0  0  0
  -31.0838   -1.2844   29.2278 O   0  0  0  0  0  0  0  0  0  0  0  0
  2  7  1  0
  7  8  1  0
  7  9  1  0
  7 10  1  0
  6 11  1  0
  4 12  1  0
 12 13  1  0
 17 19  1  0
 19 20  2  0
 19 21  1  0
  5 22  1  0
 22 23  2  0
 22 24  1  0
 13 14  2  0
 14 15  1  0
 15 16  2  0
 16 17  1  0
 17 18  2  0
 18 13  1  0
  1  2  2  0
  2  3  1  0
  3  4  2  0
  4  6  1  0
  6  5  2  0
  5  1  1  0
M  END

$$$$
