No_912-gen_results/8p0m/2024-11-26-14-13-15/
     RDKit          3D

 19 21  0  0  0  0  0  0  0  0999 V2000
  -28.0162   -0.8135   28.8779 C   0  0  0  0  0  0  0  0  0  0  0  0
  -27.0636   -0.1189   28.6079 C   0  0  0  0  0  0  0  0  0  0  0  0
  -27.0010    0.6913   27.4910 C   0  0  0  0  0  0  0  0  0  0  0  0
  -28.1373    0.7363   26.6350 C   0  0  0  0  0  0  0  0  0  0  0  0
  -29.2360    0.0765   27.0690 C   0  0  0  0  0  0  0  0  0  0  0  0
  -29.2177   -0.6429   28.1747 C   0  0  0  0  0  0  0  0  0  0  0  0
  -30.3516    0.1564   26.2430 N   0  0  0  0  0  0  0  0  0  0  0  0
  -31.4313   -0.4312   26.5996 C   0  0  0  0  0  0  0  0  0  0  0  0
  -32.1635   -1.1434   25.6764 C   0  0  0  0  0  0  0  0  0  0  0  0
  -30.2592    0.6581   24.9349 C   0  0  0  0  0  0  0  0  0  0  0  0
  -29.2791    1.4571   24.5697 C   0  0  0  0  0  0  0  0  0  0  0  0
  -28.0564    1.4955   25.4128 C   0  0  0  0  0  0  0  0  0  0  0  0
  -33.2242   -1.9710   26.1243 C   0  0  0  0  0  0  0  0  0  0  0  0
  -33.6276   -2.0184   27.4234 C   0  0  0  0  0  0  0  0  0  0  0  0
  -32.9274   -1.2796   28.3280 C   0  0  0  0  0  0  0  0  0  0  0  0
  -31.8253   -0.5314   27.9957 C   0  0  0  0  0  0  0  0  0  0  0  0
  -28.0967   -1.6277   30.1830 C   0  0  0  0  0  0  0  0  0  0  0  0
  -27.1668   -2.2330   30.4704 O   0  0  0  0  0  0  0  0  0  0  0  0
  -29.2190   -1.7531   30.8001 O   0  0  0  0  0  0  0  0  0  0  0  0
  5  7  1  0
  7  8  1  0
  7 10  1  0
  4 12  1  0
 11 12  1  0
  1 17  1  0
 17 18  2  0
 17 19  1  0
 11 10  1  0
  1  2  2  0
  2  3  1  0
  3  4  2  0
  4  5  1  0
  5  6  2  0
  6  1  1  0
  8  9  2  0
  9 13  1  0
 13 14  2  0
 14 15  1  0
 15 16  2  0
 16  8  1  0
M  END

$$$$
