No_988-gen_results/8p0m/2024-11-26-14-13-15/
     RDKit          3D

 31 34  0  0  0  0  0  0  0  0999 V2000
  -28.1229   -1.3353   28.4874 O   0  0  0  0  0  0  0  0  0  0  0  0
  -27.4806   -0.4044   28.7094 C   0  0  0  0  0  0  0  0  0  0  0  0
  -26.3804   -0.0867   27.9394 C   0  0  0  0  0  0  0  0  0  0  0  0
  -27.6664    0.4468   29.8988 N   0  0  0  0  0  0  0  0  0  0  0  0
  -26.4086    0.8567   26.8802 C   0  0  0  0  0  0  0  0  0  0  0  0
  -25.0824   -0.6970   28.1699 C   0  0  0  0  0  0  0  0  0  0  0  0
  -25.2842    1.0488   26.0470 C   0  0  0  0  0  0  0  0  0  0  0  0
  -23.9159   -0.3440   27.4444 C   0  0  0  0  0  0  0  0  0  0  0  0
  -24.0618    0.5290   26.3707 C   0  0  0  0  0  0  0  0  0  0  0  0
  -28.7724    0.0990   30.7925 C   0  0  0  0  0  0  0  0  0  0  0  0
  -26.8467    1.5200   30.2210 C   0  0  0  0  0  0  0  0  0  0  0  0
  -26.1382    1.4748   31.0766 C   0  0  0  0  0  0  0  0  0  0  0  0
  -26.0892    1.0022   32.2015 C   0  0  0  0  0  0  0  0  0  0  0  0
  -27.0283    0.5525   32.8126 C   0  0  0  0  0  0  0  0  0  0  0  0
  -28.1197   -0.2956   32.1176 C   0  0  0  0  0  0  0  0  0  0  0  0
  -24.8933   -1.6177   29.3328 C   0  0  0  0  0  0  0  0  0  0  0  0
  -29.1082   -0.8597   33.0027 C   0  0  0  0  0  0  0  0  0  0  0  0
  -23.7951   -2.1072   29.7556 C   0  0  0  0  0  0  0  0  0  0  0  0
  -28.7487   -1.1436   34.2338 C   0  0  0  0  0  0  0  0  0  0  0  0
  -27.7160   -0.5426   34.9685 C   0  0  0  0  0  0  0  0  0  0  0  0
  -26.8336    0.1674   34.2564 C   0  0  0  0  0  0  0  0  0  0  0  0
  -25.7503   -2.9216   29.2631 C   0  0  0  0  0  0  0  0  0  0  0  0
  -27.7247    1.3755   26.4486 C   0  0  0  0  0  0  0  0  0  0  0  0
  -28.8119    0.8629   26.5405 C   0  0  0  0  0  0  0  0  0  0  0  0
  -29.9772    1.4551   26.1222 C   0  0  0  0  0  0  0  0  0  0  0  0
  -27.6635    2.6903   25.8988 C   0  0  0  0  0  0  0  0  0  0  0  0
  -28.7405    3.4085   25.4488 C   0  0  0  0  0  0  0  0  0  0  0  0
  -29.9653    2.7475   25.5767 C   0  0  0  0  0  0  0  0  0  0  0  0
  -31.3461    0.8386   26.3092 C   0  0  0  0  0  0  0  0  0  0  0  0
  -32.4631    0.6470   25.2904 Cl  0  0  0  0  0  0  0  0  0  0  0  0
  -31.5213    0.3324   27.5385 F   0  0  0  0  0  0  0  0  0  0  0  0
  1  2  2  0
  2  3  1  0
  2  4  1  0
  4 10  1  0
  4 11  1  0
 11 12  2  0
 12 13  1  0
 10 15  1  0
  6 16  1  0
 16 18  2  0
 16 22  1  0
  5 23  1  0
 25 29  1  0
 29 30  1  0
 29 31  1  0
 13 14  1  0
 23 24  2  0
 24 25  1  0
 25 28  2  0
 28 27  1  0
 27 26  2  0
 26 23  1  0
 14 15  2  0
 15 17  1  0
 17 19  2  0
 19 20  1  0
 20 21  2  0
 21 14  1  0
  3  5  2  0
  5  7  1  0
  7  9  2  0
  9  8  1  0
  8  6  2  0
  6  3  1  0
M  END

$$$$
