No_966-gen_results/8p0m/2024-11-26-14-13-15/
     RDKit          3D

 24 26  0  0  0  0  0  0  0  0999 V2000
  -28.0162   -0.8135   28.8779 C   0  0  0  0  0  0  0  0  0  0  0  0
  -27.0636   -0.1189   28.6079 C   0  0  0  0  0  0  0  0  0  0  0  0
  -25.7647   -0.3897   29.0360 C   0  0  0  0  0  0  0  0  0  0  0  0
  -24.5517    0.4058   28.7646 C   0  0  0  0  0  0  0  0  0  0  0  0
  -24.6957    1.4480   27.7988 C   0  0  0  0  0  0  0  0  0  0  0  0
  -25.9755    1.7250   27.3077 C   0  0  0  0  0  0  0  0  0  0  0  0
  -27.0718    1.0134   27.6535 C   0  0  0  0  0  0  0  0  0  0  0  0
  -28.6247   -0.5797   30.0969 N   0  0  0  0  0  0  0  0  0  0  0  0
  -23.4943    2.1676   27.4757 C   0  0  0  0  0  0  0  0  0  0  0  0
  -23.0498    3.0061   28.3527 C   0  0  0  0  0  0  0  0  0  0  0  0
  -22.9644    2.0760   26.1303 C   0  0  0  0  0  0  0  0  0  0  0  0
  -28.2114    0.2680   30.8643 C   0  0  0  0  0  0  0  0  0  0  0  0
  -28.4635    0.7912   31.8912 C   0  0  0  0  0  0  0  0  0  0  0  0
  -28.2204    1.6602   32.5289 C   0  0  0  0  0  0  0  0  0  0  0  0
  -26.9974    2.4905   32.1298 C   0  0  0  0  0  0  0  0  0  0  0  0
  -26.4425    2.0026   30.9511 C   0  0  0  0  0  0  0  0  0  0  0  0
  -26.9717    1.0150   30.3552 C   0  0  0  0  0  0  0  0  0  0  0  0
  -26.2127    0.5682   29.5099 C   0  0  0  0  0  0  0  0  0  0  0  0
  -26.3862    1.5685   29.3820 F   0  0  0  0  0  0  0  0  0  0  0  0
  -24.9748    2.4238   30.9793 C   0  0  0  0  0  0  0  0  0  0  0  0
  -26.0621   -0.6378   30.6960 C   0  0  0  0  0  0  0  0  0  0  0  0
  -27.7666    1.9385   30.5082 C   0  0  0  0  0  0  0  0  0  0  0  0
  -28.6264    2.7710   29.9482 C   0  0  0  0  0  0  0  0  0  0  0  0
  -28.7651    2.8189   30.5708 Cl  0  0  0  0  0  0  0  0  0  0  0  0
  1  8  1  0
  5  9  1  0
  9 10  2  0
  9 11  1  0
 12 13  1  0
 14 15  1  0
 12 17  1  0
 16 17  1  0
  3 18  1  0
 17 18  1  0
 18 19  1  0
 16 20  1  0
 18 21  1  0
 17 22  1  0
 22 23  1  0
 23 24  1  0
  1  2  1  0
  8 12  1  0
 13 14  1  0
 15 16  1  0
  2  3  2  0
  3  4  1  0
  4  5  2  0
  5  6  1  0
  6  7  2  0
  7  2  1  0
M  END

$$$$
