No_93-gen_results/8p0m/2024-11-26-14-13-15/
     RDKit          3D

 35 39  0  0  0  0  0  0  0  0999 V2000
  -28.0162   -0.8135   28.8779 C   0  0  0  0  0  0  0  0  0  0  0  0
  -27.0636   -0.1190   28.6079 C   0  0  0  0  0  0  0  0  0  0  0  0
  -25.7923   -0.4302   29.0761 C   0  0  0  0  0  0  0  0  0  0  0  0
  -24.5456    0.3494   28.8225 C   0  0  0  0  0  0  0  0  0  0  0  0
  -24.6586    1.4196   27.8878 C   0  0  0  0  0  0  0  0  0  0  0  0
  -25.9471    1.6811   27.3792 C   0  0  0  0  0  0  0  0  0  0  0  0
  -27.0439    0.9739   27.6871 C   0  0  0  0  0  0  0  0  0  0  0  0
  -29.1882   -0.1472   29.0918 N   0  0  0  0  0  0  0  0  0  0  0  0
  -29.7585    0.5259   28.4632 C   0  0  0  0  0  0  0  0  0  0  0  0
  -31.1091    0.9118   28.8334 C   0  0  0  0  0  0  0  0  0  0  0  0
  -30.1030   -0.8208   30.0985 C   0  0  0  0  0  0  0  0  0  0  0  0
  -31.9370    1.8686   28.2853 C   0  0  0  0  0  0  0  0  0  0  0  0
  -31.2651   -0.0465   29.9165 C   0  0  0  0  0  0  0  0  0  0  0  0
  -23.4666    2.1670   27.5877 C   0  0  0  0  0  0  0  0  0  0  0  0
  -23.4991    3.1433   26.8059 N   0  0  0  0  0  0  0  0  0  0  0  0
  -22.2939    1.7580   27.9742 O   0  0  0  0  0  0  0  0  0  0  0  0
  -31.7535    2.2618   27.1559 N   0  0  0  0  0  0  0  0  0  0  0  0
  -32.9298    2.3341   29.0274 N   0  0  0  0  0  0  0  0  0  0  0  0
  -33.7791    3.2926   28.5269 C   0  0  0  0  0  0  0  0  0  0  0  0
  -32.5454    3.2470   26.5350 C   0  0  0  0  0  0  0  0  0  0  0  0
  -33.5655    3.7424   27.3086 N   0  0  0  0  0  0  0  0  0  0  0  0
  -30.1774   -2.2085   30.0505 C   0  0  0  0  0  0  0  0  0  0  0  0
  -29.4485   -0.3331   31.4921 C   0  0  0  0  0  0  0  0  0  0  0  0
  -30.9530   -2.8417   31.1730 C   0  0  0  0  0  0  0  0  0  0  0  0
  -30.2036   -2.6909   32.3904 C   0  0  0  0  0  0  0  0  0  0  0  0
  -30.1165   -1.1024   32.6610 C   0  0  0  0  0  0  0  0  0  0  0  0
  -31.7541   -3.9286   30.9468 C   0  0  0  0  0  0  0  0  0  0  0  0
  -32.6604   -3.9616   30.0886 C   0  0  0  0  0  0  0  0  0  0  0  0
  -33.4060   -5.0488   29.7469 C   0  0  0  0  0  0  0  0  0  0  0  0
  -31.5565   -5.1914   31.6245 C   0  0  0  0  0  0  0  0  0  0  0  0
  -30.3504   -5.3420   32.5422 C   0  0  0  0  0  0  0  0  0  0  0  0
  -30.1632   -3.7429   33.3621 C   0  0  0  0  0  0  0  0  0  0  0  0
  -34.3688   -4.9780   28.7877 C   0  0  0  0  0  0  0  0  0  0  0  0
  -34.5542   -3.8085   28.0906 C   0  0  0  0  0  0  0  0  0  0  0  0
  -33.8276   -2.6559   28.3545 C   0  0  0  0  0  0  0  0  0  0  0  0
  1  2  1  0
  1  8  1  0
  8  9  1  0
  9 10  2  0
  8 11  1  0
 10 12  1  0
 10 13  1  0
 11 13  1  0
  5 14  1  0
 14 15  1  0
 14 16  2  0
 11 22  1  0
 11 23  1  0
 22 24  1  0
 24 25  1  0
 23 26  1  0
 25 26  1  0
 24 27  1  0
 27 28  1  0
 28 29  2  3
 27 30  1  0
 30 31  1  0
 25 32  1  0
 31 32  1  0
 29 33  1  0
 33 34  2  3
 34 35  1  0
  2  3  2  0
  3  4  1  0
  4  5  2  0
  5  6  1  0
  6  7  2  0
  7  2  1  0
 12 17  2  0
 17 20  1  0
 20 21  2  0
 21 19  1  0
 19 18  2  0
 18 12  1  0
M  END

$$$$
