No_946-gen_results/8p0m/2024-11-26-14-13-15/
     RDKit          3D

 18 19  0  0  0  0  0  0  0  0999 V2000
  -28.1493   -0.8198   28.9079 Cl  0  0  0  0  0  0  0  0  0  0  0  0
  -26.9116   -0.0797   28.9452 C   0  0  0  0  0  0  0  0  0  0  0  0
  -26.0490   -0.0718   27.8591 C   0  0  0  0  0  0  0  0  0  0  0  0
  -25.2289    1.0128   27.6200 C   0  0  0  0  0  0  0  0  0  0  0  0
  -24.7459    1.8002   28.6916 C   0  0  0  0  0  0  0  0  0  0  0  0
  -25.4578    1.6617   29.8627 C   0  0  0  0  0  0  0  0  0  0  0  0
  -26.4794    0.7961   30.0040 C   0  0  0  0  0  0  0  0  0  0  0  0
  -24.2162    1.0872   26.1981 Cl  0  0  0  0  0  0  0  0  0  0  0  0
  -27.2221    0.7617   31.3151 C   0  0  0  0  0  0  0  0  0  0  0  0
  -27.4339   -0.0610   31.9160 N   0  0  0  0  0  0  0  0  0  0  0  0
  -28.2147   -0.1609   33.0591 C   0  0  0  0  0  0  0  0  0  0  0  0
  -27.7616    2.0893   31.6918 C   0  0  0  0  0  0  0  0  0  0  0  0
  -28.4912    2.2013   32.8562 C   0  0  0  0  0  0  0  0  0  0  0  0
  -28.4636   -1.4268   33.7776 C   0  0  0  0  0  0  0  0  0  0  0  0
  -28.6903    0.9869   33.5854 C   0  0  0  0  0  0  0  0  0  0  0  0
  -29.8655   -1.5594   33.9940 F   0  0  0  0  0  0  0  0  0  0  0  0
  -27.8129   -1.4313   34.9162 F   0  0  0  0  0  0  0  0  0  0  0  0
  -28.1175   -2.4461   32.9967 F   0  0  0  0  0  0  0  0  0  0  0  0
  1  2  1  0
  4  8  1  0
  7  9  1  0
 11 14  1  0
 14 16  1  0
 14 17  1  0
 14 18  1  0
  2  3  2  0
  3  4  1  0
  4  5  2  0
  5  6  1  0
  6  7  2  0
  7  2  1  0
  9 10  2  0
 10 11  1  0
 11 15  2  0
 15 13  1  0
 13 12  2  0
 12  9  1  0
M  END

$$$$
