No_98-gen_results/8p0m/2024-11-26-14-13-15/
     RDKit          3D

 30 34  0  0  0  0  0  0  0  0999 V2000
  -28.0162   -0.8135   28.8779 C   0  0  0  0  0  0  0  0  0  0  0  0
  -27.0636   -0.1189   28.6079 C   0  0  0  0  0  0  0  0  0  0  0  0
  -26.9716    0.7139   27.5060 C   0  0  0  0  0  0  0  0  0  0  0  0
  -28.1053    0.7744   26.6421 C   0  0  0  0  0  0  0  0  0  0  0  0
  -29.2041    0.1179   27.0477 C   0  0  0  0  0  0  0  0  0  0  0  0
  -29.2127   -0.6088   28.1281 C   0  0  0  0  0  0  0  0  0  0  0  0
  -25.7106    1.4519   27.1380 C   0  0  0  0  0  0  0  0  0  0  0  0
  -24.6052    0.9253   27.6902 C   0  0  0  0  0  0  0  0  0  0  0  0
  -24.6227    0.0600   28.8225 C   0  0  0  0  0  0  0  0  0  0  0  0
  -25.7269   -0.4734   29.2409 C   0  0  0  0  0  0  0  0  0  0  0  0
  -23.2726    1.6786   27.4284 C   0  0  0  0  0  0  0  0  0  0  0  0
  -23.2122    2.7616   26.7043 N   0  0  0  0  0  0  0  0  0  0  0  0
  -22.0280    1.2590   28.0149 C   0  0  0  0  0  0  0  0  0  0  0  0
  -21.9176    0.3380   28.8994 N   0  0  0  0  0  0  0  0  0  0  0  0
  -23.1635   -0.3622   29.2748 C   0  0  0  0  0  0  0  0  0  0  0  0
  -25.7038   -1.2627   30.2734 O   0  0  0  0  0  0  0  0  0  0  0  0
  -30.4451    0.2875   26.2364 C   0  0  0  0  0  0  0  0  0  0  0  0
  -31.4870    0.2225   26.5998 O   0  0  0  0  0  0  0  0  0  0  0  0
  -30.2235    0.1698   24.8636 O   0  0  0  0  0  0  0  0  0  0  0  0
  -20.9196    1.8463   27.7187 O   0  0  0  0  0  0  0  0  0  0  0  0
  -25.7841    2.4528   26.1055 C   0  0  0  0  0  0  0  0  0  0  0  0
  -24.4068    3.1065   25.9296 C   0  0  0  0  0  0  0  0  0  0  0  0
  -28.1866   -1.6373   29.9305 O   0  0  0  0  0  0  0  0  0  0  0  0
  -29.2030   -1.5395   30.8411 C   0  0  0  0  0  0  0  0  0  0  0  0
  -29.0215   -0.7442   31.8343 C   0  0  0  0  0  0  0  0  0  0  0  0
  -30.1353   -0.3797   32.5849 C   0  0  0  0  0  0  0  0  0  0  0  0
  -30.0737    0.6507   33.5466 C   0  0  0  0  0  0  0  0  0  0  0  0
  -28.8048    1.1505   33.9292 C   0  0  0  0  0  0  0  0  0  0  0  0
  -27.6498    0.7677   33.1810 C   0  0  0  0  0  0  0  0  0  0  0  0
  -27.8073   -0.1538   32.1516 C   0  0  0  0  0  0  0  0  0  0  0  0
  3  7  1  0
  8  9  1  0
  2 10  1  0
  9 10  1  0
 11 13  1  0
 13 14  1  0
  9 15  1  0
 10 16  2  0
  5 17  1  0
 17 18  1  0
 17 19  2  0
 13 20  2  0
  1 23  1  0
 23 24  1  0
 24 25  1  0
 15 14  1  0
  1  2  2  0
  2  3  1  0
  3  4  2  0
  4  5  1  0
  5  6  2  0
  6  1  1  0
 25 26  2  0
 26 27  1  0
 27 28  2  0
 28 29  1  0
 29 30  2  0
 30 25  1  0
  7 21  2  0
 21 22  1  0
 22 12  2  0
 12 11  1  0
 11  8  2  0
  8  7  1  0
M  END

$$$$
