No_944-gen_results/8p0m/2024-11-26-14-13-15/
     RDKit          3D

 17 18  0  0  0  0  0  0  0  0999 V2000
  -28.0162   -0.8135   28.8779 C   0  0  0  0  0  0  0  0  0  0  0  0
  -27.0636   -0.1189   28.6079 C   0  0  0  0  0  0  0  0  0  0  0  0
  -26.9716    0.7139   27.5060 C   0  0  0  0  0  0  0  0  0  0  0  0
  -28.1053    0.7744   26.6421 C   0  0  0  0  0  0  0  0  0  0  0  0
  -29.2008    0.1044   27.0527 C   0  0  0  0  0  0  0  0  0  0  0  0
  -28.0219   -1.5899   30.0879 C   0  0  0  0  0  0  0  0  0  0  0  0
  -29.1640   -0.6394   28.1484 C   0  0  0  0  0  0  0  0  0  0  0  0
  -27.1432   -2.4848   30.1529 F   0  0  0  0  0  0  0  0  0  0  0  0
  -29.2320   -2.2818   30.1926 F   0  0  0  0  0  0  0  0  0  0  0  0
  -27.9407   -0.9114   31.2448 F   0  0  0  0  0  0  0  0  0  0  0  0
  -30.5777    0.2060   26.0379 Cl  0  0  0  0  0  0  0  0  0  0  0  0
  -25.6913    1.4152   27.1370 C   0  0  0  0  0  0  0  0  0  0  0  0
  -25.4357    2.0040   26.1463 N   0  0  0  0  0  0  0  0  0  0  0  0
  -24.1469    2.4959   25.8181 C   0  0  0  0  0  0  0  0  0  0  0  0
  -23.1276    2.2737   26.8784 C   0  0  0  0  0  0  0  0  0  0  0  0
  -24.4456    1.2363   27.9821 C   0  0  0  0  0  0  0  0  0  0  0  0
  -23.3421    1.7331   27.8450 C   0  0  0  0  0  0  0  0  0  0  0  0
  1  6  1  0
  6  8  1  0
  6  9  1  0
  6 10  1  0
  5 11  1  0
  3 12  1  0
 12 13  2  0
 13 14  1  0
 14 15  2  0
 15 17  1  0
 17 16  2  0
 16 12  1  0
  1  2  2  0
  2  3  1  0
  3  4  2  0
  4  5  1  0
  5  7  2  0
  7  1  1  0
M  END

$$$$
