No_980-gen_results/8p0m/2024-11-26-14-13-15/
     RDKit          3D

 11 11  0  0  0  0  0  0  0  0999 V2000
  -28.0162   -0.8135   28.8779 C   0  0  0  0  0  0  0  0  0  0  0  0
  -28.4690   -0.7850   29.8287 C   0  0  0  0  0  0  0  0  0  0  0  0
  -27.0871    0.2903   28.6377 C   0  0  0  0  0  0  0  0  0  0  0  0
  -26.8317    1.2487   29.5869 C   0  0  0  0  0  0  0  0  0  0  0  0
  -28.3292   -0.0397   30.8362 C   0  0  0  0  0  0  0  0  0  0  0  0
  -27.4945    1.0625   30.7933 C   0  0  0  0  0  0  0  0  0  0  0  0
  -26.3268    0.4372   27.3447 C   0  0  0  0  0  0  0  0  0  0  0  0
  -25.4303    0.8264   26.9028 C   0  0  0  0  0  0  0  0  0  0  0  0
  -25.0343    0.8259   25.5129 C   0  0  0  0  0  0  0  0  0  0  0  0
  -25.8261    0.0797   24.6222 C   0  0  0  0  0  0  0  0  0  0  0  0
  -26.9493   -0.4182   25.1033 C   0  0  0  0  0  0  0  0  0  0  0  0
  3  7  1  0
  7  8  3  0
  8  9  1  0
  9 10  2  3
 10 11  1  0
  1  2  2  0
  2  5  1  0
  5  6  2  0
  6  4  1  0
  4  3  2  0
  3  1  1  0
M  END

$$$$
