No_960-gen_results/8p0m/2024-11-26-14-13-15/
     RDKit          3D

 16 16  0  0  0  0  0  0  0  0999 V2000
  -28.0162   -0.8135   28.8779 C   0  0  0  0  0  0  0  0  0  0  0  0
  -27.0636   -0.1189   28.6079 C   0  0  0  0  0  0  0  0  0  0  0  0
  -26.9287    1.1713   29.0083 C   0  0  0  0  0  0  0  0  0  0  0  0
  -25.7702    2.0341   28.6884 C   0  0  0  0  0  0  0  0  0  0  0  0
  -24.7141    1.4431   27.9188 C   0  0  0  0  0  0  0  0  0  0  0  0
  -24.8590    0.0783   27.5836 C   0  0  0  0  0  0  0  0  0  0  0  0
  -25.9647   -0.6606   27.9164 C   0  0  0  0  0  0  0  0  0  0  0  0
  -27.8152   -2.0223   29.4811 F   0  0  0  0  0  0  0  0  0  0  0  0
  -28.8889   -0.2051   29.8349 F   0  0  0  0  0  0  0  0  0  0  0  0
  -23.5312    2.1448   27.5547 C   0  0  0  0  0  0  0  0  0  0  0  0
  -22.4528    1.6477   27.0992 N   0  0  0  0  0  0  0  0  0  0  0  0
  -23.7553    3.3980   27.2208 O   0  0  0  0  0  0  0  0  0  0  0  0
  -28.8937   -0.8635   27.8206 F   0  0  0  0  0  0  0  0  0  0  0  0
  -21.8062    0.6284   27.9152 C   0  0  0  0  0  0  0  0  0  0  0  0
  -20.4405    0.8667   28.3463 C   0  0  0  0  0  0  0  0  0  0  0  0
  -20.1277   -0.3236   29.0191 N   0  0  0  0  0  0  0  0  0  0  0  0
  1  2  1  0
  1  8  1  0
  1  9  1  0
  5 10  1  0
 10 11  1  0
 10 12  2  0
  1 13  1  0
 11 14  1  0
 14 15  2  3
 15 16  1  0
  2  3  2  0
  3  4  1  0
  4  5  2  0
  5  6  1  0
  6  7  2  0
  7  2  1  0
M  END

$$$$
