No_931-gen_results/8p0m/2024-11-26-14-13-15/
     RDKit          3D

 35 39  0  0  0  0  0  0  0  0999 V2000
  -28.0544   -1.0498   28.7246 N   0  0  0  0  0  0  0  0  0  0  0  0
  -28.6544   -0.5669   29.5076 C   0  0  0  0  0  0  0  0  0  0  0  0
  -28.1376    0.1595   30.5233 C   0  0  0  0  0  0  0  0  0  0  0  0
  -26.9903    0.4867   30.5289 C   0  0  0  0  0  0  0  0  0  0  0  0
  -26.6486   -0.7802   28.6829 C   0  0  0  0  0  0  0  0  0  0  0  0
  -26.0398   -0.0024   29.6129 C   0  0  0  0  0  0  0  0  0  0  0  0
  -29.9742   -1.0118   29.3490 N   0  0  0  0  0  0  0  0  0  0  0  0
  -30.9416   -0.2918   28.7234 C   0  0  0  0  0  0  0  0  0  0  0  0
  -32.1070   -0.9653   28.3786 C   0  0  0  0  0  0  0  0  0  0  0  0
  -30.6741    0.8386   28.3227 O   0  0  0  0  0  0  0  0  0  0  0  0
  -32.2329   -1.4496   27.2516 O   0  0  0  0  0  0  0  0  0  0  0  0
  -33.0858   -1.1768   29.2845 N   0  0  0  0  0  0  0  0  0  0  0  0
  -33.0195   -0.6655   30.6382 C   0  0  0  0  0  0  0  0  0  0  0  0
  -32.9590    0.5606   30.7967 C   0  0  0  0  0  0  0  0  0  0  0  0
  -32.9502    1.1307   32.1540 C   0  0  0  0  0  0  0  0  0  0  0  0
  -33.1595    0.1876   33.1941 C   0  0  0  0  0  0  0  0  0  0  0  0
  -33.2287   -1.6468   31.6368 C   0  0  0  0  0  0  0  0  0  0  0  0
  -33.2739   -1.1252   32.9381 C   0  0  0  0  0  0  0  0  0  0  0  0
  -24.6093    0.2420   29.6079 C   0  0  0  0  0  0  0  0  0  0  0  0
  -24.1290    1.5086   29.8493 C   0  0  0  0  0  0  0  0  0  0  0  0
  -23.6718   -0.7787   29.4578 C   0  0  0  0  0  0  0  0  0  0  0  0
  -22.2974   -0.4649   29.3136 C   0  0  0  0  0  0  0  0  0  0  0  0
  -22.7416    1.8485   29.7396 C   0  0  0  0  0  0  0  0  0  0  0  0
  -21.8314    0.7956   29.4800 C   0  0  0  0  0  0  0  0  0  0  0  0
  -29.1393    0.7569   31.6426 C   0  0  0  0  0  0  0  0  0  0  0  0
  -28.8362    0.9940   32.7411 C   0  0  0  0  0  0  0  0  0  0  0  0
  -27.5966    0.5539   33.2580 C   0  0  0  0  0  0  0  0  0  0  0  0
  -27.2289    0.7952   34.5626 C   0  0  0  0  0  0  0  0  0  0  0  0
  -25.9600    0.3456   34.8731 C   0  0  0  0  0  0  0  0  0  0  0  0
  -25.0431   -0.1879   33.9682 C   0  0  0  0  0  0  0  0  0  0  0  0
  -25.4668   -0.3381   32.6787 C   0  0  0  0  0  0  0  0  0  0  0  0
  -26.7200    0.0227   32.3336 C   0  0  0  0  0  0  0  0  0  0  0  0
  -24.9503    2.5684   30.1219 O   0  0  0  0  0  0  0  0  0  0  0  0
  -25.1198    3.1471   31.2133 C   0  0  0  0  0  0  0  0  0  0  0  0
  -26.0681    4.3028   31.2875 C   0  0  0  0  0  0  0  0  0  0  0  0
  2  7  1  0
  7  8  1  0
  8  9  1  0
  8 10  2  0
  9 11  2  0
  9 12  1  0
 12 13  1  0
  6 19  1  0
 20 33  1  0
 33 34  1  0
 34 35  1  0
  4 32  2  0
 27 26  2  0
 26 25  1  0
 25  3  2  0
  1  2  2  0
  2  3  1  0
  3  4  1  0
  4  6  1  0
  6  5  2  0
  5  1  1  0
 19 20  2  0
 20 23  1  0
 23 24  2  0
 24 22  1  0
 22 21  2  0
 21 19  1  0
 27 28  1  0
 28 29  2  0
 29 30  1  0
 30 31  2  0
 31 32  1  0
 32 27  1  0
 13 14  2  0
 14 15  1  0
 15 16  2  0
 16 18  1  0
 18 17  2  0
 17 13  1  0
M  END

$$$$
