No_990-gen_results/8p0m/2024-11-26-14-13-15/
     RDKit          3D

 13 13  0  0  0  0  0  0  0  0999 V2000
  -28.0727   -1.2542   28.5316 F   0  0  0  0  0  0  0  0  0  0  0  0
  -27.3591   -0.3792   28.7224 C   0  0  0  0  0  0  0  0  0  0  0  0
  -27.7014    0.7608   29.1249 C   0  0  0  0  0  0  0  0  0  0  0  0
  -25.8844   -0.6918   28.4374 C   0  0  0  0  0  0  0  0  0  0  0  0
  -24.9212    0.3779   28.6013 C   0  0  0  0  0  0  0  0  0  0  0  0
  -26.6962    1.8778   29.2780 C   0  0  0  0  0  0  0  0  0  0  0  0
  -25.3214    1.6174   29.0139 C   0  0  0  0  0  0  0  0  0  0  0  0
  -23.5101    0.1538   28.3673 C   0  0  0  0  0  0  0  0  0  0  0  0
  -22.6270    0.3312   29.1133 C   0  0  0  0  0  0  0  0  0  0  0  0
  -21.3896    0.4090   29.2737 C   0  0  0  0  0  0  0  0  0  0  0  0
  -23.1544    0.1337   30.5692 C   0  0  0  0  0  0  0  0  0  0  0  0
  -20.6478   -0.4967   28.8005 C   0  0  0  0  0  0  0  0  0  0  0  0
  -21.0929   -1.6764   28.8219 O   0  0  0  0  0  0  0  0  0  0  0  0
  1  2  1  0
  5  8  1  0
  8  9  2  3
  9 10  1  0
  9 11  1  0
 10 12  1  0
 12 13  1  0
  2  3  2  0
  3  6  1  0
  6  7  2  0
  7  5  1  0
  5  4  2  0
  4  2  1  0
M  END

$$$$
