No_9-gen_results/8p0m/2024-11-26-14-13-15/
     RDKit          3D

 30 34  0  0  0  0  0  0  0  0999 V2000
  -28.0162   -0.8135   28.8779 C   0  0  0  0  0  0  0  0  0  0  0  0
  -27.0636   -0.1189   28.6079 C   0  0  0  0  0  0  0  0  0  0  0  0
  -26.9716    0.7139   27.5060 C   0  0  0  0  0  0  0  0  0  0  0  0
  -28.1053    0.7744   26.6421 C   0  0  0  0  0  0  0  0  0  0  0  0
  -29.2008    0.1044   27.0527 C   0  0  0  0  0  0  0  0  0  0  0  0
  -29.2096   -0.6029   28.1853 C   0  0  0  0  0  0  0  0  0  0  0  0
  -30.3702    0.2264   26.1604 C   0  0  0  0  0  0  0  0  0  0  0  0
  -31.2210   -0.4630   26.3096 O   0  0  0  0  0  0  0  0  0  0  0  0
  -30.3688    1.0652   25.1324 O   0  0  0  0  0  0  0  0  0  0  0  0
  -25.7916   -0.2131   29.3834 N   0  0  0  0  0  0  0  0  0  0  0  0
  -24.6660   -0.6320   28.8965 C   0  0  0  0  0  0  0  0  0  0  0  0
  -23.4944   -0.6984   29.6771 C   0  0  0  0  0  0  0  0  0  0  0  0
  -23.8891   -0.3130   30.9399 C   0  0  0  0  0  0  0  0  0  0  0  0
  -25.5003    0.0168   30.7864 C   0  0  0  0  0  0  0  0  0  0  0  0
  -26.3054    0.4768   31.7733 C   0  0  0  0  0  0  0  0  0  0  0  0
  -26.1402    1.7386   32.1955 C   0  0  0  0  0  0  0  0  0  0  0  0
  -25.4822    2.7572   31.5796 C   0  0  0  0  0  0  0  0  0  0  0  0
  -25.3269    4.0896   32.0857 C   0  0  0  0  0  0  0  0  0  0  0  0
  -25.8204    4.4306   33.3140 C   0  0  0  0  0  0  0  0  0  0  0  0
  -26.5845    3.4945   34.0036 C   0  0  0  0  0  0  0  0  0  0  0  0
  -26.7088    2.2110   33.5214 C   0  0  0  0  0  0  0  0  0  0  0  0
  -27.2613   -0.4425   32.3221 C   0  0  0  0  0  0  0  0  0  0  0  0
  -28.5550   -0.4570   32.1364 C   0  0  0  0  0  0  0  0  0  0  0  0
  -29.3419   -0.4391   33.0502 C   0  0  0  0  0  0  0  0  0  0  0  0
  -29.0148   -1.1076   34.2952 C   0  0  0  0  0  0  0  0  0  0  0  0
  -27.6736   -1.0939   34.6364 C   0  0  0  0  0  0  0  0  0  0  0  0
  -26.8362   -0.1847   33.9117 C   0  0  0  0  0  0  0  0  0  0  0  0
  -27.1525    1.0260   34.3598 C   0  0  0  0  0  0  0  0  0  0  0  0
  -25.4118   -0.7289   34.1802 C   0  0  0  0  0  0  0  0  0  0  0  0
  -27.4356   -1.1080   36.0157 O   0  0  0  0  0  0  0  0  0  0  0  0
  5  7  1  0
  7  8  1  0
  7  9  2  0
  2 10  1  0
 10 11  1  0
 11 12  2  0
 12 13  1  0
 10 14  1  0
 13 14  1  0
 14 15  1  0
 15 16  1  0
 15 22  1  0
 22 23  1  0
 24 25  1  0
 22 27  1  0
 26 27  1  0
 21 28  1  0
 27 28  1  0
 27 29  1  0
 26 30  1  0
 23 24  1  0
 25 26  1  0
  1  2  2  0
  2  3  1  0
  3  4  2  0
  4  5  1  0
  5  6  2  0
  6  1  1  0
 16 17  2  0
 17 18  1  0
 18 19  2  0
 19 20  1  0
 20 21  2  0
 21 16  1  0
M  END

$$$$
