No_92-gen_results/8p0m/2024-11-26-14-13-15/
     RDKit          3D

 30 33  0  0  0  0  0  0  0  0999 V2000
  -28.0162   -0.8135   28.8779 C   0  0  0  0  0  0  0  0  0  0  0  0
  -27.0636   -0.1190   28.6079 C   0  0  0  0  0  0  0  0  0  0  0  0
  -25.7647   -0.3897   29.0360 C   0  0  0  0  0  0  0  0  0  0  0  0
  -25.5296   -1.5302   29.9014 C   0  0  0  0  0  0  0  0  0  0  0  0
  -26.6577   -2.2915   30.2035 C   0  0  0  0  0  0  0  0  0  0  0  0
  -27.8548   -1.9555   29.7630 C   0  0  0  0  0  0  0  0  0  0  0  0
  -24.5441    0.4126   28.7379 C   0  0  0  0  0  0  0  0  0  0  0  0
  -23.3231    0.0476   29.0499 C   0  0  0  0  0  0  0  0  0  0  0  0
  -22.1997    0.8411   28.7194 C   0  0  0  0  0  0  0  0  0  0  0  0
  -22.3632    1.8394   27.7172 C   0  0  0  0  0  0  0  0  0  0  0  0
  -24.6043    1.5165   27.8119 C   0  0  0  0  0  0  0  0  0  0  0  0
  -23.5582    2.1898   27.3588 C   0  0  0  0  0  0  0  0  0  0  0  0
  -29.0212   -2.7832   30.1825 C   0  0  0  0  0  0  0  0  0  0  0  0
  -30.1633   -2.3284   30.1920 N   0  0  0  0  0  0  0  0  0  0  0  0
  -28.8042   -3.9744   30.6053 O   0  0  0  0  0  0  0  0  0  0  0  0
  -31.3670   -3.1036   30.5686 C   0  0  0  0  0  0  0  0  0  0  0  0
  -32.3894   -2.5119   30.8292 C   0  0  0  0  0  0  0  0  0  0  0  0
  -33.1665   -2.8045   31.7379 C   0  0  0  0  0  0  0  0  0  0  0  0
  -34.3179   -2.0185   32.2101 C   0  0  0  0  0  0  0  0  0  0  0  0
  -34.6285   -0.9020   31.4329 C   0  0  0  0  0  0  0  0  0  0  0  0
  -33.8506   -0.5425   30.3847 C   0  0  0  0  0  0  0  0  0  0  0  0
  -32.6910   -1.2315   30.1036 C   0  0  0  0  0  0  0  0  0  0  0  0
  -34.1156    0.7298   29.6288 C   0  0  0  0  0  0  0  0  0  0  0  0
  -34.5407    1.7481   30.1376 C   0  0  0  0  0  0  0  0  0  0  0  0
  -33.7709    0.6211   28.2057 C   0  0  0  0  0  0  0  0  0  0  0  0
  -34.8355    2.9076   29.3316 C   0  0  0  0  0  0  0  0  0  0  0  0
  -34.0657    1.7915   27.4445 C   0  0  0  0  0  0  0  0  0  0  0  0
  -34.5593    2.8903   28.0142 C   0  0  0  0  0  0  0  0  0  0  0  0
  -30.9512   -3.9493   31.4534 F   0  0  0  0  0  0  0  0  0  0  0  0
  -31.6751   -4.0236   29.3243 C   0  0  0  0  0  0  0  0  0  0  0  0
  3  7  1  0
  6 13  1  0
 13 14  1  0
 13 15  2  0
 14 16  1  0
 16 17  1  0
 21 23  1  0
 16 29  1  0
 16 30  1  0
  7  8  2  0
  8  9  1  0
  9 10  2  0
 10 12  1  0
 12 11  2  0
 11  7  1  0
  1  2  2  0
  2  3  1  0
  3  4  2  0
  4  5  1  0
  5  6  2  0
  6  1  1  0
 17 18  2  0
 18 19  1  0
 19 20  2  0
 20 21  1  0
 21 22  2  0
 22 17  1  0
 23 24  2  0
 24 26  1  0
 26 28  2  0
 28 27  1  0
 27 25  2  0
 25 23  1  0
M  END

$$$$
