No_914-gen_results/8p0m/2024-11-26-14-13-15/
     RDKit          3D

 28 28  0  0  0  0  0  0  0  0999 V2000
  -28.0162   -0.8135   28.8779 C   0  0  0  0  0  0  0  0  0  0  0  0
  -27.0636   -0.1189   28.6079 C   0  0  0  0  0  0  0  0  0  0  0  0
  -26.8756    1.1325   28.9134 C   0  0  0  0  0  0  0  0  0  0  0  0
  -25.6883    1.9515   28.5672 C   0  0  0  0  0  0  0  0  0  0  0  0
  -24.6394    1.2834   27.8753 C   0  0  0  0  0  0  0  0  0  0  0  0
  -24.8068   -0.0513   27.6040 C   0  0  0  0  0  0  0  0  0  0  0  0
  -25.9019   -0.7670   27.9511 C   0  0  0  0  0  0  0  0  0  0  0  0
  -29.2125   -0.1153   29.1222 C   0  0  0  0  0  0  0  0  0  0  0  0
  -30.3508   -0.8179   29.5782 C   0  0  0  0  0  0  0  0  0  0  0  0
  -23.4184    1.9805   27.5117 C   0  0  0  0  0  0  0  0  0  0  0  0
  -22.0734    2.0065   28.3566 P   0  0  0  0  0  0  0  0  0  0  0  0
  -21.9666    0.4470   28.7757 O   0  0  0  0  0  0  0  0  0  0  0  0
  -20.9189    2.1209   27.4521 O   0  0  0  0  0  0  0  0  0  0  0  0
  -22.2003    2.7582   29.5346 O   0  0  0  0  0  0  0  0  0  0  0  0
  -31.4059   -0.7446   29.0072 O   0  0  0  0  0  0  0  0  0  0  0  0
  -30.1653   -1.9473   30.3350 O   0  0  0  0  0  0  0  0  0  0  0  0
  -29.6012    0.7415   28.1049 O   0  0  0  0  0  0  0  0  0  0  0  0
  -25.5964    3.3720   28.9180 C   0  0  0  0  0  0  0  0  0  0  0  0
  -25.8380    4.1293   28.0432 O   0  0  0  0  0  0  0  0  0  0  0  0
  -25.5076    3.6607   30.1692 O   0  0  0  0  0  0  0  0  0  0  0  0
  -25.9062    4.8400   30.6826 C   0  0  0  0  0  0  0  0  0  0  0  0
  -25.4183    5.0732   31.9814 C   0  0  0  0  0  0  0  0  0  0  0  0
  -26.1833    5.5359   32.7900 O   0  0  0  0  0  0  0  0  0  0  0  0
  -24.2246    4.6599   32.3567 O   0  0  0  0  0  0  0  0  0  0  0  0
  -29.4671    2.0646   28.1322 C   0  0  0  0  0  0  0  0  0  0  0  0
  -29.4374    2.7785   26.9187 C   0  0  0  0  0  0  0  0  0  0  0  0
  -29.2922    2.1527   25.8105 C   0  0  0  0  0  0  0  0  0  0  0  0
  -29.1110    2.9076   24.6206 C   0  0  0  0  0  0  0  0  0  0  0  0
  1  8  1  0
  8  9  1  0
  5 10  1  0
 10 11  1  0
 11 12  1  0
 11 13  2  0
 11 14  1  0
  9 15  2  0
  9 16  1  0
  8 17  1  0
  4 18  1  0
 18 19  2  0
 18 20  1  0
 20 21  1  0
 21 22  1  0
 22 23  2  0
 22 24  1  0
 17 25  1  0
 25 26  2  3
 26 27  1  0
 27 28  2  0
  1  2  1  0
  2  3  2  0
  3  4  1  0
  4  5  2  0
  5  6  1  0
  6  7  2  0
  7  2  1  0
M  END

$$$$
