No_933-gen_results/8p0m/2024-11-26-14-13-15/
     RDKit          3D

 14 15  0  0  0  0  0  0  0  0999 V2000
  -28.0162   -0.8135   28.8779 C   0  0  0  0  0  0  0  0  0  0  0  0
  -27.0636   -0.1189   28.6079 C   0  0  0  0  0  0  0  0  0  0  0  0
  -27.0010    0.6913   27.4910 C   0  0  0  0  0  0  0  0  0  0  0  0
  -28.1373    0.7363   26.6350 C   0  0  0  0  0  0  0  0  0  0  0  0
  -29.2360    0.0765   27.0690 C   0  0  0  0  0  0  0  0  0  0  0  0
  -29.2177   -0.6429   28.1747 C   0  0  0  0  0  0  0  0  0  0  0  0
  -28.0326   -1.5744   30.0419 O   0  0  0  0  0  0  0  0  0  0  0  0
  -30.6143    0.1621   26.0733 Cl  0  0  0  0  0  0  0  0  0  0  0  0
  -25.6993   -0.1972   29.4279 C   0  0  0  0  0  0  0  0  0  0  0  0
  -25.2702    0.4111   30.1768 C   0  0  0  0  0  0  0  0  0  0  0  0
  -24.2173    0.7359   30.6496 C   0  0  0  0  0  0  0  0  0  0  0  0
  -23.1544    0.4597   30.2256 C   0  0  0  0  0  0  0  0  0  0  0  0
  -23.2337   -0.6055   29.1631 C   0  0  0  0  0  0  0  0  0  0  0  0
  -24.3849   -0.4496   28.2609 C   0  0  0  0  0  0  0  0  0  0  0  0
  1  7  1  0
  5  8  1  0
  2  9  1  0
  1  2  2  0
  2  3  1  0
  3  4  2  0
  4  5  1  0
  5  6  2  0
  6  1  1  0
  9 10  2  0
 10 11  1  0
 11 12  2  0
 12 13  1  0
 13 14  2  0
 14  9  1  0
M  END

$$$$
