No_940-gen_results/8p0m/2024-11-26-14-13-15/
     RDKit          3D

 16 18  0  0  0  0  0  0  0  0999 V2000
  -28.0162   -0.8135   28.8779 C   0  0  0  0  0  0  0  0  0  0  0  0
  -28.4690   -0.7850   29.8287 C   0  0  0  0  0  0  0  0  0  0  0  0
  -27.1356    0.2359   28.5352 C   0  0  0  0  0  0  0  0  0  0  0  0
  -26.3351    0.2900   27.2835 C   0  0  0  0  0  0  0  0  0  0  0  0
  -28.3692    0.1957   30.9236 C   0  0  0  0  0  0  0  0  0  0  0  0
  -27.5158    1.2655   30.6540 C   0  0  0  0  0  0  0  0  0  0  0  0
  -26.8411    1.2942   29.4761 C   0  0  0  0  0  0  0  0  0  0  0  0
  -25.3615    0.7752   26.9671 C   0  0  0  0  0  0  0  0  0  0  0  0
  -24.8305    1.7671   28.0166 C   0  0  0  0  0  0  0  0  0  0  0  0
  -25.5668    2.0017   29.2019 C   0  0  0  0  0  0  0  0  0  0  0  0
  -23.6197    2.6089   27.6649 C   0  0  0  0  0  0  0  0  0  0  0  0
  -22.8788    3.0132   28.8687 Br  0  0  0  0  0  0  0  0  0  0  0  0
  -23.1882    2.6115   26.3045 C   0  0  0  0  0  0  0  0  0  0  0  0
  -23.8286    1.8223   25.2533 C   0  0  0  0  0  0  0  0  0  0  0  0
  -24.8527    0.9927   25.6261 C   0  0  0  0  0  0  0  0  0  0  0  0
  -25.3592    0.1819   24.5999 C   0  0  0  0  0  0  0  0  0  0  0  0
 11 12  1  0
 15 16  1  0
  1  2  2  0
  2  5  1  0
  5  6  2  0
  6  7  1  0
  3  1  1  0
  9 11  2  0
 11 13  1  0
 13 14  2  0
 14 15  1  0
 15  8  2  0
  3  4  2  0
  4  8  1  0
  8  9  1  0
  9 10  1  0
 10  7  2  0
  7  3  1  0
M  END

$$$$
