No_911-gen_results/8p0m/2024-11-26-14-13-15/
     RDKit          3D

 14 14  0  0  0  0  0  0  0  0999 V2000
  -28.0162   -0.8135   28.8779 C   0  0  0  0  0  0  0  0  0  0  0  0
  -27.0636   -0.1190   28.6079 C   0  0  0  0  0  0  0  0  0  0  0  0
  -27.0010    0.6913   27.4910 C   0  0  0  0  0  0  0  0  0  0  0  0
  -28.1373    0.7363   26.6350 C   0  0  0  0  0  0  0  0  0  0  0  0
  -29.2360    0.0765   27.0690 C   0  0  0  0  0  0  0  0  0  0  0  0
  -30.3815    0.2048   26.2662 C   0  0  0  0  0  0  0  0  0  0  0  0
  -29.1803   -0.6422   28.1830 C   0  0  0  0  0  0  0  0  0  0  0  0
  -30.9641    1.1697   26.0469 N   0  0  0  0  0  0  0  0  0  0  0  0
  -30.9001   -0.9051   25.7472 O   0  0  0  0  0  0  0  0  0  0  0  0
  -32.1874    1.4166   25.2066 C   0  0  0  0  0  0  0  0  0  0  0  0
  -28.0200   -1.7982   30.3495 Cl  0  0  0  0  0  0  0  0  0  0  0  0
  -25.5313    1.5213   27.0408 Cl  0  0  0  0  0  0  0  0  0  0  0  0
  -25.4760   -0.2053   29.5840 Cl  0  0  0  0  0  0  0  0  0  0  0  0
  -27.8448    1.4740   25.5340 O   0  0  0  0  0  0  0  0  0  0  0  0
  5  6  1  0
  6  8  1  0
  6  9  2  0
  8 10  1  0
  1 11  1  0
  3 12  1  0
  2 13  1  0
  4 14  1  0
  1  2  2  0
  2  3  1  0
  3  4  2  0
  4  5  1  0
  5  7  2  0
  7  1  1  0
M  END

$$$$
