No_961-gen_results/8p0m/2024-11-26-14-13-15/
     RDKit          3D

 13 14  0  0  0  0  0  0  0  0999 V2000
  -28.0162   -0.8135   28.8779 C   0  0  0  0  0  0  0  0  0  0  0  0
  -27.0636   -0.1189   28.6079 C   0  0  0  0  0  0  0  0  0  0  0  0
  -26.8756    1.1325   28.9134 C   0  0  0  0  0  0  0  0  0  0  0  0
  -25.6883    1.9515   28.5672 C   0  0  0  0  0  0  0  0  0  0  0  0
  -24.6394    1.2834   27.8753 C   0  0  0  0  0  0  0  0  0  0  0  0
  -24.8181   -0.0802   27.6166 C   0  0  0  0  0  0  0  0  0  0  0  0
  -25.9311   -0.7717   27.9696 C   0  0  0  0  0  0  0  0  0  0  0  0
  -28.7345   -0.6152   30.0397 N   0  0  0  0  0  0  0  0  0  0  0  0
  -28.6767    0.2206   30.6629 C   0  0  0  0  0  0  0  0  0  0  0  0
  -27.8566    1.4555   30.4172 C   0  0  0  0  0  0  0  0  0  0  0  0
  -23.5244    1.9932   27.3532 C   0  0  0  0  0  0  0  0  0  0  0  0
  -22.2593    2.2112   27.6525 Cl  0  0  0  0  0  0  0  0  0  0  0  0
  -24.0078    2.6778   26.0134 C   0  0  0  0  0  0  0  0  0  0  0  0
  5 11  1  0
 11 12  1  0
 11 13  1  0
  3  4  1  0
  4  5  2  0
  5  6  1  0
  6  7  2  0
  7  2  1  0
  1  2  2  0
  2  3  1  0
  3 10  2  0
 10  9  1  0
  9  8  2  0
  8  1  1  0
M  END

$$$$
