No_921-gen_results/8p0m/2024-11-26-14-13-15/
     RDKit          3D

 15 16  0  0  0  0  0  0  0  0999 V2000
  -28.0162   -0.8135   28.8779 C   0  0  0  0  0  0  0  0  0  0  0  0
  -27.0636   -0.1189   28.6079 C   0  0  0  0  0  0  0  0  0  0  0  0
  -25.7923   -0.4302   29.0761 C   0  0  0  0  0  0  0  0  0  0  0  0
  -25.2700   -0.0487   30.0123 C   0  0  0  0  0  0  0  0  0  0  0  0
  -29.2965   -0.1838   28.9398 C   0  0  0  0  0  0  0  0  0  0  0  0
  -29.5648    0.8003   28.0352 C   0  0  0  0  0  0  0  0  0  0  0  0
  -28.4695    1.4413   27.4238 C   0  0  0  0  0  0  0  0  0  0  0  0
  -27.1368    1.0792   27.7975 C   0  0  0  0  0  0  0  0  0  0  0  0
  -24.0789   -0.0482   30.4668 C   0  0  0  0  0  0  0  0  0  0  0  0
  -23.0706   -0.7956   29.7216 C   0  0  0  0  0  0  0  0  0  0  0  0
  -23.5146   -1.2736   28.5552 C   0  0  0  0  0  0  0  0  0  0  0  0
  -24.8140   -1.1247   28.1330 C   0  0  0  0  0  0  0  0  0  0  0  0
  -30.9041    1.2984   27.7859 C   0  0  0  0  0  0  0  0  0  0  0  0
  -31.3119    1.7450   26.8277 O   0  0  0  0  0  0  0  0  0  0  0  0
  -31.6869    1.4496   28.8740 O   0  0  0  0  0  0  0  0  0  0  0  0
  2  3  1  0
  6 13  1  0
 13 14  2  0
 13 15  1  0
  1  2  2  0
  2  8  1  0
  8  7  2  0
  7  6  1  0
  6  5  2  0
  5  1  1  0
  3  4  2  0
  4  9  1  0
  9 10  2  0
 10 11  1  0
 11 12  2  0
 12  3  1  0
M  END

$$$$
