No_900-gen_results/8p0m/2024-11-26-14-13-15/
     RDKit          3D

 17 19  0  0  0  0  0  0  0  0999 V2000
  -28.1229   -1.3353   28.4874 O   0  0  0  0  0  0  0  0  0  0  0  0
  -27.0637   -0.8242   28.8687 C   0  0  0  0  0  0  0  0  0  0  0  0
  -26.4017   -0.0623   28.6224 C   0  0  0  0  0  0  0  0  0  0  0  0
  -26.5721   -1.5844   30.1172 N   0  0  0  0  0  0  0  0  0  0  0  0
  -25.0209    0.3562   29.0444 C   0  0  0  0  0  0  0  0  0  0  0  0
  -24.1656    1.3501   28.5601 C   0  0  0  0  0  0  0  0  0  0  0  0
  -22.8678    1.5680   29.0842 C   0  0  0  0  0  0  0  0  0  0  0  0
  -22.4025    0.5422   29.9297 C   0  0  0  0  0  0  0  0  0  0  0  0
  -23.1712   -0.4519   30.4557 C   0  0  0  0  0  0  0  0  0  0  0  0
  -24.4365   -0.6003   29.9597 C   0  0  0  0  0  0  0  0  0  0  0  0
  -25.3147   -1.5706   30.5527 C   0  0  0  0  0  0  0  0  0  0  0  0
  -26.9909    0.8326   27.5276 C   0  0  0  0  0  0  0  0  0  0  0  0
  -27.2491    0.5003   26.4628 C   0  0  0  0  0  0  0  0  0  0  0  0
  -27.7774    1.3423   25.4424 C   0  0  0  0  0  0  0  0  0  0  0  0
  -27.8857    2.7620   25.7249 C   0  0  0  0  0  0  0  0  0  0  0  0
  -27.4009    3.2502   26.9413 C   0  0  0  0  0  0  0  0  0  0  0  0
  -26.9350    2.3650   27.8406 C   0  0  0  0  0  0  0  0  0  0  0  0
  1  2  2  0
  2  3  1  0
  2  4  1  0
  3  5  1  0
  4 11  1  0
 10 11  1  0
  3 12  1  0
 12 13  2  0
 13 14  1  0
 14 15  2  0
 15 16  1  0
 16 17  2  0
 17 12  1  0
  5  6  2  0
  6  7  1  0
  7  8  2  0
  8  9  1  0
  9 10  2  0
 10  5  1  0
M  END

$$$$
