No_917-gen_results/8p0m/2024-11-26-14-13-15/
     RDKit          3D

 15 16  0  0  0  0  0  0  0  0999 V2000
  -28.0544   -1.0498   28.7246 N   0  0  0  0  0  0  0  0  0  0  0  0
  -26.9659   -0.4722   28.7709 C   0  0  0  0  0  0  0  0  0  0  0  0
  -26.5486    0.3876   27.8311 C   0  0  0  0  0  0  0  0  0  0  0  0
  -25.2228    0.8526   27.7033 C   0  0  0  0  0  0  0  0  0  0  0  0
  -24.2464    0.4683   28.6950 C   0  0  0  0  0  0  0  0  0  0  0  0
  -22.8972    0.8594   28.6515 C   0  0  0  0  0  0  0  0  0  0  0  0
  -25.9403   -1.0255   29.7362 C   0  0  0  0  0  0  0  0  0  0  0  0
  -24.5811   -0.5251   29.7156 C   0  0  0  0  0  0  0  0  0  0  0  0
  -22.5205    1.7795   27.5847 C   0  0  0  0  0  0  0  0  0  0  0  0
  -23.4595    2.2897   26.7027 C   0  0  0  0  0  0  0  0  0  0  0  0
  -24.7996    1.8138   26.7378 C   0  0  0  0  0  0  0  0  0  0  0  0
  -29.0368   -0.4803   29.6069 C   0  0  0  0  0  0  0  0  0  0  0  0
  -30.3347   -1.0732   29.5636 C   0  0  0  0  0  0  0  0  0  0  0  0
  -31.2244   -0.5016   28.5629 C   0  0  0  0  0  0  0  0  0  0  0  0
  -32.0999    0.0406   28.9765 N   0  0  0  0  0  0  0  0  0  0  0  0
  1  2  1  0
  1 12  1  0
 12 13  1  0
 13 14  1  0
 14 15  2  0
  2  3  2  0
  3  4  1  0
  5  8  1  0
  8  7  2  0
  7  2  1  0
  4  5  2  0
  5  6  1  0
  6  9  2  0
  9 10  1  0
 10 11  2  0
 11  4  1  0
M  END

$$$$
