No_997-gen_results/8p0m/2024-11-26-14-13-15/
     RDKit          3D

 35 37  0  0  0  0  0  0  0  0999 V2000
  -28.0162   -0.8135   28.8779 C   0  0  0  0  0  0  0  0  0  0  0  0
  -28.4690   -0.7850   29.8287 C   0  0  0  0  0  0  0  0  0  0  0  0
  -26.5042   -0.7777   28.8766 C   0  0  0  0  0  0  0  0  0  0  0  0
  -25.6540   -0.6597   27.7191 C   0  0  0  0  0  0  0  0  0  0  0  0
  -28.1834   -0.8426   30.8354 C   0  0  0  0  0  0  0  0  0  0  0  0
  -26.7573   -0.8210   31.2264 C   0  0  0  0  0  0  0  0  0  0  0  0
  -25.8874   -0.7938   30.1755 C   0  0  0  0  0  0  0  0  0  0  0  0
  -25.8515    0.3677   26.7874 C   0  0  0  0  0  0  0  0  0  0  0  0
  -24.8464    0.7885   26.0119 C   0  0  0  0  0  0  0  0  0  0  0  0
  -24.0301    1.7487   26.0846 C   0  0  0  0  0  0  0  0  0  0  0  0
  -24.1832    2.6878   27.1579 C   0  0  0  0  0  0  0  0  0  0  0  0
  -25.4113    2.7140   27.8325 C   0  0  0  0  0  0  0  0  0  0  0  0
  -27.1178    0.6881   26.5322 N   0  0  0  0  0  0  0  0  0  0  0  0
  -25.5260    3.6727   29.0295 C   0  0  0  0  0  0  0  0  0  0  0  0
  -26.0367    3.0250   30.0818 C   0  0  0  0  0  0  0  0  0  0  0  0
  -25.7813    3.5638   31.3584 C   0  0  0  0  0  0  0  0  0  0  0  0
  -25.4503    4.9085   31.5012 C   0  0  0  0  0  0  0  0  0  0  0  0
  -25.1358    5.5994   30.3069 C   0  0  0  0  0  0  0  0  0  0  0  0
  -25.0825    4.9306   29.0940 C   0  0  0  0  0  0  0  0  0  0  0  0
  -27.6401    1.0800   25.3818 C   0  0  0  0  0  0  0  0  0  0  0  0
  -29.0265    1.3567   25.2181 C   0  0  0  0  0  0  0  0  0  0  0  0
  -27.0090    0.6774   24.3392 O   0  0  0  0  0  0  0  0  0  0  0  0
  -24.4687   -0.7704   30.3685 C   0  0  0  0  0  0  0  0  0  0  0  0
  -23.8772    0.4456   30.4804 C   0  0  0  0  0  0  0  0  0  0  0  0
  -23.7869   -1.9814   30.2347 C   0  0  0  0  0  0  0  0  0  0  0  0
  -22.4416    0.5891   30.1671 C   0  0  0  0  0  0  0  0  0  0  0  0
  -22.0566   -0.0618   29.0282 C   0  0  0  0  0  0  0  0  0  0  0  0
  -21.9012   -1.5309   29.0454 C   0  0  0  0  0  0  0  0  0  0  0  0
  -23.0030   -2.2545   29.2928 C   0  0  0  0  0  0  0  0  0  0  0  0
  -26.3312    2.8371   32.6118 C   0  0  0  0  0  0  0  0  0  0  0  0
  -25.9431    1.6581   32.5853 F   0  0  0  0  0  0  0  0  0  0  0  0
  -25.7379    3.3737   33.7231 F   0  0  0  0  0  0  0  0  0  0  0  0
  -27.6195    2.9196   32.7207 F   0  0  0  0  0  0  0  0  0  0  0  0
  -29.6298    2.2357   25.9072 N   0  0  0  0  0  0  0  0  0  0  0  0
  -30.7492    2.3069   26.4082 C   0  0  0  0  0  0  0  0  0  0  0  0
  3  4  1  0
  4  8  1  0
  8  9  2  3
  9 10  1  0
 10 11  2  3
 11 12  1  0
  8 13  1  0
 12 14  1  0
 13 20  1  0
 20 21  1  0
 20 22  2  0
  7 23  1  0
 23 24  1  0
 23 25  1  0
 24 26  2  0
 26 27  1  0
 27 28  1  0
 25 29  1  0
 28 29  1  0
 16 30  1  0
 30 31  1  0
 30 32  1  0
 30 33  1  0
 21 34  1  0
 34 35  1  0
 14 15  2  0
 15 16  1  0
 16 17  2  0
 17 18  1  0
 18 19  2  0
 19 14  1  0
  1  2  2  0
  2  5  1  0
  5  6  2  0
  6  7  1  0
  7  3  2  0
  3  1  1  0
M  END

$$$$
