No_930-gen_results/8p0m/2024-11-26-14-13-15/
     RDKit          3D

 12 13  0  0  0  0  0  0  0  0999 V2000
  -28.0162   -0.8135   28.8779 C   0  0  0  0  0  0  0  0  0  0  0  0
  -27.0636   -0.1189   28.6079 C   0  0  0  0  0  0  0  0  0  0  0  0
  -25.7923   -0.4302   29.0761 C   0  0  0  0  0  0  0  0  0  0  0  0
  -25.5756   -1.5654   29.9363 C   0  0  0  0  0  0  0  0  0  0  0  0
  -26.7354   -2.3004   30.2173 C   0  0  0  0  0  0  0  0  0  0  0  0
  -27.9184   -1.9537   29.7629 C   0  0  0  0  0  0  0  0  0  0  0  0
  -27.1057    1.1023   27.7593 C   0  0  0  0  0  0  0  0  0  0  0  0
  -26.7157    2.2350   27.9945 C   0  0  0  0  0  0  0  0  0  0  0  0
  -27.6806    0.8547   26.4259 C   0  0  0  0  0  0  0  0  0  0  0  0
  -26.6450    3.3558   27.2180 C   0  0  0  0  0  0  0  0  0  0  0  0
  -27.7440    1.9438   25.5228 C   0  0  0  0  0  0  0  0  0  0  0  0
  -27.2247    3.2210   25.9315 C   0  0  0  0  0  0  0  0  0  0  0  0
  2  7  1  0
  1  2  2  0
  2  3  1  0
  3  4  2  0
  4  5  1  0
  5  6  2  0
  6  1  1  0
  7  8  2  0
  8 10  1  0
 10 12  2  0
 12 11  1  0
 11  9  2  0
  9  7  1  0
M  END

$$$$
