No_953-gen_results/8p0m/2024-11-26-14-13-15/
     RDKit          3D

 14 15  0  0  0  0  0  0  0  0999 V2000
  -28.0162   -0.8135   28.8779 C   0  0  0  0  0  0  0  0  0  0  0  0
  -28.4690   -0.7850   29.8287 C   0  0  0  0  0  0  0  0  0  0  0  0
  -28.1816    0.4277   28.1134 C   0  0  0  0  0  0  0  0  0  0  0  0
  -28.9841    1.4155   28.5154 C   0  0  0  0  0  0  0  0  0  0  0  0
  -29.3802    0.1384   30.4612 C   0  0  0  0  0  0  0  0  0  0  0  0
  -29.5415    1.2736   29.7242 C   0  0  0  0  0  0  0  0  0  0  0  0
  -27.4586    0.4934   26.7701 C   0  0  0  0  0  0  0  0  0  0  0  0
  -27.9200    0.7178   25.7507 C   0  0  0  0  0  0  0  0  0  0  0  0
  -27.1380    0.6886   24.4860 C   0  0  0  0  0  0  0  0  0  0  0  0
  -26.0297    0.2239   26.8233 C   0  0  0  0  0  0  0  0  0  0  0  0
  -25.1759    0.2962   25.7593 C   0  0  0  0  0  0  0  0  0  0  0  0
  -25.7788    0.4907   24.5616 C   0  0  0  0  0  0  0  0  0  0  0  0
  -29.2194    0.8993   25.4857 F   0  0  0  0  0  0  0  0  0  0  0  0
  -28.2612   -2.2966   30.8738 Cl  0  0  0  0  0  0  0  0  0  0  0  0
  3  7  1  0
  8 13  1  0
  2 14  1  0
  1  2  2  0
  2  5  1  0
  5  6  2  0
  6  4  1  0
  4  3  2  0
  3  1  1  0
  7  8  2  0
  8  9  1  0
  9 12  2  0
 12 11  1  0
 11 10  2  0
 10  7  1  0
M  END

$$$$
