No_916-gen_results/8p0m/2024-11-26-14-13-15/
     RDKit          3D

 29 31  0  0  0  0  0  0  0  0999 V2000
  -28.0162   -0.8135   28.8779 C   0  0  0  0  0  0  0  0  0  0  0  0
  -27.0636   -0.1189   28.6079 C   0  0  0  0  0  0  0  0  0  0  0  0
  -25.7923   -0.4302   29.0761 C   0  0  0  0  0  0  0  0  0  0  0  0
  -25.5756   -1.5654   29.9363 C   0  0  0  0  0  0  0  0  0  0  0  0
  -26.7354   -2.3004   30.2173 C   0  0  0  0  0  0  0  0  0  0  0  0
  -27.9184   -1.9537   29.7629 C   0  0  0  0  0  0  0  0  0  0  0  0
  -26.8968    1.1016   27.7052 C   0  0  0  0  0  0  0  0  0  0  0  0
  -25.8554    1.5416   27.2307 C   0  0  0  0  0  0  0  0  0  0  0  0
  -24.5492    1.1632   27.8487 C   0  0  0  0  0  0  0  0  0  0  0  0
  -24.4993    0.1126   28.6990 C   0  0  0  0  0  0  0  0  0  0  0  0
  -23.2850    1.8564   27.4001 C   0  0  0  0  0  0  0  0  0  0  0  0
  -23.0355    1.8326   26.1907 F   0  0  0  0  0  0  0  0  0  0  0  0
  -22.1792    1.3614   28.1025 F   0  0  0  0  0  0  0  0  0  0  0  0
  -23.4369    3.2236   27.7657 F   0  0  0  0  0  0  0  0  0  0  0  0
  -29.1077   -2.7272   30.1958 C   0  0  0  0  0  0  0  0  0  0  0  0
  -29.0291   -4.0350   30.4748 N   0  0  0  0  0  0  0  0  0  0  0  0
  -30.2384   -2.2091   30.2546 O   0  0  0  0  0  0  0  0  0  0  0  0
  -30.0858   -4.9326   30.8037 C   0  0  0  0  0  0  0  0  0  0  0  0
  -30.8857   -5.2543   29.7520 C   0  0  0  0  0  0  0  0  0  0  0  0
  -30.6318   -5.0753   28.5408 C   0  0  0  0  0  0  0  0  0  0  0  0
  -31.3840   -5.6591   27.4682 C   0  0  0  0  0  0  0  0  0  0  0  0
  -32.5003   -6.4158   27.6852 C   0  0  0  0  0  0  0  0  0  0  0  0
  -32.7764   -6.6568   29.0598 C   0  0  0  0  0  0  0  0  0  0  0  0
  -31.9795   -6.1855   30.0877 C   0  0  0  0  0  0  0  0  0  0  0  0
  -30.0944   -5.3193   32.0086 O   0  0  0  0  0  0  0  0  0  0  0  0
  -28.2484    1.5650   27.1211 C   0  0  0  0  0  0  0  0  0  0  0  0
  -28.9242    2.3229   27.6860 O   0  0  0  0  0  0  0  0  0  0  0  0
  -28.4092    1.2568   25.8759 O   0  0  0  0  0  0  0  0  0  0  0  0
  -33.4440   -6.9695   26.4571 Cl  0  0  0  0  0  0  0  0  0  0  0  0
  9 11  1  0
 11 12  1  0
 11 13  1  0
 11 14  1  0
  6 15  1  0
 15 16  1  0
 15 17  2  0
 16 18  1  0
 18 19  1  0
 18 25  2  0
  7 26  1  0
 26 27  1  0
 26 28  2  0
 22 29  1  0
  1  2  2  0
  3  4  2  0
  4  5  1  0
  5  6  2  0
  6  1  1  0
  2  3  1  0
  3 10  1  0
 10  9  2  0
  9  8  1  0
  8  7  2  0
  7  2  1  0
 19 20  2  0
 20 21  1  0
 21 22  2  0
 22 23  1  0
 23 24  2  0
 24 19  1  0
M  END

$$$$
