@<TRIPOS>MOLECULE
No_10-gen_results/8p0m/2024-11-27-11-27-31/
 16 17 0 0 0
SMALL
GASTEIGER

@<TRIPOS>ATOM
      1 C         -28.0162   -0.8135   28.8779 C.ar    1  UNL1       -0.0042
      2 C         -28.4690   -0.7850   29.8287 C.ar    1  UNL1       -0.0003
      3 C         -27.1356    0.2359   28.5352 C.ar    1  UNL1       -0.0194
      4 C         -26.8745    1.2825   29.3982 C.ar    1  UNL1       -0.0042
      5 C         -28.3613    0.1987   30.9244 C.ar    1  UNL1       -0.0000
      6 C         -27.5277    1.2234   30.6356 C.ar    1  UNL1       -0.0003
      7 C         -26.3879    0.2914   27.2334 C.3     1  UNL1        0.0620
      8 C         -25.1510    0.3034   27.2565 C.3     1  UNL1        0.0335
      9 C         -24.2763    0.0439   28.3453 C.ar    1  UNL1       -0.0218
     10 C         -23.3559    0.9430   28.8109 C.ar    1  UNL1       -0.0043
     11 C         -22.3505    0.6167   29.7259 C.ar    1  UNL1       -0.0003
     12 C         -24.0620   -1.2153   28.9550 C.ar    1  UNL1       -0.0043
     13 C         -23.2523   -1.5362   29.9874 C.ar    1  UNL1       -0.0003
     14 C         -22.3374   -0.5479   30.3766 C.ar    1  UNL1       -0.0000
     15 C         -27.2304    0.2690   26.0647 C.3     1  UNL1        0.1978
     16 F         -28.2031   -0.0927   25.9726 F       1  UNL1       -0.2340
@<TRIPOS>BOND
     1     3     7    1
     2     7     8    1
     3     8     9    1
     4     7    15    1
     5    15    16    1
     6     9    10   ar
     7    10    11   ar
     8    11    14   ar
     9    14    13   ar
    10    13    12   ar
    11    12     9   ar
    12     1     2   ar
    13     2     5   ar
    14     5     6   ar
    15     6     4   ar
    16     4     3   ar
    17     3     1   ar
