@<TRIPOS>MOLECULE
outputs/IAG933/test6/raw/output_100_IAG933_linker_design_.xyz
 45 49 0 0 0
SMALL
GASTEIGER

@<TRIPOS>ATOM
      1 C         -24.8550   -1.0120   30.1430 C.3     1  UNL1        0.0586
      2 C         -24.9730   -2.5050   29.7880 C.2     1  UNL1       -0.0195
      3 C         -23.9060   -3.1730   29.1460 C.2     1  UNL1       -0.0042
      4 C         -23.9890   -4.5490   28.8530 C.2     1  UNL1       -0.0003
      5 C         -25.1370   -5.2800   29.2050 C.2     1  UNL1       -0.0000
      6 C         -26.2320   -4.6110   29.7840 C.2     1  UNL1       -0.0003
      7 C         -26.1550   -3.2320   30.0650 C.2     1  UNL1       -0.0042
      8 C         -25.3870   -0.6790   31.5710 C.3     1  UNL1        0.0785
      9 C         -25.1890    0.7730   32.0280 C.3     1  UNL1        0.0192
     10 C         -25.3360    0.6840   33.5440 C.3     1  UNL1        0.0202
     11 C         -24.8290   -0.7150   33.9050 C.3     1  UNL1        0.0887
     12 N         -24.7580   -1.4810   32.6460 N.3     1  UNL1       -0.2191
     13 C         -25.6880    1.6140   26.4610 C.3     1  UNL1        0.0933
     14 C         -26.2500    2.9200   26.3950 C.2     1  UNL1        0.0587
     15 C         -25.6420    4.0930   27.1230 C.2     1  UNL1        0.2627
     16 N         -25.6140    5.2520   26.4490 N.am    1  UNL1       -0.2000
     17 C         -25.0260    6.4790   26.9630 C.3     1  UNL1        0.1388
     18 O         -25.1430    3.9660   28.2430 O.2     1  UNL1       -0.2686
     19 C         -27.4380    3.0910   25.6450 C.2     1  UNL1        0.1025
     20 N         -28.0750    2.0890   25.0030 N.2     1  UNL1       -0.2118
     21 C         -27.5430    0.8490   25.0790 C.2     1  UNL1        0.2344
     22 O         -28.1930   -0.2080   24.4770 O.2     1  UNL1       -0.4585
     23 C         -29.4600    0.0050   23.8660 C.3     1  UNL1        0.2423
     24 C         -30.0650   -1.3770   23.5730 C.3     1  UNL1        0.2292
     25 O         -30.7290   -1.8780   24.7210 O.3     1  UNL1       -0.2162
     26 C         -26.3540    0.5760   25.7770 C.3     1  UNL1        0.2438
     27 F         -25.8600   -0.6810   25.7950 F       1  UNL1       -0.2265
     28 F         -23.4880    1.1847   24.5058 F       1  UNL1       -0.1996
     29 C         -23.9096    0.8701   28.1538 C.2     1  UNL1        0.0301
     30 C         -21.4911    1.1182   27.5229 C.2     1  UNL1        0.0216
     31 C         -27.4427    0.7468   29.0363 C.3     1  UNL1        0.1604
     32 N         -26.2711    0.3769   28.6359 N.3     1  UNL1       -0.2060
     33 C         -27.7974    1.9389   29.8363 C.2     1  UNL1        0.1689
     34 O         -22.1147    0.0875   29.6190 O.2     1  UNL1       -0.2872
     35 O         -27.3122    3.0862   29.8876 O.2     1  UNL1       -0.2945
     36 C         -21.8484    1.6296   26.2210 C.3     1  UNL1        0.1000
     37 C         -28.9583    1.6156   30.2877 C.3     1  UNL1        0.0687
     38 C         -28.5601    0.2110   28.7460 C.3     1  UNL1        0.1753
     39 O         -28.8704   -0.4351   27.5809 O.3     1  UNL1       -0.2212
     40 F         -23.1969    3.0887   25.1012 F       1  UNL1       -0.1996
     41 C         -23.1507    1.8252   25.7067 C.3     1  UNL1        0.2834
     42 C         -29.5308    0.4829   29.7129 C.3     1  UNL1        0.0426
     43 C         -24.7639    0.3150   29.1740 C.3     1  UNL1        0.1034
     44 C         -24.2602    1.4140   26.8231 C.2     1  UNL1        0.0235
     45 C         -22.4732    0.6997   28.5141 C.2     1  UNL1        0.1886
@<TRIPOS>BOND
     1     1    43    1
     2     2     7    1
     3     2     1    1
     4     3     2    2
     5     4     3    1
     6     4     5    2
     7     5     6    1
     8     6     7    2
     9     8     1    1
    10     8     9    1
    11     8    12    1
    12     9    10    1
    13    10    11    1
    14    12    11    1
    15    13    44    1
    16    14    13    1
    17    14    15    1
    18    15    18    2
    19    16    17    1
    20    16    15    1
    21    19    14    2
    22    20    21    2
    23    20    19    1
    24    21    26    1
    25    22    21    1
    26    23    22    1
    27    24    23    1
    28    24    25    1
    29    26    27    1
    30    26    13    1
    31    28    41    1
    32    29    45    1
    33    29    43    1
    34    30    45    2
    35    31    32    1
    36    31    33    1
    37    33    35    2
    38    33    37    1
    39    36    30    1
    40    38    39    1
    41    38    31    1
    42    38    42    1
    43    40    41    1
    44    41    36    1
    45    41    44    1
    46    42    37    1
    47    43    32    1
    48    44    29    2
    49    45    34    1
