@<TRIPOS>MOLECULE
outputs/IAG933/test6/raw/output_1002_IAG933_linker_design_.xyz
 42 46 0 0 0
SMALL
GASTEIGER

@<TRIPOS>ATOM
      1 C         -24.8550   -1.0120   30.1430 C.3     1  UNL1        0.0389
      2 C         -24.9730   -2.5050   29.7880 C.2     1  UNL1       -0.0211
      3 C         -23.9060   -3.1730   29.1460 C.2     1  UNL1       -0.0042
      4 C         -23.9890   -4.5490   28.8530 C.2     1  UNL1       -0.0003
      5 C         -25.1370   -5.2800   29.2050 C.2     1  UNL1       -0.0000
      6 C         -26.2320   -4.6110   29.7840 C.2     1  UNL1       -0.0003
      7 C         -26.1550   -3.2320   30.0650 C.2     1  UNL1       -0.0042
      8 C         -25.3870   -0.6790   31.5710 C.3     1  UNL1        0.0768
      9 C         -25.1890    0.7730   32.0280 C.3     1  UNL1        0.0192
     10 C         -25.3360    0.6840   33.5440 C.3     1  UNL1        0.0202
     11 C         -24.8290   -0.7150   33.9050 C.3     1  UNL1        0.0887
     12 N         -24.7580   -1.4810   32.6460 N.3     1  UNL1       -0.2191
     13 C         -25.6880    1.6140   26.4610 C.2     1  UNL1        0.0343
     14 C         -26.2500    2.9200   26.3950 C.2     1  UNL1        0.0741
     15 C         -25.6420    4.0930   27.1230 C.2     1  UNL1        0.2662
     16 N         -25.6140    5.2520   26.4490 N.am    1  UNL1       -0.1997
     17 C         -25.0260    6.4790   26.9630 C.3     1  UNL1        0.1388
     18 O         -25.1430    3.9660   28.2430 O.2     1  UNL1       -0.2683
     19 C         -27.4380    3.0910   25.6450 C.2     1  UNL1        0.1065
     20 N         -28.0750    2.0890   25.0030 N.2     1  UNL1       -0.2081
     21 C         -27.5430    0.8490   25.0790 C.2     1  UNL1        0.2530
     22 O         -28.1930   -0.2080   24.4770 O.2     1  UNL1       -0.4558
     23 C         -29.4600    0.0050   23.8660 C.3     1  UNL1        0.2426
     24 C         -30.0650   -1.3770   23.5730 C.3     1  UNL1        0.2292
     25 O         -30.7290   -1.8780   24.7210 O.3     1  UNL1       -0.2162
     26 C         -26.3540    0.5760   25.7770 C.2     1  UNL1        0.1907
     27 F         -25.8600   -0.6810   25.7950 F       1  UNL1       -0.1995
     28 O         -21.2291    1.8369   25.6429 O.2     1  UNL1       -0.3140
     29 O         -22.5101    0.0931   29.7798 O.2     1  UNL1       -0.2887
     30 C         -22.8934    0.5074   28.6327 C.2     1  UNL1        0.2063
     31 F         -20.5749    0.9414   27.9938 F       1  UNL1       -0.1964
     32 C         -21.8927    0.8930   27.7387 C.2     1  UNL1        0.2266
     33 C         -22.1523    1.2826   26.5233 C.2     1  UNL1        0.2685
     34 O         -28.2066   -0.8855   28.5776 O.3     1  UNL1       -0.2204
     35 N         -23.3843    1.2125   26.1420 N.pl3   1  UNL1       -0.2436
     36 C         -24.2380    0.5630   28.2556 C.3     1  UNL1        0.0874
     37 C         -27.7191    0.3135   29.0782 C.3     1  UNL1        0.1821
     38 C         -24.4042    1.1689   26.9819 C.3     1  UNL1        0.1103
     39 C         -26.3718    0.9331   29.4363 C.3     1  UNL1        0.0364
     40 C         -25.2072   -0.0071   29.0947 C.3     1  UNL1        0.0173
     41 O         -21.9087    1.7763   24.4877 O.3     1  UNL1       -0.1483
     42 C         -23.2576    1.4154   24.7186 C.3     1  UNL1        0.2943
@<TRIPOS>BOND
     1     1    40    1
     2     2     7    1
     3     2     1    1
     4     3     2    2
     5     4     3    1
     6     4     5    2
     7     5     6    1
     8     6     7    2
     9     8     1    1
    10     8     9    1
    11     8    12    1
    12     9    10    1
    13    10    11    1
    14    12    11    1
    15    14    13    1
    16    14    15    1
    17    15    18    2
    18    16    17    1
    19    16    15    1
    20    19    14    2
    21    20    21    2
    22    20    19    1
    23    21    26    1
    24    22    21    1
    25    23    22    1
    26    24    23    1
    27    24    25    1
    28    26    27    1
    29    26    13    2
    30    28    33    1
    31    30    29    2
    32    32    31    1
    33    32    30    1
    34    33    32    2
    35    34    37    1
    36    35    33    1
    37    35    38    1
    38    36    30    1
    39    36    40    1
    40    37    39    1
    41    38    13    1
    42    38    36    1
    43    40    39    1
    44    41    42    1
    45    41    28    1
    46    42    35    1
