@<TRIPOS>MOLECULE
outputs/IAG933/test6/raw/output_1003_IAG933_linker_design_.xyz
 44 47 0 0 0
SMALL
GASTEIGER

@<TRIPOS>ATOM
      1 C         -24.8550   -1.0120   30.1430 C.3     1  UNL1        0.1410
      2 C         -24.9730   -2.5050   29.7880 C.2     1  UNL1       -0.0026
      3 C         -23.9060   -3.1730   29.1460 C.2     1  UNL1       -0.0028
      4 C         -23.9890   -4.5490   28.8530 C.2     1  UNL1       -0.0003
      5 C         -25.1370   -5.2800   29.2050 C.2     1  UNL1       -0.0000
      6 C         -26.2320   -4.6110   29.7840 C.2     1  UNL1       -0.0003
      7 C         -26.1550   -3.2320   30.0650 C.2     1  UNL1       -0.0028
      8 C         -25.3870   -0.6790   31.5710 C.3     1  UNL1        0.0954
      9 C         -25.1890    0.7730   32.0280 C.3     1  UNL1        0.0207
     10 C         -25.3360    0.6840   33.5440 C.3     1  UNL1        0.0203
     11 C         -24.8290   -0.7150   33.9050 C.3     1  UNL1        0.0888
     12 N         -24.7580   -1.4810   32.6460 N.3     1  UNL1       -0.2176
     13 C         -25.6880    1.6140   26.4610 C.2     1  UNL1        0.0407
     14 C         -26.2500    2.9200   26.3950 C.2     1  UNL1        0.0744
     15 C         -25.6420    4.0930   27.1230 C.2     1  UNL1        0.2231
     16 N         -25.6140    5.2520   26.4490 N.2     1  UNL1       -0.2356
     17 C         -25.0260    6.4790   26.9630 C.3     1  UNL1        0.1550
     18 O         -25.1430    3.9660   28.2430 O.2     1  UNL1       -0.4467
     19 C         -27.4380    3.0910   25.6450 C.2     1  UNL1        0.1068
     20 N         -28.0750    2.0890   25.0030 N.2     1  UNL1       -0.2081
     21 C         -27.5430    0.8490   25.0790 C.2     1  UNL1        0.2533
     22 O         -28.1930   -0.2080   24.4770 O.2     1  UNL1       -0.4558
     23 C         -29.4600    0.0050   23.8660 C.3     1  UNL1        0.2426
     24 C         -30.0650   -1.3770   23.5730 C.3     1  UNL1        0.2292
     25 O         -30.7290   -1.8780   24.7210 O.3     1  UNL1       -0.2162
     26 C         -26.3540    0.5760   25.7770 C.2     1  UNL1        0.1931
     27 F         -25.8600   -0.6810   25.7950 F       1  UNL1       -0.1992
     28 O         -22.3970   -0.5720   29.5364 O.3     1  UNL1       -0.2659
     29 N         -24.5034    1.9611   29.2758 N.3     1  UNL1       -0.1775
     30 O         -23.3013    5.5197   32.3163 O.3     1  UNL1       -0.2202
     31 C         -23.0965    1.6325   29.4048 C.3     1  UNL1        0.1250
     32 C         -25.0840    3.2767   29.2408 C.3     1  UNL1        0.2430
     33 C         -24.5840    4.8187   32.4767 C.3     1  UNL1        0.1874
     34 C         -22.0030    1.6607   26.8676 C.1     1  UNL1        0.0759
     35 C         -25.8136    3.7302   30.3263 C.3     1  UNL1        0.0679
     36 O         -25.7114    6.8511   32.9230 O.3     1  UNL1       -0.2177
     37 C         -21.4750    0.7741   27.9312 C.3     1  UNL1        0.1385
     38 O         -25.4011    7.3186   31.6501 O.3     1  UNL1       -0.2203
     39 C         -25.3447    5.5841   33.5638 C.3     1  UNL1        0.2148
     40 C         -25.3425    4.8848   31.1493 C.3     1  UNL1        0.0712
     41 N         -22.5240    2.3717   26.0980 N.1     1  UNL1       -0.1958
     42 C         -22.2925    0.6750   28.9241 C.3     1  UNL1        0.1717
     43 N         -23.6297   -0.6962   30.0348 N.3     1  UNL1       -0.0793
     44 C         -25.3299    6.3535   30.5355 C.3     1  UNL1        0.1848
@<TRIPOS>BOND
     1     1    43    1
     2     2     7    1
     3     2     1    1
     4     3     2    2
     5     4     3    1
     6     4     5    2
     7     5     6    1
     8     6     7    2
     9     8     1    1
    10     8     9    1
    11     8    12    1
    12     9    10    1
    13    10    11    1
    14    12    11    1
    15    14    13    1
    16    14    15    1
    17    15    18    1
    18    16    17    1
    19    16    15    2
    20    18    32    1
    21    19    14    2
    22    20    21    2
    23    20    19    1
    24    21    26    1
    25    22    21    1
    26    23    22    1
    27    24    23    1
    28    24    25    1
    29    26    27    1
    30    26    13    2
    31    28    43    1
    32    29    31    1
    33    32    29    1
    34    32    35    1
    35    33    30    1
    36    33    39    1
    37    34    37    1
    38    36    39    1
    39    38    36    1
    40    40    35    1
    41    40    33    1
    42    41    34    3
    43    42    37    1
    44    42    31    1
    45    42    28    1
    46    44    40    1
    47    44    38    1
