@<TRIPOS>MOLECULE
No_1005-gen_results/8p0m/2024-11-27-11-27-31/
 21 22 0 0 0
SMALL
GASTEIGER

@<TRIPOS>ATOM
      1 C         -28.0162   -0.8135   28.8779 C.ar    1  UNL1        0.0417
      2 C         -28.4690   -0.7850   29.8287 C.ar    1  UNL1        0.0033
      3 C         -26.5455   -0.8762   28.8500 C.ar    1  UNL1        0.1917
      4 C         -25.8041   -1.0324   30.0571 C.ar    1  UNL1        0.0167
      5 C         -26.5373   -1.0386   31.2171 C.ar    1  UNL1       -0.0011
      6 C         -27.8843   -0.9532   31.1862 C.ar    1  UNL1       -0.0001
      7 C         -24.3655   -1.1134   30.0483 C.3     1  UNL1        0.0299
      8 C         -23.6925    0.1188   29.9185 C.3     1  UNL1        0.0085
      9 C         -23.1776    0.5817   28.7884 C.3     1  UNL1        0.0227
     10 C         -23.6021    1.3720   27.8809 C.ar    1  UNL1       -0.0223
     11 C         -23.0124    1.6054   26.6401 C.ar    1  UNL1       -0.0043
     12 C         -23.6035    2.5003   25.7727 C.ar    1  UNL1       -0.0001
     13 C         -24.8349    2.0946   28.0951 C.ar    1  UNL1        0.0023
     14 C         -25.3732    3.0501   27.2634 C.ar    1  UNL1        0.0795
     15 C         -26.5318    3.8030   27.6466 C.2     1  UNL1        0.3877
     16 C         -24.7189    3.2581   26.0796 C.ar    1  UNL1        0.0066
     17 C         -21.8218   -0.1102   28.5921 C.3     1  UNL1        0.0047
     18 O         -27.6884    3.3437   27.4333 O.co2   1  UNL1       -0.2406
     19 O         -26.3784    4.9669   28.2084 O.co2   1  UNL1       -0.2406
     20 O         -25.8353   -0.8177   27.6828 O.3     1  UNL1       -0.2869
     21 C         -23.7107    1.0061   31.1181 C.3     1  UNL1        0.0007
@<TRIPOS>BOND
     1     4     7    1
     2     7     8    1
     3     8     9    1
     4     9    10    1
     5    14    15    1
     6     9    17    1
     7    15    18   ar
     8    15    19   ar
     9     3    20    1
    10     8    21    1
    11     1     2   ar
    12     2     6   ar
    13     6     5   ar
    14     5     4   ar
    15     4     3   ar
    16     3     1   ar
    17    10    11   ar
    18    11    12   ar
    19    12    16   ar
    20    16    14   ar
    21    14    13   ar
    22    13    10   ar
