@<TRIPOS>MOLECULE
outputs/IAG933/test6/raw/output_1007_IAG933_linker_design_.xyz
 43 48 0 0 0
SMALL
GASTEIGER

@<TRIPOS>ATOM
      1 C         -24.8550   -1.0120   30.1430 C.3     1  UNL1        0.1335
      2 C         -24.9730   -2.5050   29.7880 C.2     1  UNL1       -0.0012
      3 C         -23.9060   -3.1730   29.1460 C.2     1  UNL1       -0.0026
      4 C         -23.9890   -4.5490   28.8530 C.2     1  UNL1       -0.0003
      5 C         -25.1370   -5.2800   29.2050 C.2     1  UNL1       -0.0000
      6 C         -26.2320   -4.6110   29.7840 C.2     1  UNL1       -0.0003
      7 C         -26.1550   -3.2320   30.0650 C.2     1  UNL1       -0.0026
      8 C         -25.3870   -0.6790   31.5710 C.3     1  UNL1        0.0969
      9 C         -25.1890    0.7730   32.0280 C.3     1  UNL1        0.0210
     10 C         -25.3360    0.6840   33.5440 C.3     1  UNL1        0.0203
     11 C         -24.8290   -0.7150   33.9050 C.3     1  UNL1        0.0888
     12 N         -24.7580   -1.4810   32.6460 N.3     1  UNL1       -0.2174
     13 C         -25.6880    1.6140   26.4610 C.2     1  UNL1        0.0427
     14 C         -26.2500    2.9200   26.3950 C.2     1  UNL1        0.0745
     15 C         -25.6420    4.0930   27.1230 C.2     1  UNL1        0.2241
     16 N         -25.6140    5.2520   26.4490 N.2     1  UNL1       -0.2356
     17 C         -25.0260    6.4790   26.9630 C.3     1  UNL1        0.1550
     18 O         -25.1430    3.9660   28.2430 O.2     1  UNL1       -0.4342
     19 C         -27.4380    3.0910   25.6450 C.2     1  UNL1        0.1068
     20 N         -28.0750    2.0890   25.0030 N.2     1  UNL1       -0.2081
     21 C         -27.5430    0.8490   25.0790 C.2     1  UNL1        0.2533
     22 O         -28.1930   -0.2080   24.4770 O.2     1  UNL1       -0.4558
     23 C         -29.4600    0.0050   23.8660 C.3     1  UNL1        0.2426
     24 C         -30.0650   -1.3770   23.5730 C.3     1  UNL1        0.2292
     25 O         -30.7290   -1.8780   24.7210 O.3     1  UNL1       -0.2162
     26 C         -26.3540    0.5760   25.7770 C.2     1  UNL1        0.1932
     27 F         -25.8600   -0.6810   25.7950 F       1  UNL1       -0.1992
     28 C         -24.8293    0.5275   28.5071 C.ar    1  UNL1        0.2150
     29 C         -21.1311    0.8993   27.9356 C.3     1  UNL1        0.3065
     30 O         -19.2179    1.7730   26.9049 O.2     1  UNL1       -0.2463
     31 O         -20.2429    0.0105   28.6193 O.3     1  UNL1       -0.2027
     32 C         -25.5416    3.8096   30.7513 C.3     1  UNL1        0.2219
     33 O         -21.4541    2.2527   26.0118 O.3     1  UNL1       -0.3871
     34 C         -23.3347    1.3363   27.0719 C.ar    1  UNL1        0.1138
     35 C         -24.9114    3.2758   29.4087 C.3     1  UNL1        0.3198
     36 C         -24.6470    1.1491   27.4015 C.ar    1  UNL1        0.0622
     37 C         -20.5818    1.6500   26.9882 C.2     1  UNL1        0.3621
     38 O         -23.2923    0.4146   29.0538 O.2     1  UNL1       -0.4394
     39 N         -25.7974   -0.2424   29.2200 N.pl3   1  UNL1       -0.2010
     40 O         -23.4480    2.3007   24.8397 O.2     1  UNL1       -0.2443
     41 O         -26.0595    2.8510   30.0155 O.3     1  UNL1       -0.3119
     42 C         -22.5122    0.8625   28.0621 C.ar    1  UNL1        0.1720
     43 C         -22.7999    1.9418   25.9674 C.2     1  UNL1        0.3507
@<TRIPOS>BOND
     1     1    39    1
     2     2     7    1
     3     2     1    1
     4     3     2    2
     5     4     3    1
     6     4     5    2
     7     5     6    1
     8     6     7    2
     9     8     1    1
    10     8     9    1
    11     8    12    1
    12     9    10    1
    13    10    11    1
    14    12    11    1
    15    13    36    1
    16    14    13    1
    17    14    15    1
    18    15    18    1
    19    16    17    1
    20    16    15    2
    21    19    14    2
    22    20    21    2
    23    20    19    1
    24    21    26    1
    25    22    21    1
    26    23    22    1
    27    24    23    1
    28    24    25    1
    29    26    27    1
    30    26    13    2
    31    28    38   ar
    32    28    39    1
    33    29    42    1
    34    29    31    1
    35    30    37    2
    36    33    37    1
    37    34    36   ar
    38    34    42   ar
    39    35    18    1
    40    35    41    1
    41    35    32    1
    42    36    28   ar
    43    37    29    1
    44    40    43    2
    45    41    32    1
    46    42    38   ar
    47    43    33    1
    48    43    34    1
