@<TRIPOS>MOLECULE
outputs/IAG933/test6/raw/output_1009_IAG933_linker_design_.xyz
 48 53 0 0 0
SMALL
GASTEIGER

@<TRIPOS>ATOM
      1 C         -24.8550   -1.0120   30.1430 C.3     1  UNL1        0.0693
      2 C         -24.9730   -2.5050   29.7880 C.2     1  UNL1       -0.0164
      3 C         -23.9060   -3.1730   29.1460 C.2     1  UNL1       -0.0039
      4 C         -23.9890   -4.5490   28.8530 C.2     1  UNL1       -0.0003
      5 C         -25.1370   -5.2800   29.2050 C.2     1  UNL1       -0.0000
      6 C         -26.2320   -4.6110   29.7840 C.2     1  UNL1       -0.0003
      7 C         -26.1550   -3.2320   30.0650 C.2     1  UNL1       -0.0039
      8 C         -25.3870   -0.6790   31.5710 C.3     1  UNL1        0.0815
      9 C         -25.1890    0.7730   32.0280 C.3     1  UNL1        0.0195
     10 C         -25.3360    0.6840   33.5440 C.3     1  UNL1        0.0203
     11 C         -24.8290   -0.7150   33.9050 C.3     1  UNL1        0.0887
     12 N         -24.7580   -1.4810   32.6460 N.3     1  UNL1       -0.2188
     13 C         -25.6880    1.6140   26.4610 C.2     1  UNL1        0.0404
     14 C         -26.2500    2.9200   26.3950 C.2     1  UNL1        0.0766
     15 C         -25.6420    4.0930   27.1230 C.2     1  UNL1        0.2664
     16 N         -25.6140    5.2520   26.4490 N.am    1  UNL1       -0.1997
     17 C         -25.0260    6.4790   26.9630 C.3     1  UNL1        0.1388
     18 O         -25.1430    3.9660   28.2430 O.2     1  UNL1       -0.2683
     19 C         -27.4380    3.0910   25.6450 C.2     1  UNL1        0.1067
     20 N         -28.0750    2.0890   25.0030 N.2     1  UNL1       -0.2081
     21 C         -27.5430    0.8490   25.0790 C.2     1  UNL1        0.2533
     22 O         -28.1930   -0.2080   24.4770 O.2     1  UNL1       -0.4560
     23 C         -29.4600    0.0050   23.8660 C.3     1  UNL1        0.2392
     24 C         -30.0650   -1.3770   23.5730 C.3     1  UNL1        0.1931
     25 O         -30.7290   -1.8780   24.7210 O.3     1  UNL1       -0.3166
     26 C         -26.3540    0.5760   25.7770 C.2     1  UNL1        0.1931
     27 F         -25.8600   -0.6810   25.7950 F       1  UNL1       -0.1992
     28 C         -24.3520    1.3350   27.1288 C.2     1  UNL1        0.0311
     29 C         -32.6741    0.6038   28.0957 C.3     1  UNL1        0.2269
     30 C         -25.2184   -0.1592   28.9791 C.2     1  UNL1        0.0375
     31 O         -31.1492   -0.8716   26.8649 O.2     1  UNL1       -0.4377
     32 O         -32.6789    1.9802   27.8032 O.3     1  UNL1       -0.2131
     33 C         -26.6381   -0.1966   28.8477 C.1     1  UNL1       -0.0704
     34 C         -29.6593   -1.6902   30.5249 C.3     1  UNL1        0.2530
     35 CL        -23.2120    2.7412   24.8907 Cl      1  UNL1       -0.0821
     36 O         -29.1201   -1.6838   29.1881 O.2     1  UNL1       -0.4664
     37 C         -28.1651   -0.5714   28.9096 C.2     1  UNL1        0.1750
     38 C         -21.7522    0.9083   28.2189 C.2     1  UNL1        0.0997
     39 N         -22.8364    0.2626   28.7613 N.2     1  UNL1       -0.2435
     40 C         -21.8650    1.7169   27.0548 C.2     1  UNL1        0.0321
     41 C         -33.8030   -0.1876   27.1807 C.3     1  UNL1        0.0490
     42 C         -33.3713   -0.4217   25.6583 C.3     1  UNL1        0.0795
     43 C         -24.1778    0.4899   28.3077 C.2     1  UNL1        0.0856
     44 C         -23.1674    1.8944   26.5071 C.2     1  UNL1        0.0607
     45 C         -31.9569   -0.9551   25.4525 C.3     1  UNL1        0.2890
     46 N         -30.3741    0.8278   28.8760 N.2     1  UNL1       -0.2305
     47 C         -28.9949    0.7666   29.5133 C.3     1  UNL1        0.1999
     48 C         -31.3743   -0.1308   28.1007 C.2     1  UNL1        0.2293
@<TRIPOS>BOND
     1     1    30    1
     2     2     7    1
     3     2     1    1
     4     3     2    2
     5     4     3    1
     6     4     5    2
     7     5     6    1
     8     6     7    2
     9     8     1    1
    10     8     9    1
    11     8    12    1
    12     9    10    1
    13    10    11    1
    14    12    11    1
    15    13    28    1
    16    14    13    1
    17    14    15    1
    18    15    18    2
    19    16    17    1
    20    16    15    1
    21    19    14    2
    22    20    21    2
    23    20    19    1
    24    21    26    1
    25    22    21    1
    26    23    22    1
    27    24    23    1
    28    24    25    1
    29    25    45    1
    30    26    27    1
    31    26    13    2
    32    28    43    1
    33    29    32    1
    34    29    48    1
    35    31    48    1
    36    33    37    2
    37    33    30    2
    38    35    44    1
    39    36    34    1
    40    37    36    1
    41    37    47    1
    42    38    39    1
    43    40    38    2
    44    41    29    1
    45    42    41    1
    46    43    39    2
    47    43    30    1
    48    44    40    1
    49    44    28    2
    50    45    42    1
    51    45    31    1
    52    46    47    1
    53    48    46    2
