@<TRIPOS>MOLECULE
outputs/IAG933/test6/raw/output_101_IAG933_linker_design_.xyz
 41 44 0 0 0
SMALL
GASTEIGER

@<TRIPOS>ATOM
      1 C         -24.8550   -1.0120   30.1430 C.3     1  UNL1        0.0750
      2 C         -24.9730   -2.5050   29.7880 C.2     1  UNL1       -0.0181
      3 C         -23.9060   -3.1730   29.1460 C.2     1  UNL1       -0.0041
      4 C         -23.9890   -4.5490   28.8530 C.2     1  UNL1       -0.0003
      5 C         -25.1370   -5.2800   29.2050 C.2     1  UNL1       -0.0000
      6 C         -26.2320   -4.6110   29.7840 C.2     1  UNL1       -0.0003
      7 C         -26.1550   -3.2320   30.0650 C.2     1  UNL1       -0.0041
      8 C         -25.3870   -0.6790   31.5710 C.3     1  UNL1        0.0799
      9 C         -25.1890    0.7730   32.0280 C.3     1  UNL1        0.0193
     10 C         -25.3360    0.6840   33.5440 C.3     1  UNL1        0.0202
     11 C         -24.8290   -0.7150   33.9050 C.3     1  UNL1        0.0887
     12 N         -24.7580   -1.4810   32.6460 N.3     1  UNL1       -0.2190
     13 C         -25.6880    1.6140   26.4610 C.2     1  UNL1        0.0405
     14 C         -26.2500    2.9200   26.3950 C.2     1  UNL1        0.0743
     15 C         -25.6420    4.0930   27.1230 C.2     1  UNL1        0.2662
     16 N         -25.6140    5.2520   26.4490 N.am    1  UNL1       -0.1997
     17 C         -25.0260    6.4790   26.9630 C.3     1  UNL1        0.1388
     18 O         -25.1430    3.9660   28.2430 O.2     1  UNL1       -0.2683
     19 C         -27.4380    3.0910   25.6450 C.2     1  UNL1        0.1065
     20 N         -28.0750    2.0890   25.0030 N.2     1  UNL1       -0.2081
     21 C         -27.5430    0.8490   25.0790 C.2     1  UNL1        0.2530
     22 O         -28.1930   -0.2080   24.4770 O.2     1  UNL1       -0.4558
     23 C         -29.4600    0.0050   23.8660 C.3     1  UNL1        0.2426
     24 C         -30.0650   -1.3770   23.5730 C.3     1  UNL1        0.2292
     25 O         -30.7290   -1.8780   24.7210 O.3     1  UNL1       -0.2162
     26 C         -26.3540    0.5760   25.7770 C.2     1  UNL1        0.1909
     27 F         -25.8600   -0.6810   25.7950 F       1  UNL1       -0.1995
     28 C         -27.9756   -0.1177   29.1832 C.2     1  UNL1        0.3427
     29 N         -26.7807   -0.0993   29.2472 N.am    1  UNL1       -0.1705
     30 C         -22.7875    1.2579   27.4756 C.2     1  UNL1        0.2809
     31 O         -30.2415    2.1814   29.5960 O.3     1  UNL1       -0.3136
     32 C         -30.1146    0.7946   29.8962 C.3     1  UNL1        0.2603
     33 C         -30.9008    1.6538   30.6996 C.3     1  UNL1        0.2567
     34 N         -24.9409    1.0201   28.3209 N.3     1  UNL1       -0.1857
     35 O         -28.6254   -0.5083   28.2058 O.2     1  UNL1       -0.2491
     36 N         -31.1598    2.4897   31.9203 N.3     1  UNL1       -0.0954
     37 N         -21.9011    1.9235   26.7356 N.am    1  UNL1       -0.0863
     38 C         -24.2934    1.3396   27.0896 C.3     1  UNL1        0.1785
     39 O         -22.3938    0.5498   28.4125 O.2     1  UNL1       -0.2698
     40 N         -28.6623    0.5901   30.1377 N.am    1  UNL1       -0.1553
     41 C         -25.3795   -0.2468   28.8814 C.3     1  UNL1        0.1753
@<TRIPOS>BOND
     1     1    41    1
     2     2     7    1
     3     2     1    1
     4     3     2    2
     5     4     3    1
     6     4     5    2
     7     5     6    1
     8     6     7    2
     9     8     1    1
    10     8     9    1
    11     8    12    1
    12     9    10    1
    13    10    11    1
    14    12    11    1
    15    13    38    1
    16    14    13    1
    17    14    15    1
    18    15    18    2
    19    16    17    1
    20    16    15    1
    21    19    14    2
    22    20    21    2
    23    20    19    1
    24    21    26    1
    25    22    21    1
    26    23    22    1
    27    24    23    1
    28    24    25    1
    29    26    27    1
    30    26    13    2
    31    28    29    1
    32    28    40    1
    33    30    39    2
    34    31    32    1
    35    31    33    1
    36    32    40    1
    37    32    33    1
    38    33    36    1
    39    35    28    2
    40    37    30    1
    41    38    30    1
    42    38    34    1
    43    41    34    1
    44    41    29    1
