@<TRIPOS>MOLECULE
No_1010-gen_results/8p0m/2024-11-27-11-27-31/
 31 33 0 0 0
SMALL
GASTEIGER

@<TRIPOS>ATOM
      1 C         -28.0162   -0.8135   28.8779 C.ar    1  UNL1       -0.0034
      2 C         -28.4690   -0.7850   29.8287 C.ar    1  UNL1       -0.0003
      3 C         -28.1960    0.3478   28.0550 C.ar    1  UNL1       -0.0119
      4 C         -29.0191    1.3501   28.3782 C.ar    1  UNL1       -0.0034
      5 C         -29.6249    1.2683   29.6012 C.ar    1  UNL1       -0.0003
      6 C         -29.3791    0.1470   30.3923 C.ar    1  UNL1       -0.0000
      7 C         -27.4550    0.3821   26.7102 C.3     1  UNL1        0.0792
      8 BR        -27.9781    0.9476   25.1965 Br      1  UNL1       -0.0769
      9 C         -25.9856    0.0265   26.7273 C.3     1  UNL1        0.0158
     10 C         -25.0708    0.8894   26.1498 C.3     1  UNL1        0.0017
     11 C         -24.4243    1.9434   26.9508 C.3     1  UNL1        0.0096
     12 C         -24.8274    2.3395   27.9865 C.3     1  UNL1        0.0853
     13 C         -24.1281    1.7358   29.2155 C.2     1  UNL1        0.2257
     14 O         -22.9626    1.5219   29.1775 O.2     1  UNL1       -0.2749
     15 N         -24.7783    1.6662   30.4176 N.am    1  UNL1       -0.2771
     16 C         -24.1806    0.9841   31.5829 C.3     1  UNL1        0.1149
     17 C         -26.1991    1.9334   30.4928 C.3     1  UNL1        0.1037
     18 C         -26.4513    3.0086   31.5678 C.3     1  UNL1        0.0823
     19 C         -26.8049    2.6072   32.6846 C.ar    1  UNL1       -0.0152
     20 C         -27.4076    1.5781   33.0196 C.ar    1  UNL1       -0.0039
     21 C         -27.7112    1.1809   34.4062 C.ar    1  UNL1       -0.0003
     22 C         -27.4774    2.1117   35.3779 C.ar    1  UNL1       -0.0000
     23 C         -26.8817    3.3222   35.1111 C.ar    1  UNL1       -0.0003
     24 C         -26.5504    3.6049   33.8111 C.ar    1  UNL1       -0.0039
     25 C         -26.4957    4.3588   30.9863 C.ar    1  UNL1        0.0644
     26 N         -25.4949    5.1713   31.0847 N.ar    1  UNL1       -0.2481
     27 C         -25.4702    6.4024   30.3885 C.ar    1  UNL1        0.0942
     28 C         -27.7297    4.8804   30.5096 C.ar    1  UNL1        0.0148
     29 C         -27.7916    6.1175   29.8568 C.ar    1  UNL1       -0.0015
     30 C         -26.6258    6.8941   29.8953 C.ar    1  UNL1       -0.0027
     31 C         -26.6321    8.2290   29.2290 C.3     1  UNL1        0.0327
@<TRIPOS>BOND
     1     3     7    1
     2     7     8    1
     3     7     9    1
     4     9    10    1
     5    10    11    1
     6    11    12    1
     7    12    13    1
     8    13    14    2
     9    13    15   am
    10    15    16    1
    11    15    17    1
    12    17    18    1
    13    18    19    1
    14    18    25    1
    15    30    31    1
    16     1     2   ar
    17     2     6   ar
    18     6     5   ar
    19     5     4   ar
    20     4     3   ar
    21     3     1   ar
    22    25    26   ar
    23    26    27   ar
    24    27    30   ar
    25    30    29   ar
    26    29    28   ar
    27    28    25   ar
    28    19    20   ar
    29    20    21   ar
    30    21    22   ar
    31    22    23   ar
    32    23    24   ar
    33    24    19   ar
