@<TRIPOS>MOLECULE
No_1014-gen_results/8p0m/2024-11-27-11-27-31/
 21 23 0 0 0
SMALL
GASTEIGER

@<TRIPOS>ATOM
      1 C         -28.0162   -0.8135   28.8779 C.ar    1  UNL1        0.0293
      2 C         -27.0636   -0.1190   28.6079 C.ar    1  UNL1       -0.0017
      3 C         -25.7923   -0.4302   29.0761 C.ar    1  UNL1       -0.0002
      4 C         -25.5756   -1.5654   29.9363 C.ar    1  UNL1        0.0023
      5 C         -26.7354   -2.3004   30.2173 C.ar    1  UNL1        0.0296
      6 C         -27.9184   -1.9537   29.7629 C.ar    1  UNL1        0.1401
      7 F         -28.9649   -2.6957   30.0722 F       1  UNL1       -0.2042
      8 C         -24.5349    0.3595   28.8024 C.ar    1  UNL1       -0.0000
      9 C         -23.3564    0.0095   29.1902 C.ar    1  UNL1       -0.0000
     10 C         -22.1810    0.7788   28.8104 C.ar    1  UNL1       -0.0000
     11 C         -22.3132    1.7458   27.7943 C.ar    1  UNL1       -0.0000
     12 C         -24.7221    1.5754   27.9908 C.ar    1  UNL1       -0.0003
     13 C         -25.9530    1.9576   27.5155 C.ar    1  UNL1       -0.0043
     14 C         -23.5381    2.2510   27.5016 C.ar    1  UNL1       -0.0000
     15 C         -27.1386    1.1151   27.7799 C.ar    1  UNL1       -0.0218
     16 C         -28.2772    1.9465   28.2021 C.3     1  UNL1        0.0310
     17 C         -28.2678    2.6296   29.3455 C.3     1  UNL1        0.0308
     18 C         -27.4161    3.6568   29.4449 C.2     1  UNL1       -0.0241
     19 C         -26.7104    3.8757   30.6602 C.2     1  UNL1        0.0179
     20 C         -25.8070    5.0027   30.7904 C.2     1  UNL1        0.1218
     21 N         -25.9767    5.9639   30.2656 N.2     1  UNL1       -0.1464
@<TRIPOS>BOND
     1     6     7    1
     2    15    16    1
     3    16    17    1
     4    17    18    1
     5    18    19    2
     6    19    20    1
     7    20    21    2
     8     1     2   ar
     9     3     4   ar
    10     4     5   ar
    11     5     6   ar
    12     6     1   ar
    13     8     9   ar
    14     9    10   ar
    15    10    11   ar
    16    11    14   ar
    17    14    12   ar
    18     2     3   ar
    19     3     8   ar
    20     8    12   ar
    21    12    13   ar
    22    13    15   ar
    23    15     2   ar
