@<TRIPOS>MOLECULE
outputs/IAG933/test6/raw/output_1015_IAG933_linker_design_.xyz
 43 48 0 0 0
SMALL
GASTEIGER

@<TRIPOS>ATOM
      1 C         -24.8550   -1.0120   30.1430 C.3     1  UNL1        0.0990
      2 C         -24.9730   -2.5050   29.7880 C.2     1  UNL1       -0.0063
      3 C         -23.9060   -3.1730   29.1460 C.2     1  UNL1       -0.0029
      4 C         -23.9890   -4.5490   28.8530 C.2     1  UNL1       -0.0003
      5 C         -25.1370   -5.2800   29.2050 C.2     1  UNL1       -0.0000
      6 C         -26.2320   -4.6110   29.7840 C.2     1  UNL1       -0.0003
      7 C         -26.1550   -3.2320   30.0650 C.2     1  UNL1       -0.0029
      8 C         -25.3870   -0.6790   31.5710 C.3     1  UNL1        0.1114
      9 C         -25.1890    0.7730   32.0280 C.3     1  UNL1        0.1143
     10 C         -25.3360    0.6840   33.5440 C.3     1  UNL1        0.0419
     11 C         -24.8290   -0.7150   33.9050 C.3     1  UNL1        0.0906
     12 N         -24.7580   -1.4810   32.6460 N.3     1  UNL1       -0.2159
     13 C         -25.6880    1.6140   26.4610 C.3     1  UNL1        0.1315
     14 C         -26.2500    2.9200   26.3950 C.2     1  UNL1        0.0697
     15 C         -25.6420    4.0930   27.1230 C.2     1  UNL1        0.2637
     16 N         -25.6140    5.2520   26.4490 N.am    1  UNL1       -0.2000
     17 C         -25.0260    6.4790   26.9630 C.3     1  UNL1        0.1388
     18 O         -25.1430    3.9660   28.2430 O.2     1  UNL1       -0.2686
     19 C         -27.4380    3.0910   25.6450 C.2     1  UNL1        0.1035
     20 N         -28.0750    2.0890   25.0030 N.2     1  UNL1       -0.2118
     21 C         -27.5430    0.8490   25.0790 C.2     1  UNL1        0.2355
     22 O         -28.1930   -0.2080   24.4770 O.2     1  UNL1       -0.4585
     23 C         -29.4600    0.0050   23.8660 C.3     1  UNL1        0.2423
     24 C         -30.0650   -1.3770   23.5730 C.3     1  UNL1        0.2292
     25 O         -30.7290   -1.8780   24.7210 O.3     1  UNL1       -0.2162
     26 C         -26.3540    0.5760   25.7770 C.3     1  UNL1        0.2547
     27 F         -25.8600   -0.6810   25.7950 F       1  UNL1       -0.2254
     28 C         -21.9847    0.7044   28.4927 C.3     1  UNL1        0.1431
     29 O         -23.3207    2.4776   25.2926 O.2     1  UNL1       -0.2688
     30 C         -21.6086   -0.3570   29.4154 C.3     1  UNL1        0.0530
     31 C         -20.9833    1.1442   27.6097 C.2     1  UNL1        0.0903
     32 C         -22.7829    2.0071   26.3443 C.2     1  UNL1        0.2889
     33 C         -23.6681    1.5396   27.4602 C.3     1  UNL1        0.2584
     34 N         -21.4215    1.8711   26.5560 N.am    1  UNL1       -0.1769
     35 N         -24.8157    1.1213   27.4176 N.3     1  UNL1       -0.2231
     36 N         -24.3692   -0.3704   28.9376 N.3     1  UNL1       -0.2538
     37 N         -25.3911    1.7600   31.0424 N.am    1  UNL1       -0.2056
     38 O         -24.0245    3.2392   31.9907 O.2     1  UNL1       -0.2733
     39 C         -22.8710   -0.5294   29.0148 C.3     1  UNL1        0.0919
     40 C         -25.1690   -0.0653   28.0918 C.3     1  UNL1        0.1521
     41 O         -22.8609    1.5598   28.5914 O.3     1  UNL1       -0.3314
     42 C         -25.0653    3.0350   31.4076 C.2     1  UNL1        0.2419
     43 C         -25.9828    4.2098   31.1375 C.3     1  UNL1        0.0964
@<TRIPOS>BOND
     1     1     2    1
     2     2     7    1
     3     3     2    2
     4     4     3    1
     5     4     5    2
     6     5     6    1
     7     6     7    2
     8     8     1    1
     9     8     9    1
    10     8    12    1
    11     9    37    1
    12     9    10    1
    13    10    11    1
    14    12    11    1
    15    13    14    1
    16    13    35    1
    17    14    15    1
    18    15    18    2
    19    16    17    1
    20    16    15    1
    21    19    14    2
    22    20    21    2
    23    20    19    1
    24    21    26    1
    25    22    21    1
    26    23    22    1
    27    24    23    1
    28    24    25    1
    29    26    27    1
    30    26    13    1
    31    28    31    1
    32    28    41    1
    33    28    39    1
    34    28    30    1
    35    29    32    2
    36    32    34    1
    37    33    32    1
    38    33    41    1
    39    34    31    2
    40    35    33    1
    41    35    40    1
    42    36    39    1
    43    36     1    1
    44    37    42    1
    45    39    30    1
    46    40    36    1
    47    42    38    2
    48    43    42    1
