@<TRIPOS>MOLECULE
No_1017-gen_results/8p0m/2024-11-27-11-27-31/
 12 12 0 0 0
SMALL
GASTEIGER

@<TRIPOS>ATOM
      1 C         -28.0162   -0.8135   28.8779 C.ar    1  UNL1        0.0165
      2 C         -28.4690   -0.7850   29.8287 C.ar    1  UNL1        0.0013
      3 C         -27.1356    0.2359   28.5352 C.ar    1  UNL1        0.0705
      4 C         -26.8745    1.2825   29.3982 C.ar    1  UNL1        0.0165
      5 C         -28.3613    0.1987   30.9244 C.ar    1  UNL1        0.0001
      6 C         -27.5277    1.2234   30.6356 C.ar    1  UNL1        0.0013
      7 N         -26.4487    0.2864   27.3121 N.pl3   1  UNL1       -0.2112
      8 C         -25.5451    1.2898   27.0262 C.2     1  UNL1        0.0856
      9 C         -24.3351    1.2075   27.1164 C.2     1  UNL1        0.0175
     10 C         -23.5683    0.1918   27.8203 C.2     1  UNL1       -0.0032
     11 C         -22.2061    0.3511   28.2139 C.2     1  UNL1       -0.0257
     12 C         -21.5075    1.4532   27.7185 C.3     1  UNL1        0.0307
@<TRIPOS>BOND
     1     3     7    1
     2     7     8    1
     3     8     9    2
     4     9    10    1
     5    10    11    2
     6    11    12    1
     7     1     2   ar
     8     2     5   ar
     9     5     6   ar
    10     6     4   ar
    11     4     3   ar
    12     3     1   ar
