@<TRIPOS>MOLECULE
No_1018-gen_results/8p0m/2024-11-27-11-27-31/
 13 13 0 0 0
SMALL
GASTEIGER

@<TRIPOS>ATOM
      1 C         -28.0162   -0.8135   28.8779 C.2     1  UNL1        0.0777
      2 C         -27.0636   -0.1189   28.6079 C.2     1  UNL1       -0.0377
      3 C         -26.9716    0.7139   27.5060 C.3     1  UNL1        0.0222
      4 C         -25.8205    1.4909   27.1160 C.3     1  UNL1        0.0044
      5 C         -24.8579    1.3421   27.6008 C.3     1  UNL1        0.0007
      6 C         -24.6224    0.5295   28.8144 C.3     1  UNL1        0.0040
      7 C         -23.3412    0.3976   29.5010 C.3     1  UNL1        0.0003
      8 C         -25.7444   -0.2202   29.2289 C.3     1  UNL1        0.0222
      9 C         -23.2738    0.2784   30.8350 C.3     1  UNL1        0.0000
     10 C         -22.1126    0.4001   28.7436 C.3     1  UNL1        0.0000
     11 C         -29.2092   -0.0765   29.3287 C.2     1  UNL1        0.3873
     12 O         -30.1744   -0.7641   29.7253 O.co2   1  UNL1       -0.2406
     13 O         -29.2928    1.1263   29.2551 O.co2   1  UNL1       -0.2406
@<TRIPOS>BOND
     1     1     2    2
     2     2     3    1
     3     3     4    1
     4     4     5    1
     5     5     6    1
     6     6     7    1
     7     2     8    1
     8     6     8    1
     9     7     9    1
    10     7    10    1
    11     1    11    1
    12    11    12   ar
    13    11    13   ar
