@<TRIPOS>MOLECULE
No_1021-gen_results/8p0m/2024-11-27-11-27-31/
 25 28 0 0 0
SMALL
GASTEIGER

@<TRIPOS>ATOM
      1 C         -28.0162   -0.8135   28.8779 C.ar    1  UNL1        0.0359
      2 C         -28.4690   -0.7850   29.8287 C.ar    1  UNL1        0.1632
      3 C         -28.1816    0.4277   28.1134 C.ar    1  UNL1        0.0042
      4 C         -27.4498    0.6435   26.8500 C.ar    1  UNL1        0.0150
      5 C         -26.1815    0.0357   26.7145 C.ar    1  UNL1        0.0657
      6 C         -25.7800   -0.9326   27.6938 C.ar    1  UNL1        0.0162
      7 C         -26.5568   -1.2134   28.7413 C.ar    1  UNL1        0.0044
      8 N         -29.6101   -0.2783   30.1938 N.ar    1  UNL1       -0.2151
      9 N         -28.1839   -1.9973   30.7659 N.ar    1  UNL1       -0.2250
     10 C         -30.4344   -0.6399   31.3293 C.ar    1  UNL1        0.1415
     11 C         -28.9716   -2.3785   31.8081 C.ar    1  UNL1        0.1030
     12 C         -30.0390   -1.6312   32.1454 C.ar    1  UNL1        0.0515
     13 N         -25.1937    0.1793   25.7679 N.pl3   1  UNL1       -0.2328
     14 C         -24.7527    1.4249   25.4421 C.3     1  UNL1        0.1385
     15 C         -23.7646    1.9880   26.3718 C.ar    1  UNL1       -0.0007
     16 C         -22.4988    1.9591   26.2191 C.ar    1  UNL1       -0.0026
     17 C         -21.6632    2.3134   27.3953 C.ar    1  UNL1       -0.0003
     18 C         -24.3311    2.4256   27.6646 C.ar    1  UNL1       -0.0026
     19 C         -23.5345    2.6891   28.8054 C.ar    1  UNL1       -0.0003
     20 C         -22.1589    2.5786   28.6426 C.ar    1  UNL1       -0.0000
     21 CL        -31.9170    0.1957   31.4639 Cl      1  UNL1       -0.0612
     22 C         -27.7907    1.6990   25.9495 C.ar    1  UNL1        0.0013
     23 C         -28.7175    2.5196   26.4017 C.ar    1  UNL1        0.0000
     24 C         -29.5573    2.2054   27.5158 C.ar    1  UNL1        0.0000
     25 C         -29.2648    1.2065   28.3320 C.ar    1  UNL1        0.0001
@<TRIPOS>BOND
     1     1     2    1
     2     5    13    1
     3    13    14    1
     4    14    15    1
     5    10    21    1
     6     2     8   ar
     7     8    10   ar
     8    10    12   ar
     9    12    11   ar
    10    11     9   ar
    11     9     2   ar
    12     4    22   ar
    13    22    23   ar
    14    23    24   ar
    15    24    25   ar
    16    25     3   ar
    17    15    16   ar
    18    16    17   ar
    19    17    20   ar
    20    20    19   ar
    21    19    18   ar
    22    18    15   ar
    23     1     3   ar
    24     3     4   ar
    25     4     5   ar
    26     5     6   ar
    27     6     7   ar
    28     7     1   ar
