@<TRIPOS>MOLECULE
outputs/IAG933/test6/raw/output_1023_IAG933_linker_design_.xyz
 43 47 0 0 0
SMALL
GASTEIGER

@<TRIPOS>ATOM
      1 C         -24.8550   -1.0120   30.1430 C.3     1  UNL1        0.0438
      2 C         -24.9730   -2.5050   29.7880 C.2     1  UNL1       -0.0208
      3 C         -23.9060   -3.1730   29.1460 C.2     1  UNL1       -0.0042
      4 C         -23.9890   -4.5490   28.8530 C.2     1  UNL1       -0.0003
      5 C         -25.1370   -5.2800   29.2050 C.2     1  UNL1       -0.0000
      6 C         -26.2320   -4.6110   29.7840 C.2     1  UNL1       -0.0003
      7 C         -26.1550   -3.2320   30.0650 C.2     1  UNL1       -0.0042
      8 C         -25.3870   -0.6790   31.5710 C.3     1  UNL1        0.0798
      9 C         -25.1890    0.7730   32.0280 C.3     1  UNL1        0.0508
     10 C         -25.3360    0.6840   33.5440 C.3     1  UNL1        0.0230
     11 C         -24.8290   -0.7150   33.9050 C.3     1  UNL1        0.0888
     12 N         -24.7580   -1.4810   32.6460 N.3     1  UNL1       -0.2190
     13 C         -25.6880    1.6140   26.4610 C.3     1  UNL1        0.0938
     14 C         -26.2500    2.9200   26.3950 C.2     1  UNL1        0.0589
     15 C         -25.6420    4.0930   27.1230 C.2     1  UNL1        0.2628
     16 N         -25.6140    5.2520   26.4490 N.am    1  UNL1       -0.2000
     17 C         -25.0260    6.4790   26.9630 C.3     1  UNL1        0.1388
     18 O         -25.1430    3.9660   28.2430 O.2     1  UNL1       -0.2686
     19 C         -27.4380    3.0910   25.6450 C.2     1  UNL1        0.1025
     20 N         -28.0750    2.0890   25.0030 N.2     1  UNL1       -0.2118
     21 C         -27.5430    0.8490   25.0790 C.2     1  UNL1        0.2344
     22 O         -28.1930   -0.2080   24.4770 O.2     1  UNL1       -0.4585
     23 C         -29.4600    0.0050   23.8660 C.3     1  UNL1        0.2423
     24 C         -30.0650   -1.3770   23.5730 C.3     1  UNL1        0.2292
     25 O         -30.7290   -1.8780   24.7210 O.3     1  UNL1       -0.2162
     26 C         -26.3540    0.5760   25.7770 C.3     1  UNL1        0.2440
     27 F         -25.8600   -0.6810   25.7950 F       1  UNL1       -0.2265
     28 C         -25.8544    5.5887   34.2970 C.3     1  UNL1        0.0346
     29 C         -23.3609    1.8547   25.6798 C.2     1  UNL1       -0.0024
     30 O         -26.0246    7.1046   32.3503 O.3     1  UNL1       -0.3512
     31 C         -24.9466    4.9309   32.2368 C.3     1  UNL1        0.1452
     32 O         -24.7561    3.8009   31.5072 O.3     1  UNL1       -0.3501
     33 C         -23.7639    1.4022   28.0625 C.2     1  UNL1        0.0775
     34 C         -24.2323    1.5975   26.7337 C.2     1  UNL1        0.0026
     35 C         -24.3979    2.0931   31.7190 C.3     1  UNL1        0.1574
     36 C         -25.4898    6.9619   33.6751 C.3     1  UNL1        0.1424
     37 N         -24.5988    1.3206   29.1831 N.2     1  UNL1       -0.2463
     38 C         -21.9732    1.8593   25.8733 C.2     1  UNL1       -0.0002
     39 C         -21.4348    1.5401   27.0881 C.2     1  UNL1        0.0015
     40 C         -25.5599    6.0699   31.4978 C.3     1  UNL1        0.1715
     41 C         -22.3224    1.3032   28.1342 C.2     1  UNL1        0.0188
     42 C         -25.9564    4.4633   33.2844 C.3     1  UNL1        0.0348
     43 C         -24.0949    1.7728   30.2882 C.2     1  UNL1        0.1017
@<TRIPOS>BOND
     1     2     7    1
     2     2     1    1
     3     3     2    2
     4     4     3    1
     5     4     5    2
     6     5     6    1
     7     6     7    2
     8     8     1    1
     9     8     9    1
    10     8    12    1
    11     9    35    1
    12     9    10    1
    13    10    11    1
    14    12    11    1
    15    13    34    1
    16    14    13    1
    17    14    15    1
    18    15    18    2
    19    16    17    1
    20    16    15    1
    21    19    14    2
    22    20    21    2
    23    20    19    1
    24    21    26    1
    25    22    21    1
    26    23    22    1
    27    24    23    1
    28    24    25    1
    29    26    27    1
    30    26    13    1
    31    29    38    2
    32    29    34    1
    33    30    36    1
    34    31    32    1
    35    31    42    1
    36    32    35    1
    37    33    41    1
    38    33    37    1
    39    34    33    2
    40    35    43    1
    41    36    28    1
    42    37    43    2
    43    38    39    1
    44    39    41    2
    45    40    31    1
    46    40    30    1
    47    42    28    1
