@<TRIPOS>MOLECULE
outputs/IAG933/test6/raw/output_1024_IAG933_linker_design_.xyz
 40 43 0 0 0
SMALL
GASTEIGER

@<TRIPOS>ATOM
      1 C         -24.8550   -1.0120   30.1430 C.3     1  UNL1        0.0893
      2 C         -24.9730   -2.5050   29.7880 C.2     1  UNL1       -0.0167
      3 C         -23.9060   -3.1730   29.1460 C.2     1  UNL1       -0.0041
      4 C         -23.9890   -4.5490   28.8530 C.2     1  UNL1       -0.0003
      5 C         -25.1370   -5.2800   29.2050 C.2     1  UNL1       -0.0000
      6 C         -26.2320   -4.6110   29.7840 C.2     1  UNL1       -0.0003
      7 C         -26.1550   -3.2320   30.0650 C.2     1  UNL1       -0.0041
      8 C         -25.3870   -0.6790   31.5710 C.3     1  UNL1        0.0812
      9 C         -25.1890    0.7730   32.0280 C.3     1  UNL1        0.0193
     10 C         -25.3360    0.6840   33.5440 C.3     1  UNL1        0.0202
     11 C         -24.8290   -0.7150   33.9050 C.3     1  UNL1        0.0887
     12 N         -24.7580   -1.4810   32.6460 N.3     1  UNL1       -0.2190
     13 C         -25.6880    1.6140   26.4610 C.2     1  UNL1        0.0376
     14 C         -26.2500    2.9200   26.3950 C.2     1  UNL1        0.0765
     15 C         -25.6420    4.0930   27.1230 C.2     1  UNL1        0.2664
     16 N         -25.6140    5.2520   26.4490 N.am    1  UNL1       -0.1997
     17 C         -25.0260    6.4790   26.9630 C.3     1  UNL1        0.1388
     18 O         -25.1430    3.9660   28.2430 O.2     1  UNL1       -0.2683
     19 C         -27.4380    3.0910   25.6450 C.2     1  UNL1        0.1067
     20 N         -28.0750    2.0890   25.0030 N.2     1  UNL1       -0.2081
     21 C         -27.5430    0.8490   25.0790 C.2     1  UNL1        0.2533
     22 O         -28.1930   -0.2080   24.4770 O.2     1  UNL1       -0.4558
     23 C         -29.4600    0.0050   23.8660 C.3     1  UNL1        0.2426
     24 C         -30.0650   -1.3770   23.5730 C.3     1  UNL1        0.2292
     25 O         -30.7290   -1.8780   24.7210 O.3     1  UNL1       -0.2162
     26 C         -26.3540    0.5760   25.7770 C.2     1  UNL1        0.1930
     27 F         -25.8600   -0.6810   25.7950 F       1  UNL1       -0.1992
     28 C         -21.8405    1.1521   28.4076 C.2     1  UNL1       -0.0216
     29 C         -22.2030    1.9450   26.0711 C.2     1  UNL1       -0.0003
     30 N         -26.4607    1.6466   29.6747 N.am    1  UNL1       -0.1749
     31 C         -25.8928    3.7058   31.1755 C.3     1  UNL1        0.0965
     32 O         -27.9983    2.9100   30.6293 O.2     1  UNL1       -0.2732
     33 O         -26.5827   -0.4987   28.5044 O.3     1  UNL1       -0.1987
     34 C         -21.4329    1.6306   27.1237 C.2     1  UNL1       -0.0042
     35 C         -23.6149    1.7268   25.9848 C.2     1  UNL1       -0.0004
     36 C         -23.0723    0.7813   28.8440 C.3     1  UNL1        0.0521
     37 C         -26.8122    2.6945   30.4583 C.2     1  UNL1        0.2441
     38 C         -25.5726    0.2588   29.2559 C.3     1  UNL1        0.2241
     39 C         -24.5375    1.4457   26.9466 C.2     1  UNL1       -0.0012
     40 C         -24.4045    0.8478   28.3397 C.2     1  UNL1        0.0067
@<TRIPOS>BOND
     1     1    38    1
     2     2     7    1
     3     2     1    1
     4     3     2    2
     5     4     3    1
     6     4     5    2
     7     5     6    1
     8     6     7    2
     9     8     1    1
    10     8     9    1
    11     8    12    1
    12     9    10    1
    13    10    11    1
    14    12    11    1
    15    13    39    1
    16    14    13    1
    17    14    15    1
    18    15    18    2
    19    16    17    1
    20    16    15    1
    21    19    14    2
    22    20    21    2
    23    20    19    1
    24    21    26    1
    25    22    21    1
    26    23    22    1
    27    24    23    1
    28    24    25    1
    29    26    27    1
    30    26    13    2
    31    28    36    1
    32    29    34    1
    33    30    37    1
    34    34    28    2
    35    35    29    2
    36    35    39    1
    37    37    32    2
    38    37    31    1
    39    38    33    1
    40    38    30    1
    41    39    40    2
    42    40    36    1
    43    40    38    1
