@<TRIPOS>MOLECULE
outputs/IAG933/test6/raw/output_1025_IAG933_linker_design_.xyz
 41 44 0 0 0
SMALL
GASTEIGER

@<TRIPOS>ATOM
      1 C         -24.8550   -1.0120   30.1430 C.3     1  UNL1        0.0987
      2 C         -24.9730   -2.5050   29.7880 C.2     1  UNL1       -0.0063
      3 C         -23.9060   -3.1730   29.1460 C.2     1  UNL1       -0.0029
      4 C         -23.9890   -4.5490   28.8530 C.2     1  UNL1       -0.0003
      5 C         -25.1370   -5.2800   29.2050 C.2     1  UNL1       -0.0000
      6 C         -26.2320   -4.6110   29.7840 C.2     1  UNL1       -0.0003
      7 C         -26.1550   -3.2320   30.0650 C.2     1  UNL1       -0.0029
      8 C         -25.3870   -0.6790   31.5710 C.3     1  UNL1        0.0916
      9 C         -25.1890    0.7730   32.0280 C.3     1  UNL1        0.0206
     10 C         -25.3360    0.6840   33.5440 C.3     1  UNL1        0.0203
     11 C         -24.8290   -0.7150   33.9050 C.3     1  UNL1        0.0888
     12 N         -24.7580   -1.4810   32.6460 N.3     1  UNL1       -0.2178
     13 C         -25.6880    1.6140   26.4610 C.2     1  UNL1        0.0379
     14 C         -26.2500    2.9200   26.3950 C.2     1  UNL1        0.0764
     15 C         -25.6420    4.0930   27.1230 C.2     1  UNL1        0.2664
     16 N         -25.6140    5.2520   26.4490 N.am    1  UNL1       -0.1997
     17 C         -25.0260    6.4790   26.9630 C.3     1  UNL1        0.1388
     18 O         -25.1430    3.9660   28.2430 O.2     1  UNL1       -0.2683
     19 C         -27.4380    3.0910   25.6450 C.2     1  UNL1        0.1067
     20 N         -28.0750    2.0890   25.0030 N.2     1  UNL1       -0.2081
     21 C         -27.5430    0.8490   25.0790 C.2     1  UNL1        0.2533
     22 O         -28.1930   -0.2080   24.4770 O.2     1  UNL1       -0.4558
     23 C         -29.4600    0.0050   23.8660 C.3     1  UNL1        0.2426
     24 C         -30.0650   -1.3770   23.5730 C.3     1  UNL1        0.2292
     25 O         -30.7290   -1.8780   24.7210 O.3     1  UNL1       -0.2162
     26 C         -26.3540    0.5760   25.7770 C.2     1  UNL1        0.1929
     27 F         -25.8600   -0.6810   25.7950 F       1  UNL1       -0.1992
     28 O         -21.9891   -0.3409   30.0839 O.2     1  UNL1       -0.2885
     29 C         -25.8937   -0.1352   28.5896 C.3     1  UNL1        0.2597
     30 N         -24.7819   -0.0441   29.0103 N.3     1  UNL1       -0.2347
     31 C         -24.3519    1.4576   26.9948 C.2     1  UNL1        0.0289
     32 C         -20.3862   -0.0484   28.3442 C.3     1  UNL1        0.2613
     33 C         -22.1897    1.6367   27.0442 C.2     1  UNL1        0.1675
     34 C         -23.2726    2.1503   26.4051 C.2     1  UNL1        0.1649
     35 F         -23.3122    2.9142   25.3712 F       1  UNL1       -0.2021
     36 F         -21.0381    1.8457   26.4761 F       1  UNL1       -0.2020
     37 C         -21.6727    0.0064   28.8922 C.2     1  UNL1        0.2085
     38 F         -19.8070    1.1094   28.4492 F       1  UNL1       -0.2254
     39 C         -23.9461    0.6824   28.1095 C.3     1  UNL1        0.1126
     40 O         -26.9116   -0.3624   28.4764 O.3     1  UNL1       -0.2005
     41 C         -22.5591    0.7413   28.0758 C.2     1  UNL1        0.0637
@<TRIPOS>BOND
     1     1    30    1
     2     2     7    1
     3     2     1    1
     4     3     2    2
     5     4     3    1
     6     4     5    2
     7     5     6    1
     8     6     7    2
     9     8     1    1
    10     8     9    1
    11     8    12    1
    12     9    10    1
    13    10    11    1
    14    12    11    1
    15    13    31    1
    16    14    13    1
    17    14    15    1
    18    15    18    2
    19    16    17    1
    20    16    15    1
    21    19    14    2
    22    20    21    2
    23    20    19    1
    24    21    26    1
    25    22    21    1
    26    23    22    1
    27    24    23    1
    28    24    25    1
    29    26    27    1
    30    26    13    2
    31    29    30    1
    32    31    39    1
    33    32    38    1
    34    32    37    1
    35    33    41    2
    36    34    31    2
    37    34    33    1
    38    35    34    1
    39    36    33    1
    40    37    28    2
    41    39    30    1
    42    40    29    1
    43    41    39    1
    44    41    37    1
