@<TRIPOS>MOLECULE
No_1026-gen_results/8p0m/2024-11-27-11-27-31/
 6 5 0 0 0
SMALL
GASTEIGER

@<TRIPOS>ATOM
      1 C         -28.0162   -0.8135   28.8779 C.3     1  UNL1        0.0466
      2 C         -27.0636   -0.1189   28.6079 C.2     1  UNL1        0.0668
      3 N         -26.9515    1.1286   28.9566 N.2     1  UNL1       -0.2714
      4 C         -29.1088   -0.2102   29.6318 C.3     1  UNL1        0.0063
      5 C         -29.0881    1.0629   29.9416 C.3     1  UNL1        0.0004
      6 C         -25.7670    1.9487   28.6006 C.3     1  UNL1        0.1513
@<TRIPOS>BOND
     1     1     2    1
     2     2     3    2
     3     1     4    1
     4     4     5    1
     5     3     6    1
