@<TRIPOS>MOLECULE
outputs/IAG933/test6/raw/output_1029_IAG933_linker_design_.xyz
 43 46 0 0 0
SMALL
GASTEIGER

@<TRIPOS>ATOM
      1 C         -24.8550   -1.0120   30.1430 C.3     1  UNL1        0.1476
      2 C         -24.9730   -2.5050   29.7880 C.2     1  UNL1        0.0017
      3 C         -23.9060   -3.1730   29.1460 C.2     1  UNL1       -0.0023
      4 C         -23.9890   -4.5490   28.8530 C.2     1  UNL1       -0.0003
      5 C         -25.1370   -5.2800   29.2050 C.2     1  UNL1       -0.0000
      6 C         -26.2320   -4.6110   29.7840 C.2     1  UNL1       -0.0003
      7 C         -26.1550   -3.2320   30.0650 C.2     1  UNL1       -0.0023
      8 C         -25.3870   -0.6790   31.5710 C.3     1  UNL1        0.0998
      9 C         -25.1890    0.7730   32.0280 C.3     1  UNL1        0.0212
     10 C         -25.3360    0.6840   33.5440 C.3     1  UNL1        0.0203
     11 C         -24.8290   -0.7150   33.9050 C.3     1  UNL1        0.0888
     12 N         -24.7580   -1.4810   32.6460 N.3     1  UNL1       -0.2171
     13 C         -25.6880    1.6140   26.4610 C.2     1  UNL1        0.0396
     14 C         -26.2500    2.9200   26.3950 C.2     1  UNL1        0.0766
     15 C         -25.6420    4.0930   27.1230 C.2     1  UNL1        0.2664
     16 N         -25.6140    5.2520   26.4490 N.am    1  UNL1       -0.1997
     17 C         -25.0260    6.4790   26.9630 C.3     1  UNL1        0.1388
     18 O         -25.1430    3.9660   28.2430 O.2     1  UNL1       -0.2683
     19 C         -27.4380    3.0910   25.6450 C.2     1  UNL1        0.1067
     20 N         -28.0750    2.0890   25.0030 N.2     1  UNL1       -0.2081
     21 C         -27.5430    0.8490   25.0790 C.2     1  UNL1        0.2533
     22 O         -28.1930   -0.2080   24.4770 O.2     1  UNL1       -0.4558
     23 C         -29.4600    0.0050   23.8660 C.3     1  UNL1        0.2426
     24 C         -30.0650   -1.3770   23.5730 C.3     1  UNL1        0.2292
     25 O         -30.7290   -1.8780   24.7210 O.3     1  UNL1       -0.2162
     26 C         -26.3540    0.5760   25.7770 C.2     1  UNL1        0.1931
     27 F         -25.8600   -0.6810   25.7950 F       1  UNL1       -0.1992
     28 C         -29.0998    1.6667   29.6697 C.3     1  UNL1        0.1449
     29 O         -28.2363    2.8014   29.8309 O.3     1  UNL1       -0.3510
     30 C         -24.5060    1.3973   27.2825 C.2     1  UNL1        0.0225
     31 C         -27.6290   -0.4492   28.3777 C.3     1  UNL1        0.3204
     32 F         -20.9075    2.1995   27.0350 F       1  UNL1       -0.2042
     33 C         -23.2333    0.5128   29.1412 C.2     1  UNL1        0.0215
     34 C         -23.3014    1.9442   26.7729 C.2     1  UNL1        0.0312
     35 C         -22.1201    1.7203   27.4714 C.2     1  UNL1        0.1402
     36 C         -30.1263    0.2975   27.8968 C.3     1  UNL1        0.1476
     37 N         -25.5154   -0.0084   29.1738 N.3     1  UNL1       -0.2328
     38 O         -28.8644   -0.3011   27.5428 O.3     1  UNL1       -0.3251
     39 C         -22.0592    1.0379   28.6682 C.2     1  UNL1        0.0312
     40 C         -28.6872    4.0411   29.3017 C.3     1  UNL1        0.1741
     41 C         -29.9209    1.7431   28.3403 C.3     1  UNL1        0.0642
     42 O         -26.7883    0.6394   28.9623 O.3     1  UNL1       -0.2234
     43 C         -24.4822    0.6568   28.5234 C.2     1  UNL1        0.0827
@<TRIPOS>BOND
     1     1    37    1
     2     2     7    1
     3     2     1    1
     4     3     2    2
     5     4     3    1
     6     4     5    2
     7     5     6    1
     8     6     7    2
     9     8     1    1
    10     8     9    1
    11     8    12    1
    12     9    10    1
    13    10    11    1
    14    12    11    1
    15    13    30    1
    16    14    13    1
    17    14    15    1
    18    15    18    2
    19    16    17    1
    20    16    15    1
    21    19    14    2
    22    20    21    2
    23    20    19    1
    24    21    26    1
    25    22    21    1
    26    23    22    1
    27    24    23    1
    28    24    25    1
    29    26    27    1
    30    26    13    2
    31    28    29    1
    32    30    43    1
    33    31    42    1
    34    32    35    1
    35    34    30    2
    36    34    35    1
    37    35    39    2
    38    36    41    1
    39    38    36    1
    40    38    31    1
    41    39    33    1
    42    40    29    1
    43    41    28    1
    44    42    37    1
    45    43    33    2
    46    43    37    1
