@<TRIPOS>MOLECULE
outputs/IAG933/test6/raw/output_103_IAG933_linker_design_.xyz
 45 49 0 0 0
SMALL
GASTEIGER

@<TRIPOS>ATOM
      1 C         -24.8550   -1.0120   30.1430 C.3     1  UNL1        0.0755
      2 C         -24.9730   -2.5050   29.7880 C.2     1  UNL1       -0.0158
      3 C         -23.9060   -3.1730   29.1460 C.2     1  UNL1       -0.0039
      4 C         -23.9890   -4.5490   28.8530 C.2     1  UNL1       -0.0003
      5 C         -25.1370   -5.2800   29.2050 C.2     1  UNL1       -0.0000
      6 C         -26.2320   -4.6110   29.7840 C.2     1  UNL1       -0.0003
      7 C         -26.1550   -3.2320   30.0650 C.2     1  UNL1       -0.0039
      8 C         -25.3870   -0.6790   31.5710 C.3     1  UNL1        0.0821
      9 C         -25.1890    0.7730   32.0280 C.3     1  UNL1        0.0196
     10 C         -25.3360    0.6840   33.5440 C.3     1  UNL1        0.0203
     11 C         -24.8290   -0.7150   33.9050 C.3     1  UNL1        0.0887
     12 N         -24.7580   -1.4810   32.6460 N.3     1  UNL1       -0.2188
     13 C         -25.6880    1.6140   26.4610 C.2     1  UNL1        0.0865
     14 C         -26.2500    2.9200   26.3950 C.2     1  UNL1        0.0899
     15 C         -25.6420    4.0930   27.1230 C.2     1  UNL1        0.2676
     16 N         -25.6140    5.2520   26.4490 N.am    1  UNL1       -0.1997
     17 C         -25.0260    6.4790   26.9630 C.3     1  UNL1        0.1388
     18 O         -25.1430    3.9660   28.2430 O.2     1  UNL1       -0.2683
     19 C         -27.4380    3.0910   25.6450 C.2     1  UNL1        0.1080
     20 N         -28.0750    2.0890   25.0030 N.2     1  UNL1       -0.2080
     21 C         -27.5430    0.8490   25.0790 C.2     1  UNL1        0.2546
     22 O         -28.1930   -0.2080   24.4770 O.2     1  UNL1       -0.4558
     23 C         -29.4600    0.0050   23.8660 C.3     1  UNL1        0.2426
     24 C         -30.0650   -1.3770   23.5730 C.3     1  UNL1        0.2292
     25 O         -30.7290   -1.8780   24.7210 O.3     1  UNL1       -0.2162
     26 C         -26.3540    0.5760   25.7770 C.2     1  UNL1        0.2063
     27 F         -25.8600   -0.6810   25.7950 F       1  UNL1       -0.1979
     28 C         -28.2300   -0.8548   29.5642 C.3     1  UNL1        0.1215
     29 C         -27.4295   -0.9528   28.2848 C.3     1  UNL1        0.1465
     30 C         -24.1688    1.0939   28.6321 C.3     1  UNL1        0.1089
     31 C         -22.1490    1.6737   27.6799 C.3     1  UNL1        0.0218
     32 C         -25.1323    0.0081   29.0309 C.2     1  UNL1        0.0545
     33 C         -28.8872    2.3659   30.4050 C.3     1  UNL1        0.0474
     34 N         -26.3003   -0.1284   28.3865 N.2     1  UNL1       -0.2751
     35 N         -24.4502    1.4082   27.1832 N.pl3   1  UNL1       -0.3022
     36 C         -31.9552   -0.8751   30.0470 C.2     1  UNL1        0.0014
     37 C         -20.6480    1.5814   27.4640 C.3     1  UNL1        0.0018
     38 C         -23.1414    1.5496   26.4843 C.3     1  UNL1        0.0911
     39 C         -31.9904    0.3926   30.5956 C.2     1  UNL1        0.0010
     40 C         -31.2155   -1.2104   28.8984 C.2     1  UNL1        0.0161
     41 C         -30.1058   -0.6422   28.4983 C.2     1  UNL1        0.0652
     42 N         -29.3000    0.0186   29.3485 N.pl3   1  UNL1       -0.2873
     43 C         -29.7241    1.1891   30.0190 C.2     1  UNL1        0.0292
     44 C         -22.6681    0.7792   28.8234 C.3     1  UNL1        0.0272
     45 C         -31.0576    1.3423   30.4813 C.2     1  UNL1        0.0104
@<TRIPOS>BOND
     1     1    32    1
     2     2     7    1
     3     2     1    1
     4     3     2    2
     5     4     3    1
     6     4     5    2
     7     5     6    1
     8     6     7    2
     9     8     1    1
    10     8     9    1
    11     8    12    1
    12     9    10    1
    13    10    11    1
    14    12    11    1
    15    13    35    1
    16    14    13    1
    17    14    15    1
    18    15    18    2
    19    16    17    1
    20    16    15    1
    21    19    14    2
    22    20    21    2
    23    20    19    1
    24    21    26    1
    25    22    21    1
    26    23    22    1
    27    24    23    1
    28    24    25    1
    29    26    27    1
    30    26    13    2
    31    29    34    1
    32    29    28    1
    33    30    44    1
    34    30    32    1
    35    31    37    1
    36    31    44    1
    37    34    32    2
    38    35    30    1
    39    36    39    2
    40    38    35    1
    41    38    31    1
    42    40    36    1
    43    41    40    2
    44    41    42    1
    45    42    28    1
    46    42    43    1
    47    43    33    1
    48    43    45    2
    49    45    39    1
