@<TRIPOS>MOLECULE
outputs/IAG933/test6/raw/output_1030_IAG933_linker_design_.xyz
 43 48 0 0 0
SMALL
GASTEIGER

@<TRIPOS>ATOM
      1 C         -24.8550   -1.0120   30.1430 C.3     1  UNL1        0.0424
      2 C         -24.9730   -2.5050   29.7880 C.2     1  UNL1       -0.0208
      3 C         -23.9060   -3.1730   29.1460 C.2     1  UNL1       -0.0042
      4 C         -23.9890   -4.5490   28.8530 C.2     1  UNL1       -0.0003
      5 C         -25.1370   -5.2800   29.2050 C.2     1  UNL1       -0.0000
      6 C         -26.2320   -4.6110   29.7840 C.2     1  UNL1       -0.0003
      7 C         -26.1550   -3.2320   30.0650 C.2     1  UNL1       -0.0042
      8 C         -25.3870   -0.6790   31.5710 C.3     1  UNL1        0.0771
      9 C         -25.1890    0.7730   32.0280 C.3     1  UNL1        0.0192
     10 C         -25.3360    0.6840   33.5440 C.3     1  UNL1        0.0202
     11 C         -24.8290   -0.7150   33.9050 C.3     1  UNL1        0.0887
     12 N         -24.7580   -1.4810   32.6460 N.3     1  UNL1       -0.2191
     13 C         -25.6880    1.6140   26.4610 C.2     1  UNL1        0.0386
     14 C         -26.2500    2.9200   26.3950 C.2     1  UNL1        0.0766
     15 C         -25.6420    4.0930   27.1230 C.2     1  UNL1        0.2664
     16 N         -25.6140    5.2520   26.4490 N.am    1  UNL1       -0.1997
     17 C         -25.0260    6.4790   26.9630 C.3     1  UNL1        0.1388
     18 O         -25.1430    3.9660   28.2430 O.2     1  UNL1       -0.2683
     19 C         -27.4380    3.0910   25.6450 C.2     1  UNL1        0.1067
     20 N         -28.0750    2.0890   25.0030 N.2     1  UNL1       -0.2081
     21 C         -27.5430    0.8490   25.0790 C.2     1  UNL1        0.2533
     22 O         -28.1930   -0.2080   24.4770 O.2     1  UNL1       -0.4558
     23 C         -29.4600    0.0050   23.8660 C.3     1  UNL1        0.2426
     24 C         -30.0650   -1.3770   23.5730 C.3     1  UNL1        0.2292
     25 O         -30.7290   -1.8780   24.7210 O.3     1  UNL1       -0.2162
     26 C         -26.3540    0.5760   25.7770 C.2     1  UNL1        0.1931
     27 F         -25.8600   -0.6810   25.7950 F       1  UNL1       -0.1992
     28 C         -25.4065   -0.1023   29.0426 C.3     1  UNL1        0.0282
     29 C         -27.6212    1.5572   29.2357 C.3     1  UNL1        0.0626
     30 C         -21.8892    1.3252   28.4929 C.2     1  UNL1        0.0005
     31 C         -24.3893    1.3134   27.1055 C.2     1  UNL1        0.0091
     32 C         -30.0855    1.9821   28.9781 C.2     1  UNL1       -0.0232
     33 C         -26.8273    0.5983   28.6759 C.3     1  UNL1        0.0124
     34 C         -24.2298    0.6553   28.4002 C.2     1  UNL1       -0.0212
     35 C         -21.9708    1.8813   27.2171 C.2     1  UNL1        0.0114
     36 C         -27.8903    2.8632   29.7270 C.2     1  UNL1        0.1724
     37 C         -29.2520    3.0239   29.4192 C.2     1  UNL1        0.0329
     38 C         -23.1563    1.8096   26.4966 C.2     1  UNL1        0.0574
     39 C         -28.2703    0.4492   29.0096 C.3     1  UNL1        0.0124
     40 C         -23.0008    0.6744   29.0591 C.2     1  UNL1       -0.0042
     41 CL        -22.9952    2.1812   24.8775 Cl      1  UNL1       -0.0823
     42 O         -27.2076    3.6534   30.4580 O.2     1  UNL1       -0.2914
     43 C         -29.6777    0.6473   28.6863 C.3     1  UNL1        0.0266
@<TRIPOS>BOND
     1     1    28    1
     2     2     7    1
     3     2     1    1
     4     3     2    2
     5     4     3    1
     6     4     5    2
     7     5     6    1
     8     6     7    2
     9     8     1    1
    10     8     9    1
    11     8    12    1
    12     9    10    1
    13    10    11    1
    14    12    11    1
    15    13    31    1
    16    14    13    1
    17    14    15    1
    18    15    18    2
    19    16    17    1
    20    16    15    1
    21    19    14    2
    22    20    21    2
    23    20    19    1
    24    21    26    1
    25    22    21    1
    26    23    22    1
    27    24    23    1
    28    24    25    1
    29    26    27    1
    30    26    13    2
    31    28    34    1
    32    29    36    1
    33    30    40    1
    34    31    34    1
    35    32    37    2
    36    33    39    1
    37    33    28    1
    38    33    29    1
    39    34    40    2
    40    35    30    2
    41    36    42    2
    42    37    36    1
    43    38    31    2
    44    38    35    1
    45    39    43    1
    46    39    29    1
    47    41    38    1
    48    43    32    1
