@<TRIPOS>MOLECULE
No_1032-gen_results/8p0m/2024-11-27-11-27-31/
 8 8 0 0 0
SMALL
GASTEIGER

@<TRIPOS>ATOM
      1 C         -28.0162   -0.8135   28.8779 C.ar    1  UNL1        0.0228
      2 C         -28.4690   -0.7850   29.8287 C.ar    1  UNL1        0.0585
      3 C         -27.1356    0.2359   28.5352 C.ar    1  UNL1        0.0585
      4 C         -26.8745    1.2825   29.3982 C.ar    1  UNL1        0.0114
      5 C         -28.3613    0.1987   30.9244 C.ar    1  UNL1        0.0114
      6 C         -27.5277    1.2234   30.6356 C.ar    1  UNL1        0.0017
      7 CL        -26.2960    0.2786   27.0255 Cl      1  UNL1       -0.0822
      8 CL        -29.6182   -2.0893   30.4299 Cl      1  UNL1       -0.0822
@<TRIPOS>BOND
     1     3     7    1
     2     2     8    1
     3     1     2   ar
     4     2     5   ar
     5     5     6   ar
     6     6     4   ar
     7     4     3   ar
     8     3     1   ar
