@<TRIPOS>MOLECULE
outputs/IAG933/test6/raw/output_1035_IAG933_linker_design_.xyz
 41 45 0 0 0
SMALL
GASTEIGER

@<TRIPOS>ATOM
      1 C         -24.8550   -1.0120   30.1430 C.3     1  UNL1        0.0602
      2 C         -24.9730   -2.5050   29.7880 C.2     1  UNL1       -0.0194
      3 C         -23.9060   -3.1730   29.1460 C.2     1  UNL1       -0.0042
      4 C         -23.9890   -4.5490   28.8530 C.2     1  UNL1       -0.0003
      5 C         -25.1370   -5.2800   29.2050 C.2     1  UNL1       -0.0000
      6 C         -26.2320   -4.6110   29.7840 C.2     1  UNL1       -0.0003
      7 C         -26.1550   -3.2320   30.0650 C.2     1  UNL1       -0.0042
      8 C         -25.3870   -0.6790   31.5710 C.3     1  UNL1        0.0785
      9 C         -25.1890    0.7730   32.0280 C.3     1  UNL1        0.0192
     10 C         -25.3360    0.6840   33.5440 C.3     1  UNL1        0.0202
     11 C         -24.8290   -0.7150   33.9050 C.3     1  UNL1        0.0887
     12 N         -24.7580   -1.4810   32.6460 N.3     1  UNL1       -0.2191
     13 C         -25.6880    1.6140   26.4610 C.3     1  UNL1        0.1011
     14 C         -26.2500    2.9200   26.3950 C.2     1  UNL1        0.0573
     15 C         -25.6420    4.0930   27.1230 C.2     1  UNL1        0.2625
     16 N         -25.6140    5.2520   26.4490 N.am    1  UNL1       -0.2000
     17 C         -25.0260    6.4790   26.9630 C.3     1  UNL1        0.1388
     18 O         -25.1430    3.9660   28.2430 O.2     1  UNL1       -0.2687
     19 C         -27.4380    3.0910   25.6450 C.2     1  UNL1        0.1022
     20 N         -28.0750    2.0890   25.0030 N.2     1  UNL1       -0.2119
     21 C         -27.5430    0.8490   25.0790 C.2     1  UNL1        0.2342
     22 O         -28.1930   -0.2080   24.4770 O.2     1  UNL1       -0.4585
     23 C         -29.4600    0.0050   23.8660 C.3     1  UNL1        0.2423
     24 C         -30.0650   -1.3770   23.5730 C.3     1  UNL1        0.2292
     25 O         -30.7290   -1.8780   24.7210 O.3     1  UNL1       -0.2162
     26 C         -26.3540    0.5760   25.7770 C.3     1  UNL1        0.2425
     27 F         -25.8600   -0.6810   25.7950 F       1  UNL1       -0.2268
     28 C         -22.0720    1.7076   26.8548 C.3     1  UNL1        0.3189
     29 C         -26.5650    1.9644   29.2869 C.3     1  UNL1        0.1068
     30 N         -26.1906    0.6886   28.7612 N.3     1  UNL1       -0.2397
     31 C         -24.8748    0.0780   29.0934 C.3     1  UNL1        0.1231
     32 C         -24.1699    1.4737   26.5118 C.3     1  UNL1        0.1716
     33 O         -28.0885    0.1610   29.7615 O.3     1  UNL1       -0.3358
     34 O         -23.5369    1.7178   25.3429 O.3     1  UNL1       -0.2194
     35 F         -20.9409    2.0928   27.4635 F       1  UNL1       -0.2005
     36 O         -22.1529    1.9102   25.5367 O.3     1  UNL1       -0.1863
     37 C         -23.2694    1.2168   27.4029 C.3     1  UNL1        0.1539
     38 C         -23.4794    0.5151   28.6419 C.2     1  UNL1        0.1728
     39 O         -22.5584    0.0603   29.3642 O.2     1  UNL1       -0.2944
     40 C         -27.9194    1.5822   29.9233 C.3     1  UNL1        0.1612
     41 C         -27.3115   -0.2497   28.6252 C.3     1  UNL1        0.2203
@<TRIPOS>BOND
     1     1    31    1
     2     2     7    1
     3     2     1    1
     4     3     2    2
     5     4     3    1
     6     4     5    2
     7     5     6    1
     8     6     7    2
     9     8     1    1
    10     8     9    1
    11     8    12    1
    12     9    10    1
    13    10    11    1
    14    12    11    1
    15    13    14    1
    16    13    32    1
    17    14    15    1
    18    15    18    2
    19    16    17    1
    20    16    15    1
    21    19    14    2
    22    20    21    2
    23    20    19    1
    24    21    26    1
    25    22    21    1
    26    23    22    1
    27    24    23    1
    28    24    25    1
    29    26    27    1
    30    26    13    1
    31    28    37    1
    32    28    35    1
    33    29    40    1
    34    30    31    1
    35    30    29    1
    36    31    38    1
    37    32    34    1
    38    32    37    1
    39    33    40    1
    40    34    36    1
    41    36    28    1
    42    37    38    1
    43    38    39    2
    44    41    30    1
    45    41    33    1
