@<TRIPOS>MOLECULE
outputs/IAG933/test6/raw/output_1036_IAG933_linker_design_.xyz
 41 45 0 0 0
SMALL
GASTEIGER

@<TRIPOS>ATOM
      1 C         -24.8550   -1.0120   30.1430 C.3     1  UNL1        0.0491
      2 C         -24.9730   -2.5050   29.7880 C.2     1  UNL1       -0.0204
      3 C         -23.9060   -3.1730   29.1460 C.2     1  UNL1       -0.0042
      4 C         -23.9890   -4.5490   28.8530 C.2     1  UNL1       -0.0003
      5 C         -25.1370   -5.2800   29.2050 C.2     1  UNL1       -0.0000
      6 C         -26.2320   -4.6110   29.7840 C.2     1  UNL1       -0.0003
      7 C         -26.1550   -3.2320   30.0650 C.2     1  UNL1       -0.0042
      8 C         -25.3870   -0.6790   31.5710 C.3     1  UNL1        0.0775
      9 C         -25.1890    0.7730   32.0280 C.3     1  UNL1        0.0192
     10 C         -25.3360    0.6840   33.5440 C.3     1  UNL1        0.0202
     11 C         -24.8290   -0.7150   33.9050 C.3     1  UNL1        0.0887
     12 N         -24.7580   -1.4810   32.6460 N.3     1  UNL1       -0.2191
     13 C         -25.6880    1.6140   26.4610 C.3     1  UNL1        0.0946
     14 C         -26.2500    2.9200   26.3950 C.2     1  UNL1        0.0590
     15 C         -25.6420    4.0930   27.1230 C.2     1  UNL1        0.2628
     16 N         -25.6140    5.2520   26.4490 N.am    1  UNL1       -0.2000
     17 C         -25.0260    6.4790   26.9630 C.3     1  UNL1        0.1388
     18 O         -25.1430    3.9660   28.2430 O.2     1  UNL1       -0.2686
     19 C         -27.4380    3.0910   25.6450 C.2     1  UNL1        0.1025
     20 N         -28.0750    2.0890   25.0030 N.2     1  UNL1       -0.2118
     21 C         -27.5430    0.8490   25.0790 C.2     1  UNL1        0.2344
     22 O         -28.1930   -0.2080   24.4770 O.2     1  UNL1       -0.4585
     23 C         -29.4600    0.0050   23.8660 C.3     1  UNL1        0.2423
     24 C         -30.0650   -1.3770   23.5730 C.3     1  UNL1        0.2292
     25 O         -30.7290   -1.8780   24.7210 O.3     1  UNL1       -0.2162
     26 C         -26.3540    0.5760   25.7770 C.3     1  UNL1        0.2441
     27 F         -25.8600   -0.6810   25.7950 F       1  UNL1       -0.2265
     28 O         -29.5640    2.6380   30.0685 O.co2   1  UNL1       -0.2415
     29 C         -21.5591    1.1161   28.3267 C.3     1  UNL1        0.0221
     30 O         -26.3638    1.6165   29.5624 O.2     1  UNL1       -0.4682
     31 C         -27.2944    2.6313   29.8110 C.3     1  UNL1        0.3183
     32 C         -21.7924    1.9897   26.0586 C.3     1  UNL1        0.0050
     33 C         -28.6266    2.0403   29.5766 C.2     1  UNL1        0.4084
     34 C         -23.0662    0.8954   28.2785 C.2     1  UNL1       -0.0413
     35 C         -25.3882    1.0787   28.8271 C.2     1  UNL1        0.1165
     36 C         -24.4757    0.1017   29.2798 C.3     1  UNL1        0.0798
     37 O         -28.6813    1.0155   28.8639 O.co2   1  UNL1       -0.2415
     38 C         -23.1834    1.7183   26.0913 C.3     1  UNL1        0.0255
     39 C         -21.0787    1.8304   27.2638 C.3     1  UNL1        0.0047
     40 C         -23.7203    1.3048   27.5282 C.2     1  UNL1       -0.0306
     41 C         -24.9826    1.3541   27.5962 C.2     1  UNL1        0.0105
@<TRIPOS>BOND
     1     1     2    1
     2     2     7    1
     3     3     2    2
     4     4     3    1
     5     4     5    2
     6     5     6    1
     7     6     7    2
     8     8     1    1
     9     8     9    1
    10     8    12    1
    11     9    10    1
    12    10    11    1
    13    12    11    1
    14    13    41    1
    15    14    13    1
    16    14    15    1
    17    15    18    2
    18    16    17    1
    19    16    15    1
    20    19    14    2
    21    20    21    2
    22    20    19    1
    23    21    26    1
    24    22    21    1
    25    23    22    1
    26    24    23    1
    27    24    25    1
    28    26    27    1
    29    26    13    1
    30    30    31    1
    31    32    38    1
    32    32    39    1
    33    33    31    1
    34    33    28   ar
    35    34    29    1
    36    34    36    1
    37    35    36    1
    38    35    30    1
    39    36     1    1
    40    37    33   ar
    41    38    40    1
    42    39    29    1
    43    40    41    1
    44    40    34    2
    45    41    35    2
