@<TRIPOS>MOLECULE
No_1038-gen_results/8p0m/2024-11-27-11-27-31/
 15 17 0 0 0
SMALL
GASTEIGER

@<TRIPOS>ATOM
      1 O         -28.1229   -1.3353   28.4874 O.2     1  UNL1       -0.2684
      2 C         -27.0637   -0.8242   28.8687 C.2     1  UNL1        0.2645
      3 C         -26.4017   -0.0623   28.6224 C.ar    1  UNL1        0.0511
      4 N         -26.2652   -1.8674   29.7609 N.am    1  UNL1       -0.2013
      5 C         -26.8442    1.1343   27.8798 C.ar    1  UNL1        0.0041
      6 C         -25.0005   -1.6707   30.1794 C.3     1  UNL1        0.1201
      7 C         -24.9962    0.1972   29.1990 C.ar    1  UNL1       -0.0160
      8 C         -24.3722   -0.5669   29.9374 C.3     1  UNL1        0.0499
      9 C         -27.7211    1.2152   27.3825 C.ar    1  UNL1        0.0001
     10 C         -28.2394    2.3093   26.4728 C.ar    1  UNL1        0.0000
     11 C         -27.3741    3.4161   26.3467 C.ar    1  UNL1        0.0000
     12 C         -26.0893    3.3564   26.8967 C.ar    1  UNL1        0.0000
     13 C         -25.7472    2.2604   27.6746 C.ar    1  UNL1        0.0001
     14 C         -24.4620    2.2744   28.2416 C.ar    1  UNL1       -0.0003
     15 C         -24.1716    1.3753   28.9022 C.ar    1  UNL1       -0.0041
@<TRIPOS>BOND
     1     1     2    2
     2     2     3    1
     3     2     4   am
     4     6     8    1
     5     7     8    1
     6     6     4    1
     7     5     9   ar
     8     9    10   ar
     9    10    11   ar
    10    11    12   ar
    11    12    13   ar
    12     3     5   ar
    13     5    13   ar
    14    13    14   ar
    15    14    15   ar
    16    15     7   ar
    17     7     3   ar
