@<TRIPOS>MOLECULE
No_1039-gen_results/8p0m/2024-11-27-11-27-31/
 33 35 0 0 0
SMALL
GASTEIGER

@<TRIPOS>ATOM
      1 C         -28.0162   -0.8135   28.8779 C.ar    1  UNL1        0.0330
      2 C         -27.0636   -0.1189   28.6079 C.ar    1  UNL1       -0.0137
      3 C         -25.7923   -0.4302   29.0761 C.ar    1  UNL1       -0.0037
      4 C         -25.5756   -1.5654   29.9363 C.ar    1  UNL1        0.0028
      5 C         -26.7354   -2.3004   30.2173 C.ar    1  UNL1        0.0369
      6 C         -27.9184   -1.9537   29.7629 C.ar    1  UNL1        0.1392
      7 C         -27.1057    1.1023   27.7593 C.3     1  UNL1        0.0646
      8 C         -26.7157    2.2350   27.9945 C.ar    1  UNL1       -0.0167
      9 C         -26.0688    2.4770   29.3567 C.ar    1  UNL1       -0.0039
     10 C         -25.4405    3.7637   29.5605 C.ar    1  UNL1       -0.0003
     11 C         -25.5223    4.7219   28.6223 C.ar    1  UNL1       -0.0000
     12 C         -26.0122    4.4992   27.3532 C.ar    1  UNL1       -0.0003
     13 C         -26.5923    3.2654   27.0520 C.ar    1  UNL1       -0.0039
     14 C         -27.3428    0.7722   26.2582 C.3     1  UNL1        0.1037
     15 N         -28.1993    0.0153   25.8661 N.am    1  UNL1       -0.2028
     16 C         -26.1949    0.9934   25.4944 C.3     1  UNL1        0.0241
     17 C         -29.0211    0.3538   24.8985 C.2     1  UNL1        0.2647
     18 C         -30.3271    0.5963   25.1248 C.ar    1  UNL1        0.0550
     19 C         -30.8462    0.5152   26.1630 C.ar    1  UNL1        0.0046
     20 C         -32.2733    0.5310   26.4598 C.ar    1  UNL1        0.0001
     21 C         -33.0484    0.8147   25.3729 C.ar    1  UNL1        0.0000
     22 C         -32.5687    0.9172   24.0855 C.ar    1  UNL1        0.0001
     23 C         -31.1887    0.7921   23.9167 C.ar    1  UNL1        0.0046
     24 O         -28.4497    0.4128   23.7648 O.2     1  UNL1       -0.2684
     25 O         -29.0074   -2.6578   30.1340 O.3     1  UNL1       -0.4609
     26 C         -30.1196   -2.0709   30.5946 C.3     1  UNL1        0.3629
     27 C         -31.2801   -2.6680   30.0364 C.2     1  UNL1        0.4130
     28 O         -32.2007   -1.8813   29.7119 O.co2   1  UNL1       -0.2413
     29 O         -31.3852   -3.8635   29.8081 O.co2   1  UNL1       -0.2413
     30 C         -30.1654   -2.1132   32.1110 C.3     1  UNL1        0.4454
     31 F         -29.2736   -1.4078   32.5760 F       1  UNL1       -0.1659
     32 F         -31.3163   -1.6191   32.4902 F       1  UNL1       -0.1659
     33 F         -30.0452   -3.4088   32.4725 F       1  UNL1       -0.1659
@<TRIPOS>BOND
     1     2     7    1
     2     7    14    1
     3    14    15    1
     4    14    16    1
     5    15    17   am
     6    17    18    1
     7    17    24    2
     8     6    25    1
     9    25    26    1
    10    26    27    1
    11    27    28   ar
    12    27    29   ar
    13    26    30    1
    14    30    31    1
    15    30    32    1
    16    30    33    1
    17     7     8    1
    18    18    19   ar
    19    19    20   ar
    20    20    21   ar
    21    21    22   ar
    22    22    23   ar
    23    23    18   ar
    24     1     2   ar
    25     2     3   ar
    26     3     4   ar
    27     4     5   ar
    28     5     6   ar
    29     6     1   ar
    30     8     9   ar
    31     9    10   ar
    32    10    11   ar
    33    11    12   ar
    34    12    13   ar
    35    13     8   ar
