@<TRIPOS>MOLECULE
No_104-gen_results/8p0m/2024-11-27-11-27-31/
 21 23 0 0 0
SMALL
GASTEIGER

@<TRIPOS>ATOM
      1 C         -28.0162   -0.8135   28.8779 C.ar    1  UNL1        0.0369
      2 C         -27.0636   -0.1189   28.6079 C.ar    1  UNL1        0.0031
      3 C         -25.7647   -0.3897   29.0360 C.ar    1  UNL1        0.0004
      4 C         -25.5296   -1.5302   29.9014 C.ar    1  UNL1        0.0030
      5 C         -26.6577   -2.2915   30.2035 C.ar    1  UNL1        0.0369
      6 C         -27.8548   -1.9555   29.7630 C.ar    1  UNL1        0.1391
      7 C         -24.5441    0.4126   28.7379 C.ar    1  UNL1        0.0066
      8 C         -23.3232    0.0476   29.0499 C.ar    1  UNL1        0.0798
      9 C         -23.2018   -1.2373   29.7566 C.ar    1  UNL1        0.0066
     10 C         -24.2259   -1.9647   30.2122 C.ar    1  UNL1        0.0003
     11 C         -22.1154    0.7752   28.7156 C.2     1  UNL1        0.3878
     12 O         -22.2553    1.8502   28.1594 O.co2   1  UNL1       -0.2406
     13 O         -20.9515    0.1816   28.7664 O.co2   1  UNL1       -0.2406
     14 O         -29.0631   -2.5389   30.1102 O.3     1  UNL1       -0.4706
     15 C         -29.0333   -3.7606   30.7291 C.3     1  UNL1        0.2320
     16 C         -29.2238   -3.9888   31.9169 C.ar    1  UNL1        0.0212
     17 C         -30.5676   -3.7726   32.2981 C.ar    1  UNL1       -0.0007
     18 C         -30.8972   -3.9978   33.6396 C.ar    1  UNL1       -0.0002
     19 C         -30.0800   -4.7031   34.3709 C.ar    1  UNL1       -0.0000
     20 C         -28.8516   -5.2200   33.9201 C.ar    1  UNL1       -0.0002
     21 C         -28.5475   -4.9262   32.6953 C.ar    1  UNL1       -0.0007
@<TRIPOS>BOND
     1     8    11    1
     2    11    12   ar
     3    11    13   ar
     4     6    14    1
     5    14    15    1
     6    15    16    1
     7     1     2   ar
     8     2     3   ar
     9     4     5   ar
    10     5     6   ar
    11     6     1   ar
    12     3     4   ar
    13     4    10   ar
    14    10     9   ar
    15     9     8   ar
    16     8     7   ar
    17     7     3   ar
    18    16    17   ar
    19    17    18   ar
    20    18    19   ar
    21    19    20   ar
    22    20    21   ar
    23    21    16   ar
