@<TRIPOS>MOLECULE
No_1040-gen_results/8p0m/2024-11-27-11-27-31/
 16 17 0 0 0
SMALL
GASTEIGER

@<TRIPOS>ATOM
      1 C         -28.0162   -0.8135   28.8779 C.ar    1  UNL1        0.0022
      2 C         -27.0636   -0.1190   28.6079 C.ar    1  UNL1        0.0275
      3 C         -26.9716    0.7139   27.5060 C.ar    1  UNL1        0.1403
      4 C         -25.8205    1.4909   27.1160 C.ar    1  UNL1        0.0362
      5 C         -24.8579    1.3421   27.6008 C.ar    1  UNL1        0.0820
      6 C         -24.6224    0.5295   28.8144 C.ar    1  UNL1        0.0067
      7 C         -25.7344   -0.1811   29.1908 C.ar    1  UNL1        0.0024
      8 C         -28.6269   -0.4745   30.2487 C.ar    1  UNL1        0.0001
      9 C         -29.7287   -1.2771   30.7236 C.ar    1  UNL1        0.0000
     10 C         -23.5103    2.1338   27.3073 C.2     1  UNL1        0.3878
     11 O         -22.5944    2.2186   28.1088 O.co2   1  UNL1       -0.2406
     12 O         -23.4439    2.7363   26.1415 O.co2   1  UNL1       -0.2406
     13 C         -30.0934   -2.2069   29.9636 C.ar    1  UNL1        0.0000
     14 C         -29.6312   -2.7560   28.9667 C.ar    1  UNL1        0.0000
     15 C         -28.5705   -2.0090   28.4273 C.ar    1  UNL1        0.0001
     16 F         -28.0884    0.8421   26.8038 F       1  UNL1       -0.2042
@<TRIPOS>BOND
     1     5    10    1
     2    10    11   ar
     3    10    12   ar
     4     3    16    1
     5     1     2    1
     6     1     8   ar
     7     8     9   ar
     8     9    13   ar
     9    13    14   ar
    10    14    15   ar
    11    15     1   ar
    12     2     3   ar
    13     3     4   ar
    14     4     5   ar
    15     5     6   ar
    16     6     7   ar
    17     7     2   ar
