@<TRIPOS>MOLECULE
outputs/IAG933/test6/raw/output_1041_IAG933_linker_design_.xyz
 43 47 0 0 0
SMALL
GASTEIGER

@<TRIPOS>ATOM
      1 C         -24.8550   -1.0120   30.1430 C.3     1  UNL1        0.0980
      2 C         -24.9730   -2.5050   29.7880 C.2     1  UNL1       -0.0064
      3 C         -23.9060   -3.1730   29.1460 C.2     1  UNL1       -0.0029
      4 C         -23.9890   -4.5490   28.8530 C.2     1  UNL1       -0.0003
      5 C         -25.1370   -5.2800   29.2050 C.2     1  UNL1       -0.0000
      6 C         -26.2320   -4.6110   29.7840 C.2     1  UNL1       -0.0003
      7 C         -26.1550   -3.2320   30.0650 C.2     1  UNL1       -0.0029
      8 C         -25.3870   -0.6790   31.5710 C.3     1  UNL1        0.0916
      9 C         -25.1890    0.7730   32.0280 C.3     1  UNL1        0.0206
     10 C         -25.3360    0.6840   33.5440 C.3     1  UNL1        0.0203
     11 C         -24.8290   -0.7150   33.9050 C.3     1  UNL1        0.0888
     12 N         -24.7580   -1.4810   32.6460 N.3     1  UNL1       -0.2178
     13 C         -25.6880    1.6140   26.4610 C.3     1  UNL1        0.0702
     14 C         -26.2500    2.9200   26.3950 C.2     1  UNL1        0.0548
     15 C         -25.6420    4.0930   27.1230 C.2     1  UNL1        0.2624
     16 N         -25.6140    5.2520   26.4490 N.am    1  UNL1       -0.2000
     17 C         -25.0260    6.4790   26.9630 C.3     1  UNL1        0.1388
     18 O         -25.1430    3.9660   28.2430 O.2     1  UNL1       -0.2687
     19 C         -27.4380    3.0910   25.6450 C.2     1  UNL1        0.1021
     20 N         -28.0750    2.0890   25.0030 N.2     1  UNL1       -0.2119
     21 C         -27.5430    0.8490   25.0790 C.2     1  UNL1        0.2341
     22 O         -28.1930   -0.2080   24.4770 O.2     1  UNL1       -0.4585
     23 C         -29.4600    0.0050   23.8660 C.3     1  UNL1        0.2423
     24 C         -30.0650   -1.3770   23.5730 C.3     1  UNL1        0.2292
     25 O         -30.7290   -1.8780   24.7210 O.3     1  UNL1       -0.2162
     26 C         -26.3540    0.5760   25.7770 C.3     1  UNL1        0.2400
     27 F         -25.8600   -0.6810   25.7950 F       1  UNL1       -0.2269
     28 C         -20.5972   -0.1863   28.4445 C.3     1  UNL1        0.2089
     29 C         -22.6058    0.8163   28.0329 C.3     1  UNL1        0.1002
     30 C         -21.7949    2.5342   25.3724 C.3     1  UNL1        0.1011
     31 O         -22.6077    1.1709   30.2301 O.3     1  UNL1       -0.2084
     32 C         -21.2287   -0.8564   29.3900 C.3     1  UNL1        0.0938
     33 C         -21.0110    2.0811   26.5215 C.2     1  UNL1        0.0122
     34 C         -21.3653    1.3224   27.6272 C.2     1  UNL1        0.1153
     35 C         -24.5051    1.3296   26.7186 C.3     1  UNL1        0.0098
     36 F         -23.4753    1.2070   24.2670 F       1  UNL1       -0.1981
     37 C         -22.6935    0.1945   29.2901 C.3     1  UNL1        0.1844
     38 C         -22.9236    2.1618   24.7698 C.3     1  UNL1        0.3229
     39 F         -23.7236    3.2631   24.7825 F       1  UNL1       -0.1981
     40 O         -20.3985    1.1647   28.3223 O.2     1  UNL1       -0.4798
     41 N         -24.1187   -0.3129   29.4278 N.3     1  UNL1       -0.2472
     42 C         -24.7958    0.5466   28.2441 C.3     1  UNL1        0.0750
     43 C         -24.0018    1.0648   27.4951 C.3     1  UNL1        0.0273
@<TRIPOS>BOND
     1     1     2    1
     2     2     7    1
     3     3     2    2
     4     4     3    1
     5     4     5    2
     6     5     6    1
     7     6     7    2
     8     8     1    1
     9     8     9    1
    10     8    12    1
    11     9    10    1
    12    10    11    1
    13    12    11    1
    14    13    35    1
    15    14    13    1
    16    14    15    1
    17    15    18    2
    18    16    17    1
    19    16    15    1
    20    19    14    2
    21    20    21    2
    22    20    19    1
    23    21    26    1
    24    22    21    1
    25    23    22    1
    26    24    23    1
    27    24    25    1
    28    26    27    1
    29    26    13    1
    30    28    32    1
    31    29    34    1
    32    29    37    1
    33    30    33    1
    34    33    34    2
    35    34    40    1
    36    36    38    1
    37    37    32    1
    38    37    41    1
    39    37    31    1
    40    38    39    1
    41    38    30    1
    42    40    28    1
    43    41     1    1
    44    42    41    1
    45    43    35    1
    46    43    29    1
    47    43    42    1
