@<TRIPOS>MOLECULE
outputs/IAG933/test6/raw/output_1043_IAG933_linker_design_.xyz
 47 51 0 0 0
SMALL
GASTEIGER

@<TRIPOS>ATOM
      1 C         -24.8550   -1.0120   30.1430 C.3     1  UNL1        0.1108
      2 C         -24.9730   -2.5050   29.7880 C.2     1  UNL1       -0.0051
      3 C         -23.9060   -3.1730   29.1460 C.2     1  UNL1       -0.0029
      4 C         -23.9890   -4.5490   28.8530 C.2     1  UNL1       -0.0003
      5 C         -25.1370   -5.2800   29.2050 C.2     1  UNL1       -0.0000
      6 C         -26.2320   -4.6110   29.7840 C.2     1  UNL1       -0.0003
      7 C         -26.1550   -3.2320   30.0650 C.2     1  UNL1       -0.0029
      8 C         -25.3870   -0.6790   31.5710 C.3     1  UNL1        0.0929
      9 C         -25.1890    0.7730   32.0280 C.3     1  UNL1        0.0206
     10 C         -25.3360    0.6840   33.5440 C.3     1  UNL1        0.0203
     11 C         -24.8290   -0.7150   33.9050 C.3     1  UNL1        0.0888
     12 N         -24.7580   -1.4810   32.6460 N.3     1  UNL1       -0.2177
     13 C         -25.6880    1.6140   26.4610 C.3     1  UNL1        0.0703
     14 C         -26.2500    2.9200   26.3950 C.2     1  UNL1        0.0548
     15 C         -25.6420    4.0930   27.1230 C.2     1  UNL1        0.2624
     16 N         -25.6140    5.2520   26.4490 N.am    1  UNL1       -0.2000
     17 C         -25.0260    6.4790   26.9630 C.3     1  UNL1        0.1388
     18 O         -25.1430    3.9660   28.2430 O.2     1  UNL1       -0.2687
     19 C         -27.4380    3.0910   25.6450 C.2     1  UNL1        0.1021
     20 N         -28.0750    2.0890   25.0030 N.2     1  UNL1       -0.2119
     21 C         -27.5430    0.8490   25.0790 C.2     1  UNL1        0.2341
     22 O         -28.1930   -0.2080   24.4770 O.2     1  UNL1       -0.4585
     23 C         -29.4600    0.0050   23.8660 C.3     1  UNL1        0.2423
     24 C         -30.0650   -1.3770   23.5730 C.3     1  UNL1        0.2292
     25 O         -30.7290   -1.8780   24.7210 O.3     1  UNL1       -0.2162
     26 C         -26.3540    0.5760   25.7770 C.3     1  UNL1        0.2400
     27 F         -25.8600   -0.6810   25.7950 F       1  UNL1       -0.2269
     28 O         -22.3548   -0.0528   29.6165 O.3     1  UNL1       -0.2231
     29 C         -21.2525    1.0413   27.7908 C.3     1  UNL1        0.0329
     30 C         -22.8188    1.6406   25.9284 C.3     1  UNL1        0.0006
     31 C         -30.1209    3.6360   31.7712 C.2     1  UNL1        0.0205
     32 C         -28.0274    0.3088   28.4516 C.3     1  UNL1        0.1609
     33 O         -30.2481    1.2239   27.7768 O.3     1  UNL1       -0.0347
     34 N         -25.0778   -0.2226   29.3013 N.3     1  UNL1       -0.2149
     35 C         -23.8551    1.5001   28.2597 C.3     1  UNL1        0.0470
     36 C         -29.6753    1.4081   30.4767 C.2     1  UNL1        0.0172
     37 C         -22.4903    0.7616   28.4593 C.3     1  UNL1        0.1533
     38 C         -24.2061    1.4023   26.6435 C.3     1  UNL1        0.0112
     39 C         -25.3288    0.8108   28.7425 C.3     1  UNL1        0.0781
     40 O         -28.4747    2.0527   32.6136 O.2     1  UNL1       -0.4679
     41 C         -28.9481    3.3255   32.5831 C.3     1  UNL1        0.2319
     42 C         -30.3956    2.8559   30.5721 C.2     1  UNL1       -0.0020
     43 C         -26.8733    1.3415   28.7683 C.3     1  UNL1        0.0508
     44 C         -29.2053    1.1650   31.9995 C.2     1  UNL1        0.1684
     45 O         -29.0213    0.7554   27.4799 O.3     1  UNL1       -0.1913
     46 C         -21.5370    1.8323   26.5950 C.3     1  UNL1        0.0026
     47 C         -28.9591    0.2158   29.6600 C.3     1  UNL1        0.0625
@<TRIPOS>BOND
     1     1    34    1
     2     2     7    1
     3     2     1    1
     4     3     2    2
     5     4     3    1
     6     4     5    2
     7     5     6    1
     8     6     7    2
     9     8     1    1
    10     8     9    1
    11     8    12    1
    12     9    10    1
    13    10    11    1
    14    12    11    1
    15    13    14    1
    16    13    38    1
    17    14    15    1
    18    15    18    2
    19    16    17    1
    20    16    15    1
    21    19    14    2
    22    20    21    2
    23    20    19    1
    24    21    26    1
    25    22    21    1
    26    23    22    1
    27    24    23    1
    28    24    25    1
    29    26    27    1
    30    26    13    1
    31    29    37    1
    32    30    46    1
    33    31    41    1
    34    32    43    1
    35    32    47    1
    36    35    37    1
    37    35    39    1
    38    36    42    1
    39    36    44    2
    40    37    28    1
    41    38    30    1
    42    38    35    1
    43    39    43    1
    44    39    34    1
    45    41    40    1
    46    42    31    2
    47    44    40    1
    48    45    33    1
    49    45    32    1
    50    46    29    1
    51    47    36    1
