@<TRIPOS>MOLECULE
outputs/IAG933/test6/raw/output_1049_IAG933_linker_design_.xyz
 42 46 0 0 0
SMALL
GASTEIGER

@<TRIPOS>ATOM
      1 C         -24.8550   -1.0120   30.1430 C.3     1  UNL1        0.0437
      2 C         -24.9730   -2.5050   29.7880 C.2     1  UNL1       -0.0208
      3 C         -23.9060   -3.1730   29.1460 C.2     1  UNL1       -0.0042
      4 C         -23.9890   -4.5490   28.8530 C.2     1  UNL1       -0.0003
      5 C         -25.1370   -5.2800   29.2050 C.2     1  UNL1       -0.0000
      6 C         -26.2320   -4.6110   29.7840 C.2     1  UNL1       -0.0003
      7 C         -26.1550   -3.2320   30.0650 C.2     1  UNL1       -0.0042
      8 C         -25.3870   -0.6790   31.5710 C.3     1  UNL1        0.0780
      9 C         -25.1890    0.7730   32.0280 C.3     1  UNL1        0.0340
     10 C         -25.3360    0.6840   33.5440 C.3     1  UNL1        0.0211
     11 C         -24.8290   -0.7150   33.9050 C.3     1  UNL1        0.0887
     12 N         -24.7580   -1.4810   32.6460 N.3     1  UNL1       -0.2191
     13 C         -25.6880    1.6140   26.4610 C.2     1  UNL1        0.0580
     14 C         -26.2500    2.9200   26.3950 C.2     1  UNL1        0.0781
     15 C         -25.6420    4.0930   27.1230 C.2     1  UNL1        0.2665
     16 N         -25.6140    5.2520   26.4490 N.am    1  UNL1       -0.1997
     17 C         -25.0260    6.4790   26.9630 C.3     1  UNL1        0.1388
     18 O         -25.1430    3.9660   28.2430 O.2     1  UNL1       -0.2683
     19 C         -27.4380    3.0910   25.6450 C.2     1  UNL1        0.1068
     20 N         -28.0750    2.0890   25.0030 N.2     1  UNL1       -0.2081
     21 C         -27.5430    0.8490   25.0790 C.2     1  UNL1        0.2533
     22 O         -28.1930   -0.2080   24.4770 O.2     1  UNL1       -0.4558
     23 C         -29.4600    0.0050   23.8660 C.3     1  UNL1        0.2426
     24 C         -30.0650   -1.3770   23.5730 C.3     1  UNL1        0.2292
     25 O         -30.7290   -1.8780   24.7210 O.3     1  UNL1       -0.2162
     26 C         -26.3540    0.5760   25.7770 C.2     1  UNL1        0.1946
     27 F         -25.8600   -0.6810   25.7950 F       1  UNL1       -0.1992
     28 C         -24.7958    3.1255   31.4346 C.2     1  UNL1        0.3221
     29 F         -21.1111    1.9748   26.7185 F       1  UNL1       -0.2017
     30 C         -22.3934    1.6436   28.7994 C.2     1  UNL1        0.0472
     31 C         -22.2535    1.7646   27.3971 C.2     1  UNL1        0.1701
     32 F         -23.2541    1.7926   25.2643 F       1  UNL1       -0.2002
     33 O         -24.7375    3.5705   32.8374 O.3     1  UNL1       -0.4520
     34 C         -24.5901    1.4548   27.1936 C.2     1  UNL1        0.1130
     35 C         -24.8775    5.0905   33.1634 C.3     1  UNL1        0.1691
     36 C         -25.8727    5.0830   34.2652 C.3     1  UNL1        0.0473
     37 C         -26.1506    5.9695   33.0411 C.3     1  UNL1        0.0473
     38 C         -23.7399    1.4866   29.3535 C.2     1  UNL1        0.0717
     39 O         -25.2497    4.0320   30.7627 O.2     1  UNL1       -0.2497
     40 C         -24.3574    1.7024   30.9289 C.3     1  UNL1        0.1404
     41 C         -23.3630    1.6828   26.6292 C.2     1  UNL1        0.1849
     42 N         -24.7477    1.2338   28.5077 N.2     1  UNL1       -0.2466
@<TRIPOS>BOND
     1     2     7    1
     2     2     1    1
     3     3     2    2
     4     4     3    1
     5     4     5    2
     6     5     6    1
     7     6     7    2
     8     8     1    1
     9     8     9    1
    10     8    12    1
    11     9    40    1
    12     9    10    1
    13    10    11    1
    14    12    11    1
    15    13    34    1
    16    14    13    1
    17    14    15    1
    18    15    18    2
    19    16    17    1
    20    16    15    1
    21    19    14    2
    22    20    21    2
    23    20    19    1
    24    21    26    1
    25    22    21    1
    26    23    22    1
    27    24    23    1
    28    24    25    1
    29    26    27    1
    30    26    13    2
    31    28    33    1
    32    29    31    1
    33    30    38    1
    34    31    30    2
    35    32    41    1
    36    33    35    1
    37    34    42    1
    38    35    36    1
    39    37    35    1
    40    37    36    1
    41    38    40    1
    42    39    28    2
    43    40    28    1
    44    41    34    2
    45    41    31    1
    46    42    38    2
