@<TRIPOS>MOLECULE
No_105-gen_results/8p0m/2024-11-27-11-27-31/
 17 18 0 0 0
SMALL
GASTEIGER

@<TRIPOS>ATOM
      1 C         -28.0162   -0.8135   28.8779 C.ar    1  UNL1        0.0006
      2 C         -28.4690   -0.7850   29.8287 C.ar    1  UNL1        0.0547
      3 C         -26.5042   -0.7777   28.8766 C.ar    1  UNL1       -0.0176
      4 C         -25.6540   -0.6597   27.7191 C.3     1  UNL1        0.0526
      5 C         -27.9180   -0.9374   31.1824 C.ar    1  UNL1        0.0045
      6 C         -26.5423   -0.9399   31.2606 C.ar    1  UNL1       -0.0002
      7 C         -25.7832   -0.8935   30.1201 C.ar    1  UNL1       -0.0039
      8 C         -25.9259    0.2819   26.7445 C.ar    1  UNL1       -0.0178
      9 C         -24.9904    0.6776   25.8676 C.ar    1  UNL1       -0.0039
     10 C         -25.3173    1.2627   24.7291 C.ar    1  UNL1       -0.0003
     11 C         -27.2401    0.7184   26.5159 C.ar    1  UNL1       -0.0039
     12 C         -27.5666    1.3872   25.3860 C.ar    1  UNL1       -0.0003
     13 C         -26.5782    1.7125   24.4861 C.ar    1  UNL1       -0.0000
     14 C         -30.0513   -0.7748   29.8522 C.2     1  UNL1        0.2648
     15 O         -30.5132   -0.1818   28.9743 O.2     1  UNL1       -0.2684
     16 N         -30.7261   -1.0680   30.9870 N.am    1  UNL1       -0.1998
     17 C         -32.1709   -0.9679   30.9834 C.3     1  UNL1        0.1388
@<TRIPOS>BOND
     1     3     4    1
     2     4     8    1
     3     2    14    1
     4    14    15    2
     5    14    16   am
     6    16    17    1
     7     8     9   ar
     8     9    10   ar
     9    10    13   ar
    10    13    12   ar
    11    12    11   ar
    12    11     8   ar
    13     1     2   ar
    14     2     5   ar
    15     5     6   ar
    16     6     7   ar
    17     7     3   ar
    18     3     1   ar
