@<TRIPOS>MOLECULE
No_1051-gen_results/8p0m/2024-11-27-11-27-31/
 7 7 0 0 0
SMALL
GASTEIGER

@<TRIPOS>ATOM
      1 CL        -28.1493   -0.8198   28.9079 Cl      1  UNL1       -0.0822
      2 C         -28.5324   -0.0471   29.7727 C.ar    1  UNL1        0.0577
      3 C         -29.7006    0.0350   30.2420 C.ar    1  UNL1        0.0114
      4 C         -27.4574    0.8974   30.3816 C.ar    1  UNL1        0.0114
      5 C         -27.8536    1.8525   31.4456 C.ar    1  UNL1        0.0009
      6 C         -30.0619    1.0516   31.3474 C.ar    1  UNL1        0.0009
      7 C         -29.1241    1.8665   31.8749 C.ar    1  UNL1        0.0001
@<TRIPOS>BOND
     1     1     2    1
     2     2     3   ar
     3     3     6   ar
     4     6     7   ar
     5     7     5   ar
     6     5     4   ar
     7     4     2   ar
