@<TRIPOS>MOLECULE
No_1052-gen_results/8p0m/2024-11-27-11-27-31/
 12 13 0 0 0
SMALL
GASTEIGER

@<TRIPOS>ATOM
      1 O         -28.1229   -1.3353   28.4874 O.2     1  UNL1       -0.2733
      2 C         -27.4806   -0.4044   28.7094 C.2     1  UNL1        0.2426
      3 C         -27.1904    0.2460   29.5268 C.3     1  UNL1        0.0870
      4 N         -26.6021   -0.1576   27.5515 N.am    1  UNL1       -0.1891
      5 C         -25.6421    0.9031   27.5822 C.3     1  UNL1        0.1715
      6 C         -25.5004    1.6142   28.7368 C.3     1  UNL1        0.0547
      7 C         -26.2553    1.3158   29.8133 C.3     1  UNL1        0.0142
      8 N         -24.8953    1.1477   26.4948 N.3     1  UNL1       -0.1655
      9 C         -23.9055    2.1467   26.6565 C.3     1  UNL1        0.2423
     10 N         -23.6742    2.8043   27.7012 N.3     1  UNL1       -0.1855
     11 C         -24.4111    2.5928   28.7266 C.3     1  UNL1        0.0948
     12 N         -23.1247    2.3992   25.5494 N.3     1  UNL1       -0.0937
@<TRIPOS>BOND
     1     1     2    2
     2     2     3    1
     3     2     4   am
     4     4     5    1
     5     5     6    1
     6     5     8    1
     7     8     9    1
     8     9    10    1
     9     6    11    1
    10    10    11    1
    11     9    12    1
    12     3     7    1
    13     7     6    1
