@<TRIPOS>MOLECULE
outputs/IAG933/test6/raw/output_1053_IAG933_linker_design_.xyz
 45 49 0 0 0
SMALL
GASTEIGER

@<TRIPOS>ATOM
      1 C         -24.8550   -1.0120   30.1430 C.3     1  UNL1        0.0635
      2 C         -24.9730   -2.5050   29.7880 C.2     1  UNL1       -0.0170
      3 C         -23.9060   -3.1730   29.1460 C.2     1  UNL1       -0.0039
      4 C         -23.9890   -4.5490   28.8530 C.2     1  UNL1       -0.0003
      5 C         -25.1370   -5.2800   29.2050 C.2     1  UNL1       -0.0000
      6 C         -26.2320   -4.6110   29.7840 C.2     1  UNL1       -0.0003
      7 C         -26.1550   -3.2320   30.0650 C.2     1  UNL1       -0.0039
      8 C         -25.3870   -0.6790   31.5710 C.3     1  UNL1        0.0809
      9 C         -25.1890    0.7730   32.0280 C.3     1  UNL1        0.0195
     10 C         -25.3360    0.6840   33.5440 C.3     1  UNL1        0.0203
     11 C         -24.8290   -0.7150   33.9050 C.3     1  UNL1        0.0887
     12 N         -24.7580   -1.4810   32.6460 N.3     1  UNL1       -0.2188
     13 C         -25.6880    1.6140   26.4610 C.2     1  UNL1        0.0407
     14 C         -26.2500    2.9200   26.3950 C.2     1  UNL1        0.0766
     15 C         -25.6420    4.0930   27.1230 C.2     1  UNL1        0.2664
     16 N         -25.6140    5.2520   26.4490 N.am    1  UNL1       -0.1997
     17 C         -25.0260    6.4790   26.9630 C.3     1  UNL1        0.1388
     18 O         -25.1430    3.9660   28.2430 O.2     1  UNL1       -0.2683
     19 C         -27.4380    3.0910   25.6450 C.2     1  UNL1        0.1067
     20 N         -28.0750    2.0890   25.0030 N.2     1  UNL1       -0.2081
     21 C         -27.5430    0.8490   25.0790 C.2     1  UNL1        0.2533
     22 O         -28.1930   -0.2080   24.4770 O.2     1  UNL1       -0.4558
     23 C         -29.4600    0.0050   23.8660 C.3     1  UNL1        0.2426
     24 C         -30.0650   -1.3770   23.5730 C.3     1  UNL1        0.2292
     25 O         -30.7290   -1.8780   24.7210 O.3     1  UNL1       -0.2162
     26 C         -26.3540    0.5760   25.7770 C.2     1  UNL1        0.1931
     27 F         -25.8600   -0.6810   25.7950 F       1  UNL1       -0.1992
     28 C         -23.2684    1.4802   27.0121 C.2     1  UNL1       -0.0189
     29 C         -22.7758    2.1968   25.7268 C.3     1  UNL1        0.0311
     30 C         -27.6427   -0.0340   28.5276 C.3     1  UNL1        0.2211
     31 C         -28.5447    1.4664   30.3455 C.3     1  UNL1        0.0198
     32 C         -31.5942    1.0341   25.8299 C.3     1  UNL1        0.0015
     33 C         -24.1645   -0.0063   29.2705 C.2     1  UNL1        0.0169
     34 C         -22.7642    0.2216   29.0560 C.2     1  UNL1       -0.0012
     35 C         -30.4683   -0.4450   27.6144 C.3     1  UNL1        0.0722
     36 C         -22.3170    0.9739   27.9469 C.2     1  UNL1       -0.0044
     37 C         -25.0826    0.6537   28.4770 C.2     1  UNL1        0.1346
     38 C         -31.7615   -0.1179   26.8259 C.3     1  UNL1        0.0173
     39 C         -28.9155    0.3366   29.3583 C.3     1  UNL1        0.1015
     40 C         -24.6249    1.2822   27.3277 C.2     1  UNL1        0.0322
     41 N         -30.1294    0.7063   28.5204 N.3     1  UNL1       -0.2708
     42 C         -31.2471    1.0298   29.4491 C.3     1  UNL1        0.0722
     43 C         -30.8436    2.3282   30.1824 C.3     1  UNL1        0.0174
     44 C         -29.3813    2.6799   29.9637 C.3     1  UNL1        0.0029
     45 O         -26.4186    0.6079   29.0318 O.2     1  UNL1       -0.4743
@<TRIPOS>BOND
     1     1    33    1
     2     2     7    1
     3     2     1    1
     4     3     2    2
     5     4     3    1
     6     4     5    2
     7     5     6    1
     8     6     7    2
     9     8     1    1
    10     8     9    1
    11     8    12    1
    12     9    10    1
    13    10    11    1
    14    12    11    1
    15    13    40    1
    16    14    13    1
    17    14    15    1
    18    15    18    2
    19    16    17    1
    20    16    15    1
    21    19    14    2
    22    20    21    2
    23    20    19    1
    24    21    26    1
    25    22    21    1
    26    23    22    1
    27    24    23    1
    28    24    25    1
    29    26    27    1
    30    26    13    2
    31    28    40    2
    32    28    36    1
    33    29    28    1
    34    30    45    1
    35    32    38    1
    36    34    33    1
    37    35    41    1
    38    36    34    2
    39    37    45    1
    40    37    33    2
    41    38    35    1
    42    39    30    1
    43    39    31    1
    44    40    37    1
    45    41    39    1
    46    41    42    1
    47    42    43    1
    48    44    43    1
    49    44    31    1
