@<TRIPOS>MOLECULE
No_1056-gen_results/8p0m/2024-11-27-11-27-31/
 13 13 0 0 0
SMALL
GASTEIGER

@<TRIPOS>ATOM
      1 O         -28.1229   -1.3353   28.4874 O.2     1  UNL1       -0.2730
      2 C         -27.4806   -0.4044   28.7094 C.2     1  UNL1        0.2505
      3 C         -27.1904    0.2460   29.5268 C.3     1  UNL1        0.1729
      4 N         -26.8157    0.1371   27.4262 N.am    1  UNL1       -0.1890
      5 C         -26.3550    1.4196   29.7643 C.3     1  UNL1        0.0211
      6 C         -25.9888    1.2374   27.3937 C.3     1  UNL1        0.1676
      7 C         -25.7548    1.9027   28.6170 C.3     1  UNL1        0.0405
      8 C         -27.7533   -0.2136   30.9780 C.3     1  UNL1        0.4056
      9 F         -28.5553    0.8061   31.3746 F       1  UNL1       -0.1695
     10 F         -28.5574   -1.2368   30.6859 F       1  UNL1       -0.1695
     11 F         -26.8334   -0.3632   31.9135 F       1  UNL1       -0.1695
     12 N         -25.4237    1.6601   26.2875 N.3     1  UNL1       -0.1971
     13 C         -25.1089    1.0007   25.3301 C.3     1  UNL1        0.1093
@<TRIPOS>BOND
     1     1     2    2
     2     2     3    1
     3     2     4   am
     4     3     5    1
     5     6     7    1
     6     3     8    1
     7     8     9    1
     8     8    10    1
     9     8    11    1
    10     6    12    1
    11    12    13    1
    12     5     7    1
    13     6     4    1
