@<TRIPOS>MOLECULE
outputs/IAG933/test6/raw/output_1057_IAG933_linker_design_.xyz
 44 48 0 0 0
SMALL
GASTEIGER

@<TRIPOS>ATOM
      1 C         -24.8550   -1.0120   30.1430 C.3     1  UNL1        0.1113
      2 C         -24.9730   -2.5050   29.7880 C.2     1  UNL1       -0.0030
      3 C         -23.9060   -3.1730   29.1460 C.2     1  UNL1       -0.0026
      4 C         -23.9890   -4.5490   28.8530 C.2     1  UNL1       -0.0003
      5 C         -25.1370   -5.2800   29.2050 C.2     1  UNL1       -0.0000
      6 C         -26.2320   -4.6110   29.7840 C.2     1  UNL1       -0.0003
      7 C         -26.1550   -3.2320   30.0650 C.2     1  UNL1       -0.0026
      8 C         -25.3870   -0.6790   31.5710 C.3     1  UNL1        0.0950
      9 C         -25.1890    0.7730   32.0280 C.3     1  UNL1        0.0209
     10 C         -25.3360    0.6840   33.5440 C.3     1  UNL1        0.0203
     11 C         -24.8290   -0.7150   33.9050 C.3     1  UNL1        0.0888
     12 N         -24.7580   -1.4810   32.6460 N.3     1  UNL1       -0.2174
     13 C         -25.6880    1.6140   26.4610 C.2     1  UNL1        0.0401
     14 C         -26.2500    2.9200   26.3950 C.2     1  UNL1        0.0766
     15 C         -25.6420    4.0930   27.1230 C.2     1  UNL1        0.2664
     16 N         -25.6140    5.2520   26.4490 N.am    1  UNL1       -0.1997
     17 C         -25.0260    6.4790   26.9630 C.3     1  UNL1        0.1388
     18 O         -25.1430    3.9660   28.2430 O.2     1  UNL1       -0.2683
     19 C         -27.4380    3.0910   25.6450 C.2     1  UNL1        0.1067
     20 N         -28.0750    2.0890   25.0030 N.2     1  UNL1       -0.2081
     21 C         -27.5430    0.8490   25.0790 C.2     1  UNL1        0.2533
     22 O         -28.1930   -0.2080   24.4770 O.2     1  UNL1       -0.4558
     23 C         -29.4600    0.0050   23.8660 C.3     1  UNL1        0.2426
     24 C         -30.0650   -1.3770   23.5730 C.3     1  UNL1        0.2292
     25 O         -30.7290   -1.8780   24.7210 O.3     1  UNL1       -0.2162
     26 C         -26.3540    0.5760   25.7770 C.2     1  UNL1        0.1931
     27 F         -25.8600   -0.6810   25.7950 F       1  UNL1       -0.1992
     28 C         -21.2693    1.4694   27.5598 C.2     1  UNL1       -0.0205
     29 C         -21.9285    1.7264   26.3919 C.2     1  UNL1        0.0072
     30 C         -27.6633    3.0747   30.0326 C.3     1  UNL1        0.2404
     31 C         -26.8959   -0.2418   28.8880 C.3     1  UNL1        0.1120
     32 N         -26.6610    2.2689   29.8718 N.3     1  UNL1       -0.0928
     33 C         -25.5789    4.4022   32.6166 C.3     1  UNL1        0.0966
     34 C         -24.4359    1.4061   27.0711 C.2     1  UNL1        0.0261
     35 C         -24.5426    0.8330   28.4079 C.2     1  UNL1        0.0450
     36 CL        -23.4038    2.5299   24.7983 Cl      1  UNL1       -0.0822
     37 N         -27.4151    4.0378   30.9220 N.2     1  UNL1       -0.2182
     38 C         -26.1750    3.8202   31.3468 C.2     1  UNL1        0.2225
     39 C         -23.2537    0.9674   28.9955 C.2     1  UNL1       -0.0069
     40 C         -21.9606    1.1773   28.6703 C.3     1  UNL1        0.0533
     41 N         -25.3212   -0.2977   28.9326 N.pl3   1  UNL1       -0.3027
     42 O         -25.5086    2.9013   30.7011 O.2     1  UNL1       -0.3849
     43 C         -23.2282    1.7594   26.2765 C.2     1  UNL1        0.0586
     44 C         -27.2439    0.8924   29.5652 C.3     1  UNL1        0.1371
@<TRIPOS>BOND
     1     1    41    1
     2     2     7    1
     3     2     1    1
     4     3     2    2
     5     4     3    1
     6     4     5    2
     7     5     6    1
     8     6     7    2
     9     8     1    1
    10     8     9    1
    11     8    12    1
    12     9    10    1
    13    10    11    1
    14    12    11    1
    15    13    34    1
    16    14    13    1
    17    14    15    1
    18    15    18    2
    19    16    17    1
    20    16    15    1
    21    19    14    2
    22    20    21    2
    23    20    19    1
    24    21    26    1
    25    22    21    1
    26    23    22    1
    27    24    23    1
    28    24    25    1
    29    26    27    1
    30    26    13    2
    31    28    40    1
    32    29    28    2
    33    30    37    1
    34    31    41    1
    35    31    44    1
    36    32    30    1
    37    32    42    1
    38    34    35    1
    39    35    41    1
    40    35    39    2
    41    36    43    1
    42    37    38    2
    43    38    33    1
    44    40    39    1
    45    42    38    1
    46    43    29    1
    47    43    34    2
    48    44    32    1
