@<TRIPOS>MOLECULE
outputs/IAG933/test6/raw/output_1059_IAG933_linker_design_.xyz
 42 47 0 0 0
SMALL
GASTEIGER

@<TRIPOS>ATOM
      1 C         -24.8550   -1.0120   30.1430 C.3     1  UNL1        0.0495
      2 C         -24.9730   -2.5050   29.7880 C.2     1  UNL1       -0.0206
      3 C         -23.9060   -3.1730   29.1460 C.2     1  UNL1       -0.0042
      4 C         -23.9890   -4.5490   28.8530 C.2     1  UNL1       -0.0003
      5 C         -25.1370   -5.2800   29.2050 C.2     1  UNL1       -0.0000
      6 C         -26.2320   -4.6110   29.7840 C.2     1  UNL1       -0.0003
      7 C         -26.1550   -3.2320   30.0650 C.2     1  UNL1       -0.0042
      8 C         -25.3870   -0.6790   31.5710 C.3     1  UNL1        0.0995
      9 C         -25.1890    0.7730   32.0280 C.3     1  UNL1        0.1506
     10 C         -25.3360    0.6840   33.5440 C.3     1  UNL1        0.0443
     11 C         -24.8290   -0.7150   33.9050 C.3     1  UNL1        0.0905
     12 N         -24.7580   -1.4810   32.6460 N.3     1  UNL1       -0.2173
     13 C         -25.6880    1.6140   26.4610 C.3     1  UNL1        0.0766
     14 C         -26.2500    2.9200   26.3950 C.2     1  UNL1        0.0552
     15 C         -25.6420    4.0930   27.1230 C.2     1  UNL1        0.2625
     16 N         -25.6140    5.2520   26.4490 N.am    1  UNL1       -0.2000
     17 C         -25.0260    6.4790   26.9630 C.3     1  UNL1        0.1388
     18 O         -25.1430    3.9660   28.2430 O.2     1  UNL1       -0.2687
     19 C         -27.4380    3.0910   25.6450 C.2     1  UNL1        0.1022
     20 N         -28.0750    2.0890   25.0030 N.2     1  UNL1       -0.2119
     21 C         -27.5430    0.8490   25.0790 C.2     1  UNL1        0.2341
     22 O         -28.1930   -0.2080   24.4770 O.2     1  UNL1       -0.4585
     23 C         -29.4600    0.0050   23.8660 C.3     1  UNL1        0.2423
     24 C         -30.0650   -1.3770   23.5730 C.3     1  UNL1        0.2292
     25 O         -30.7290   -1.8780   24.7210 O.3     1  UNL1       -0.2162
     26 C         -26.3540    0.5760   25.7770 C.3     1  UNL1        0.2404
     27 F         -25.8600   -0.6810   25.7950 F       1  UNL1       -0.2269
     28 C         -23.3812    1.5538   27.2521 C.2     1  UNL1        0.0628
     29 O         -21.3207    1.9588   26.3124 O.2     1  UNL1       -0.3034
     30 F         -23.2139    2.8800   25.2260 F       1  UNL1       -0.1604
     31 C         -24.3714    0.0120   29.2741 C.3     1  UNL1        0.0958
     32 C         -22.5159    0.9780   28.0930 C.3     1  UNL1        0.2448
     33 O         -22.4210    0.1574   30.0997 O.2     1  UNL1       -0.2929
     34 C         -22.6669    2.2790   26.2452 C.2     1  UNL1        0.3156
     35 C         -24.7454    1.3718   27.5410 C.3     1  UNL1        0.0640
     36 O         -24.6539    3.4226   32.2198 O.3     1  UNL1       -0.0718
     37 O         -26.8022    2.5562   31.3561 O.3     1  UNL1       -0.0718
     38 C         -25.0528    1.3158   29.0390 C.3     1  UNL1        0.1548
     39 O         -21.2264    1.2197   27.6267 O.3     1  UNL1       -0.1610
     40 C         -22.9984    0.2443   29.1043 C.2     1  UNL1        0.1883
     41 O         -24.5194    2.2074   30.0652 O.3     1  UNL1       -0.2438
     42 S         -25.3710    2.3292   31.5097 S.3     1  UNL1       -0.0073
@<TRIPOS>BOND
     1     1     2    1
     2     1     8    1
     3     2     7    1
     4     3     2    2
     5     4     3    1
     6     4     5    2
     7     5     6    1
     8     6     7    2
     9     8     9    1
    10     8    12    1
    11     9    10    1
    12    10    11    1
    13    12    11    1
    14    13    14    1
    15    13    35    1
    16    14    15    1
    17    15    18    2
    18    16    17    1
    19    16    15    1
    20    19    14    2
    21    20    21    2
    22    20    19    1
    23    21    26    1
    24    22    21    1
    25    23    22    1
    26    24    23    1
    27    24    25    1
    28    26    27    1
    29    26    13    1
    30    29    39    1
    31    30    34    1
    32    31    40    1
    33    31     1    1
    34    32    28    1
    35    32    40    1
    36    34    29    1
    37    34    28    2
    38    35    28    1
    39    35    38    1
    40    37    42    1
    41    38    31    1
    42    38    41    1
    43    39    32    1
    44    40    33    2
    45    41    42    1
    46    42     9    1
    47    42    36    1
