@<TRIPOS>MOLECULE
outputs/IAG933/test6/raw/output_106_IAG933_linker_design_.xyz
 44 48 0 0 0
SMALL
GASTEIGER

@<TRIPOS>ATOM
      1 C         -24.8550   -1.0120   30.1430 C.3     1  UNL1        0.0530
      2 C         -24.9730   -2.5050   29.7880 C.2     1  UNL1       -0.0198
      3 C         -23.9060   -3.1730   29.1460 C.2     1  UNL1       -0.0042
      4 C         -23.9890   -4.5490   28.8530 C.2     1  UNL1       -0.0003
      5 C         -25.1370   -5.2800   29.2050 C.2     1  UNL1       -0.0000
      6 C         -26.2320   -4.6110   29.7840 C.2     1  UNL1       -0.0003
      7 C         -26.1550   -3.2320   30.0650 C.2     1  UNL1       -0.0042
      8 C         -25.3870   -0.6790   31.5710 C.3     1  UNL1        0.0781
      9 C         -25.1890    0.7730   32.0280 C.3     1  UNL1        0.0192
     10 C         -25.3360    0.6840   33.5440 C.3     1  UNL1        0.0202
     11 C         -24.8290   -0.7150   33.9050 C.3     1  UNL1        0.0887
     12 N         -24.7580   -1.4810   32.6460 N.3     1  UNL1       -0.2191
     13 C         -25.6880    1.6140   26.4610 C.3     1  UNL1        0.0848
     14 C         -26.2500    2.9200   26.3950 C.2     1  UNL1        0.0561
     15 C         -25.6420    4.0930   27.1230 C.2     1  UNL1        0.2625
     16 N         -25.6140    5.2520   26.4490 N.am    1  UNL1       -0.2000
     17 C         -25.0260    6.4790   26.9630 C.3     1  UNL1        0.1388
     18 O         -25.1430    3.9660   28.2430 O.2     1  UNL1       -0.2687
     19 C         -27.4380    3.0910   25.6450 C.2     1  UNL1        0.1022
     20 N         -28.0750    2.0890   25.0030 N.2     1  UNL1       -0.2119
     21 C         -27.5430    0.8490   25.0790 C.2     1  UNL1        0.2341
     22 O         -28.1930   -0.2080   24.4770 O.2     1  UNL1       -0.4585
     23 C         -29.4600    0.0050   23.8660 C.3     1  UNL1        0.2423
     24 C         -30.0650   -1.3770   23.5730 C.3     1  UNL1        0.2292
     25 O         -30.7290   -1.8780   24.7210 O.3     1  UNL1       -0.2162
     26 C         -26.3540    0.5760   25.7770 C.3     1  UNL1        0.2413
     27 F         -25.8600   -0.6810   25.7950 F       1  UNL1       -0.2268
     28 C         -27.0707    1.2201   29.2203 C.3     1  UNL1        0.1376
     29 C         -30.5716    1.2872   28.7852 C.3     1  UNL1        0.0301
     30 C         -31.8974    3.4333   28.8184 C.3     1  UNL1        0.1421
     31 C         -22.8703    1.8464   25.9375 C.3     1  UNL1        0.0014
     32 C         -22.5641    0.8268   28.3209 C.3     1  UNL1        0.0027
     33 C         -28.1355    0.3231   29.1178 C.2     1  UNL1        0.1692
     34 C         -23.4100    0.9612   27.0593 C.3     1  UNL1        0.0151
     35 N         -25.6184    0.9966   28.6201 N.3     1  UNL1       -0.2683
     36 C         -24.8831    1.1783   27.4399 C.3     1  UNL1        0.0652
     37 C         -24.7257    0.2415   29.3450 C.3     1  UNL1        0.0632
     38 C         -31.0736    3.1627   27.7357 C.3     1  UNL1        0.0322
     39 C         -23.3936    1.0560   29.5806 C.3     1  UNL1        0.0164
     40 C         -30.2683    1.9656   29.7692 C.3     1  UNL1        0.1226
     41 O         -31.4774    2.5922   30.0285 O.3     1  UNL1       -0.3558
     42 O         -28.3266   -0.6459   28.3648 O.2     1  UNL1       -0.2945
     43 C         -30.2697    2.0659   27.6194 C.3     1  UNL1        0.0051
     44 C         -29.2660    0.8989   30.1995 C.3     1  UNL1        0.0954
@<TRIPOS>BOND
     1     1     2    1
     2     2     7    1
     3     3     2    2
     4     4     3    1
     5     4     5    2
     6     5     6    1
     7     6     7    2
     8     8     1    1
     9     8     9    1
    10     8    12    1
    11     9    10    1
    12    10    11    1
    13    12    11    1
    14    13    14    1
    15    13    36    1
    16    14    15    1
    17    15    18    2
    18    16    17    1
    19    16    15    1
    20    19    14    2
    21    20    21    2
    22    20    19    1
    23    21    26    1
    24    22    21    1
    25    23    22    1
    26    24    23    1
    27    24    25    1
    28    26    27    1
    29    26    13    1
    30    29    40    1
    31    30    41    1
    32    32    39    1
    33    33    28    1
    34    33    44    1
    35    34    31    1
    36    34    36    1
    37    34    32    1
    38    35    28    1
    39    35    37    1
    40    36    35    1
    41    37    39    1
    42    37     1    1
    43    38    30    1
    44    40    41    1
    45    40    44    1
    46    42    33    2
    47    43    38    1
    48    43    29    1
