@<TRIPOS>MOLECULE
outputs/IAG933/test6/raw/output_1060_IAG933_linker_design_.xyz
 44 47 0 0 0
SMALL
GASTEIGER

@<TRIPOS>ATOM
      1 C         -24.8550   -1.0120   30.1430 C.3     1  UNL1        0.0544
      2 C         -24.9730   -2.5050   29.7880 C.2     1  UNL1       -0.0198
      3 C         -23.9060   -3.1730   29.1460 C.2     1  UNL1       -0.0042
      4 C         -23.9890   -4.5490   28.8530 C.2     1  UNL1       -0.0003
      5 C         -25.1370   -5.2800   29.2050 C.2     1  UNL1       -0.0000
      6 C         -26.2320   -4.6110   29.7840 C.2     1  UNL1       -0.0003
      7 C         -26.1550   -3.2320   30.0650 C.2     1  UNL1       -0.0042
      8 C         -25.3870   -0.6790   31.5710 C.3     1  UNL1        0.0782
      9 C         -25.1890    0.7730   32.0280 C.3     1  UNL1        0.0192
     10 C         -25.3360    0.6840   33.5440 C.3     1  UNL1        0.0202
     11 C         -24.8290   -0.7150   33.9050 C.3     1  UNL1        0.0887
     12 N         -24.7580   -1.4810   32.6460 N.3     1  UNL1       -0.2191
     13 C         -25.6880    1.6140   26.4610 C.2     1  UNL1        0.0160
     14 C         -26.2500    2.9200   26.3950 C.2     1  UNL1        0.0726
     15 C         -25.6420    4.0930   27.1230 C.2     1  UNL1        0.2661
     16 N         -25.6140    5.2520   26.4490 N.am    1  UNL1       -0.1997
     17 C         -25.0260    6.4790   26.9630 C.3     1  UNL1        0.1388
     18 O         -25.1430    3.9660   28.2430 O.2     1  UNL1       -0.2683
     19 C         -27.4380    3.0910   25.6450 C.2     1  UNL1        0.1064
     20 N         -28.0750    2.0890   25.0030 N.2     1  UNL1       -0.2081
     21 C         -27.5430    0.8490   25.0790 C.2     1  UNL1        0.2530
     22 O         -28.1930   -0.2080   24.4770 O.2     1  UNL1       -0.4558
     23 C         -29.4600    0.0050   23.8660 C.3     1  UNL1        0.2426
     24 C         -30.0650   -1.3770   23.5730 C.3     1  UNL1        0.2292
     25 O         -30.7290   -1.8780   24.7210 O.3     1  UNL1       -0.2162
     26 C         -26.3540    0.5760   25.7770 C.2     1  UNL1        0.1891
     27 F         -25.8600   -0.6810   25.7950 F       1  UNL1       -0.1996
     28 C         -29.5568    1.8472   30.1244 C.3     1  UNL1        0.2445
     29 C         -24.3920    1.0708   28.6912 C.3     1  UNL1        0.0505
     30 N         -28.5350    2.7149   30.7775 N.3     1  UNL1       -0.2460
     31 C         -21.3117    1.6153   27.0788 C.3     1  UNL1        0.1741
     32 N         -26.5930    0.0814   28.7580 N.3     1  UNL1       -0.2163
     33 C         -27.3613    1.0345   29.5964 C.3     1  UNL1        0.1230
     34 C         -30.1852    4.1128   31.9321 C.3     1  UNL1        0.0174
     35 C         -24.4528    1.3958   27.1797 C.3     1  UNL1        0.0329
     36 C         -28.8745    0.5778   29.5073 C.3     1  UNL1        0.2149
     37 O         -30.1463    2.5390   28.9115 O.3     1  UNL1       -0.2021
     38 C         -27.3216    2.5603   29.9267 C.3     1  UNL1        0.0944
     39 O         -22.2560    2.1272   28.0635 O.3     1  UNL1       -0.3510
     40 C         -25.2357   -0.0712   28.9200 C.3     1  UNL1        0.0809
     41 O         -29.0722   -0.2284   28.2927 O.3     1  UNL1       -0.2173
     42 C         -22.8327    1.0153   28.8735 C.3     1  UNL1        0.1439
     43 C         -27.9697    5.0770   32.0479 C.3     1  UNL1        0.0174
     44 C         -28.8842    4.1804   31.1281 C.3     1  UNL1        0.0599
@<TRIPOS>BOND
     1     1    40    1
     2     2     7    1
     3     2     1    1
     4     3     2    2
     5     4     3    1
     6     4     5    2
     7     5     6    1
     8     6     7    2
     9     8     1    1
    10     8     9    1
    11     8    12    1
    12     9    10    1
    13    10    11    1
    14    12    11    1
    15    13    35    1
    16    14    13    1
    17    14    15    1
    18    15    18    2
    19    16    17    1
    20    16    15    1
    21    19    14    2
    22    20    21    2
    23    20    19    1
    24    21    26    1
    25    22    21    1
    26    23    22    1
    27    24    23    1
    28    24    25    1
    29    26    27    1
    30    26    13    2
    31    28    37    1
    32    28    30    1
    33    29    35    1
    34    29    42    1
    35    29    40    1
    36    30    44    1
    37    31    39    1
    38    33    32    1
    39    33    38    1
    40    36    41    1
    41    36    33    1
    42    36    28    1
    43    38    30    1
    44    39    42    1
    45    40    32    1
    46    44    34    1
    47    44    43    1
