@<TRIPOS>MOLECULE
No_1061-gen_results/8p0m/2024-11-27-11-27-31/
 27 29 0 0 0
SMALL
GASTEIGER

@<TRIPOS>ATOM
      1 C         -28.0162   -0.8135   28.8779 C.ar    1  UNL1        0.1594
      2 C         -27.0636   -0.1189   28.6079 C.ar    1  UNL1        0.0385
      3 C         -25.7647   -0.3897   29.0360 C.ar    1  UNL1        0.0032
      4 C         -25.5296   -1.5302   29.9014 C.ar    1  UNL1        0.0011
      5 C         -26.6888   -2.2893   30.1810 C.ar    1  UNL1        0.0145
      6 C         -27.8727   -1.9508   29.7373 C.ar    1  UNL1        0.0922
      7 C         -24.5491    0.4100   28.7341 C.ar    1  UNL1        0.0031
      8 C         -23.3309    0.0437   29.0569 C.ar    1  UNL1        0.0002
      9 C         -22.1994    0.8236   28.7067 C.ar    1  UNL1        0.0031
     10 C         -22.3657    1.8184   27.6957 C.ar    1  UNL1        0.0369
     11 C         -24.7318    1.6447   27.9864 C.ar    1  UNL1        0.0369
     12 C         -23.6152    2.2758   27.4603 C.ar    1  UNL1        0.1391
     13 CL        -29.2299   -2.8903   30.2072 Cl      1  UNL1       -0.0791
     14 O         -23.7811    3.3878   26.6975 O.3     1  UNL1       -0.4706
     15 C         -25.1418    3.7907   26.4565 C.3     1  UNL1        0.2320
     16 O         -29.2879   -0.5472   28.4847 O.3     1  UNL1       -0.4156
     17 C         -30.1162    0.1637   29.2775 C.2     1  UNL1        0.4267
     18 C         -31.3824   -0.0981   29.0937 C.2     1  UNL1        0.4625
     19 O         -32.1727    0.1393   29.9249 O.co2   1  UNL1       -0.2332
     20 O         -31.8350   -0.6275   27.9824 O.co2   1  UNL1       -0.2332
     21 O         -29.6190    1.0745   30.0055 O.2     1  UNL1       -0.2370
     22 C         -25.6961    4.6873   27.3058 C.ar    1  UNL1        0.0212
     23 C         -26.2277    4.4008   28.2836 C.ar    1  UNL1       -0.0007
     24 C         -26.5451    4.9533   29.1871 C.ar    1  UNL1       -0.0002
     25 C         -26.4430    6.4307   29.1821 C.ar    1  UNL1       -0.0000
     26 C         -25.8265    7.0050   28.0928 C.ar    1  UNL1       -0.0002
     27 C         -25.3262    6.1048   27.0971 C.ar    1  UNL1       -0.0007
@<TRIPOS>BOND
     1     3     7    1
     2     6    13    1
     3    12    14    1
     4    14    15    1
     5     1    16    1
     6    16    17    1
     7    17    18    1
     8    18    19   ar
     9    18    20   ar
    10    17    21    2
    11    15    22    1
    12     7     8   ar
    13     8     9   ar
    14     9    10   ar
    15    10    12   ar
    16    12    11   ar
    17    11     7   ar
    18     1     2   ar
    19     2     3   ar
    20     3     4   ar
    21     4     5   ar
    22     5     6   ar
    23     6     1   ar
    24    22    23   ar
    25    23    24   ar
    26    24    25   ar
    27    25    26   ar
    28    26    27   ar
    29    27    22   ar
