@<TRIPOS>MOLECULE
No_1063-gen_results/8p0m/2024-11-27-11-27-31/
 9 9 0 0 0
SMALL
GASTEIGER

@<TRIPOS>ATOM
      1 C         -28.0162   -0.8135   28.8779 C.ar    1  UNL1        0.0066
      2 C         -28.4690   -0.7850   29.8287 C.ar    1  UNL1        0.0798
      3 C         -26.5042   -0.7777   28.8766 C.ar    1  UNL1        0.0002
      4 C         -25.9500    0.1157   29.4052 C.ar    1  UNL1        0.0000
      5 C         -27.9964    0.1190   30.9527 C.ar    1  UNL1        0.0066
      6 C         -26.6037    0.4647   30.8030 C.ar    1  UNL1        0.0002
      7 C         -29.9608   -1.0927   30.0975 C.2     1  UNL1        0.3878
      8 O         -30.2956   -2.0384   30.4914 O.co2   1  UNL1       -0.2406
      9 O         -30.8652   -0.2130   29.7171 O.co2   1  UNL1       -0.2406
@<TRIPOS>BOND
     1     2     7    1
     2     7     8   ar
     3     7     9   ar
     4     1     2   ar
     5     2     5   ar
     6     5     6   ar
     7     6     4   ar
     8     4     3   ar
     9     3     1   ar
