@<TRIPOS>MOLECULE
outputs/IAG933/test6/raw/output_1064_IAG933_linker_design_.xyz
 48 53 0 0 0
SMALL
GASTEIGER

@<TRIPOS>ATOM
      1 C         -24.8550   -1.0120   30.1430 C.3     1  UNL1        0.1472
      2 C         -24.9730   -2.5050   29.7880 C.2     1  UNL1        0.0016
      3 C         -23.9060   -3.1730   29.1460 C.2     1  UNL1       -0.0024
      4 C         -23.9890   -4.5490   28.8530 C.2     1  UNL1       -0.0003
      5 C         -25.1370   -5.2800   29.2050 C.2     1  UNL1       -0.0000
      6 C         -26.2320   -4.6110   29.7840 C.2     1  UNL1       -0.0003
      7 C         -26.1550   -3.2320   30.0650 C.2     1  UNL1       -0.0024
      8 C         -25.3870   -0.6790   31.5710 C.3     1  UNL1        0.0998
      9 C         -25.1890    0.7730   32.0280 C.3     1  UNL1        0.0212
     10 C         -25.3360    0.6840   33.5440 C.3     1  UNL1        0.0203
     11 C         -24.8290   -0.7150   33.9050 C.3     1  UNL1        0.0888
     12 N         -24.7580   -1.4810   32.6460 N.3     1  UNL1       -0.2171
     13 C         -25.6880    1.6140   26.4610 C.2     1  UNL1        0.0392
     14 C         -26.2500    2.9200   26.3950 C.2     1  UNL1        0.0766
     15 C         -25.6420    4.0930   27.1230 C.2     1  UNL1        0.2664
     16 N         -25.6140    5.2520   26.4490 N.am    1  UNL1       -0.1997
     17 C         -25.0260    6.4790   26.9630 C.3     1  UNL1        0.1388
     18 O         -25.1430    3.9660   28.2430 O.2     1  UNL1       -0.2683
     19 C         -27.4380    3.0910   25.6450 C.2     1  UNL1        0.1067
     20 N         -28.0750    2.0890   25.0030 N.2     1  UNL1       -0.2081
     21 C         -27.5430    0.8490   25.0790 C.2     1  UNL1        0.2533
     22 O         -28.1930   -0.2080   24.4770 O.2     1  UNL1       -0.4558
     23 C         -29.4600    0.0050   23.8660 C.3     1  UNL1        0.2426
     24 C         -30.0650   -1.3770   23.5730 C.3     1  UNL1        0.2292
     25 O         -30.7290   -1.8780   24.7210 O.3     1  UNL1       -0.2162
     26 C         -26.3540    0.5760   25.7770 C.2     1  UNL1        0.1931
     27 F         -25.8600   -0.6810   25.7950 F       1  UNL1       -0.1992
     28 C         -31.1424   -3.4623   30.3375 C.2     1  UNL1        0.1001
     29 C         -31.1110   -0.5779   27.9310 C.2     1  UNL1        0.0584
     30 C         -24.3444    0.5604   28.2808 C.2     1  UNL1        0.0646
     31 C         -27.9566    0.0224   30.0334 C.3     1  UNL1        0.2761
     32 C         -24.4683    1.3899   27.0361 C.2     1  UNL1        0.0165
     33 C         -22.1130    1.8527   26.3905 C.2     1  UNL1       -0.0003
     34 C         -21.7084    0.5595   28.4742 C.2     1  UNL1       -0.0198
     35 C         -21.2642    1.2513   27.3449 C.2     1  UNL1       -0.0042
     36 N         -25.3146   -0.0658   29.0770 N.3     1  UNL1       -0.2373
     37 N         -29.2485   -0.5365   29.3354 N.am    1  UNL1       -0.2270
     38 O         -26.7481    0.1014   29.1334 O.3     1  UNL1       -0.2342
     39 C         -29.6823   -1.5743   30.1469 C.2     1  UNL1        0.0594
     40 C         -31.5588   -1.7626   28.6214 C.2     1  UNL1        0.0075
     41 N         -30.2561   -3.9815   31.2183 N.2     1  UNL1       -0.2422
     42 C         -23.4348    1.9067   26.2750 C.2     1  UNL1        0.0012
     43 C         -23.0171    0.3269   28.8508 C.3     1  UNL1        0.0718
     44 C         -29.1436   -3.3310   31.6485 C.2     1  UNL1        0.1002
     45 C         -30.8385   -2.2412   29.7119 C.2     1  UNL1        0.0331
     46 O         -29.5517    1.2133   27.9548 O.2     1  UNL1       -0.2695
     47 C         -28.9266   -2.0345   31.2549 C.2     1  UNL1        0.0357
     48 C         -29.8961    0.0967   28.3805 C.2     1  UNL1        0.2547
@<TRIPOS>BOND
     1     1    36    1
     2     2     7    1
     3     2     1    1
     4     3     2    2
     5     4     3    1
     6     4     5    2
     7     5     6    1
     8     6     7    2
     9     8     1    1
    10     8     9    1
    11     8    12    1
    12     9    10    1
    13    10    11    1
    14    12    11    1
    15    13    32    1
    16    14    13    1
    17    14    15    1
    18    15    18    2
    19    16    17    1
    20    16    15    1
    21    19    14    2
    22    20    21    2
    23    20    19    1
    24    21    26    1
    25    22    21    1
    26    23    22    1
    27    24    23    1
    28    24    25    1
    29    26    27    1
    30    26    13    2
    31    28    41    1
    32    29    48    1
    33    29    40    2
    34    30    43    1
    35    30    36    1
    36    32    30    2
    37    33    35    1
    38    34    43    1
    39    35    34    2
    40    36    38    1
    41    37    31    1
    42    37    39    1
    43    38    31    1
    44    39    47    2
    45    40    45    1
    46    41    44    2
    47    42    33    2
    48    42    32    1
    49    45    39    1
    50    45    28    2
    51    46    48    2
    52    47    44    1
    53    48    37   am
