@<TRIPOS>MOLECULE
No_1065-gen_results/8p0m/2024-11-27-11-27-31/
 23 25 0 0 0
SMALL
GASTEIGER

@<TRIPOS>ATOM
      1 F         -28.0727   -1.2542   28.5316 F       1  UNL1       -0.2045
      2 C         -27.3591   -0.3792   28.7224 C.ar    1  UNL1        0.1359
      3 C         -27.7014    0.7608   29.1249 C.ar    1  UNL1        0.0020
      4 C         -25.8844   -0.6918   28.4374 C.ar    1  UNL1        0.0294
      5 C         -24.9212    0.3779   28.6013 C.ar    1  UNL1        0.0051
      6 C         -26.6914    1.8696   29.2705 C.ar    1  UNL1       -0.0196
      7 C         -25.3451    1.6252   29.0013 C.ar    1  UNL1       -0.0036
      8 C         -23.5124    0.1705   28.3599 C.ar    1  UNL1        0.0421
      9 C         -22.7659    1.1813   27.7690 C.ar    1  UNL1        0.1957
     10 C         -23.2773    2.5793   27.9731 C.ar    1  UNL1        0.0420
     11 C         -24.4620    2.7334   28.6826 C.ar    1  UNL1        0.0030
     12 O         -21.4805    1.1199   27.4662 O.3     1  UNL1       -0.2866
     13 C         -27.1577    3.2495   29.7018 C.3     1  UNL1        0.0521
     14 C         -26.8501    3.6207   30.9422 C.2     1  UNL1       -0.0214
     15 C         -26.9563    2.8678   32.0292 C.2     1  UNL1       -0.0045
     16 C         -27.4783    1.5868   31.9805 C.ar    1  UNL1       -0.0043
     17 C         -27.4308    0.9154   32.9213 C.ar    1  UNL1       -0.0003
     18 C         -27.8488   -0.5432   32.9412 C.ar    1  UNL1       -0.0000
     19 C         -28.3098   -1.0339   31.7127 C.ar    1  UNL1       -0.0003
     20 C         -28.5470   -0.1579   30.6992 C.ar    1  UNL1       -0.0043
     21 C         -28.1348    1.1082   31.1677 C.ar    1  UNL1       -0.0218
     22 C         -29.2139    2.0701   30.5565 C.3     1  UNL1        0.0310
     23 C         -28.4454    1.2484   27.7740 C.3     1  UNL1        0.0331
@<TRIPOS>BOND
     1     1     2    1
     2     9    12    1
     3     6    13    1
     4    13    14    1
     5    14    15    2
     6    15    16    1
     7    21    22    1
     8     3    23    1
     9     2     3   ar
    10     3     6   ar
    11     6     7   ar
    12     5     4   ar
    13     4     2   ar
    14     5     7   ar
    15     7    11   ar
    16    11    10   ar
    17    10     9   ar
    18     9     8   ar
    19     8     5   ar
    20    16    17   ar
    21    17    18   ar
    22    18    19   ar
    23    19    20   ar
    24    20    21   ar
    25    21    16   ar
