@<TRIPOS>MOLECULE
No_1066-gen_results/8p0m/2024-11-27-11-27-31/
 21 22 0 0 0
SMALL
GASTEIGER

@<TRIPOS>ATOM
      1 C         -28.0162   -0.8135   28.8779 C.ar    1  UNL1        0.0489
      2 C         -28.4690   -0.7850   29.8287 C.ar    1  UNL1        0.0607
      3 C         -26.5042   -0.7777   28.8766 C.ar    1  UNL1        0.1457
      4 C         -25.8103   -0.8531   30.1028 C.ar    1  UNL1        0.0303
      5 C         -27.9906   -0.8916   31.2257 C.ar    1  UNL1        0.0116
      6 C         -24.3976   -0.8364   30.1775 C.2     1  UNL1       -0.0235
      7 C         -26.5754   -0.8899   31.2661 C.ar    1  UNL1        0.0036
      8 C         -23.6362   -0.9045   29.1560 C.2     1  UNL1       -0.0303
      9 C         -22.1750   -0.7187   29.2225 C.3     1  UNL1        0.0257
     10 C         -23.9950   -1.5757   31.4340 C.3     1  UNL1        0.0261
     11 C         -23.3375   -0.6880   32.3525 C.3     1  UNL1        0.0050
     12 CL        -30.3199   -0.7098   29.8099 Cl      1  UNL1       -0.0821
     13 C         -21.6942    0.7032   29.2883 C.3     1  UNL1        0.0047
     14 C         -20.9735    1.0876   28.1149 C.3     1  UNL1        0.0004
     15 O         -25.8198   -0.7641   27.7494 O.3     1  UNL1       -0.4535
     16 C         -25.3145    0.5053   27.3033 C.ar    1  UNL1        0.1453
     17 C         -25.6719    1.6869   27.6442 C.ar    1  UNL1        0.0375
     18 C         -25.0601    2.8035   27.2204 C.ar    1  UNL1        0.0031
     19 C         -24.0397    2.7238   26.2194 C.ar    1  UNL1        0.0002
     20 C         -24.2872    0.4195   26.2233 C.ar    1  UNL1        0.0375
     21 C         -23.7144    1.5765   25.7011 C.ar    1  UNL1        0.0031
@<TRIPOS>BOND
     1     4     6    1
     2     6     8    2
     3     8     9    1
     4     6    10    1
     5    10    11    1
     6     2    12    1
     7     9    13    1
     8    13    14    1
     9     3    15    1
    10    15    16    1
    11    16    17   ar
    12    17    18   ar
    13    18    19   ar
    14    19    21   ar
    15    21    20   ar
    16    20    16   ar
    17     1     2   ar
    18     2     5   ar
    19     5     7   ar
    20     7     4   ar
    21     4     3   ar
    22     3     1   ar
