@<TRIPOS>MOLECULE
outputs/IAG933/test6/raw/output_1067_IAG933_linker_design_.xyz
 42 45 0 0 0
SMALL
GASTEIGER

@<TRIPOS>ATOM
      1 C         -24.8550   -1.0120   30.1430 C.3     1  UNL1        0.1152
      2 C         -24.9730   -2.5050   29.7880 C.2     1  UNL1       -0.0125
      3 C         -23.9060   -3.1730   29.1460 C.2     1  UNL1       -0.0038
      4 C         -23.9890   -4.5490   28.8530 C.2     1  UNL1       -0.0003
      5 C         -25.1370   -5.2800   29.2050 C.2     1  UNL1       -0.0000
      6 C         -26.2320   -4.6110   29.7840 C.2     1  UNL1       -0.0003
      7 C         -26.1550   -3.2320   30.0650 C.2     1  UNL1       -0.0038
      8 C         -25.3870   -0.6790   31.5710 C.3     1  UNL1        0.0855
      9 C         -25.1890    0.7730   32.0280 C.3     1  UNL1        0.0197
     10 C         -25.3360    0.6840   33.5440 C.3     1  UNL1        0.0203
     11 C         -24.8290   -0.7150   33.9050 C.3     1  UNL1        0.0887
     12 N         -24.7580   -1.4810   32.6460 N.3     1  UNL1       -0.2186
     13 C         -25.6880    1.6140   26.4610 C.3     1  UNL1        0.0929
     14 C         -26.2500    2.9200   26.3950 C.2     1  UNL1        0.0568
     15 C         -25.6420    4.0930   27.1230 C.2     1  UNL1        0.2625
     16 N         -25.6140    5.2520   26.4490 N.am    1  UNL1       -0.2000
     17 C         -25.0260    6.4790   26.9630 C.3     1  UNL1        0.1388
     18 O         -25.1430    3.9660   28.2430 O.2     1  UNL1       -0.2687
     19 C         -27.4380    3.0910   25.6450 C.2     1  UNL1        0.1022
     20 N         -28.0750    2.0890   25.0030 N.2     1  UNL1       -0.2119
     21 C         -27.5430    0.8490   25.0790 C.2     1  UNL1        0.2341
     22 O         -28.1930   -0.2080   24.4770 O.2     1  UNL1       -0.4585
     23 C         -29.4600    0.0050   23.8660 C.3     1  UNL1        0.2423
     24 C         -30.0650   -1.3770   23.5730 C.3     1  UNL1        0.2292
     25 O         -30.7290   -1.8780   24.7210 O.3     1  UNL1       -0.2162
     26 C         -26.3540    0.5760   25.7770 C.3     1  UNL1        0.2419
     27 F         -25.8600   -0.6810   25.7950 F       1  UNL1       -0.2268
     28 C         -22.8921    0.7833   28.7383 C.2     1  UNL1       -0.0025
     29 O         -27.0600   -0.6681   28.7814 O.2     1  UNL1       -0.2741
     30 O         -26.6521    2.8017   30.3173 O.2     1  UNL1       -0.2745
     31 C         -22.3358    1.9145   26.2128 C.2     1  UNL1        0.1399
     32 C         -21.4271    1.7233   27.1553 C.2     1  UNL1        0.0296
     33 C         -23.7769    1.1817   27.7203 C.2     1  UNL1       -0.0012
     34 C         -21.6277    1.1907   28.4112 C.2     1  UNL1        0.0020
     35 C         -29.1487    3.1505   29.3323 C.3     1  UNL1        0.0101
     36 C         -23.4703    1.5613   26.6235 C.2     1  UNL1        0.0270
     37 C         -28.1166    2.3905   28.4740 C.3     1  UNL1        0.0857
     38 C         -26.0007   -0.2371   29.2598 C.2     1  UNL1        0.2366
     39 F         -22.1804    2.4556   24.9360 F       1  UNL1       -0.2042
     40 C         -25.0473    1.1362   27.7786 C.3     1  UNL1        0.1121
     41 N         -25.9639    0.9597   28.9249 N.am    1  UNL1       -0.2269
     42 C         -26.8891    2.0042   29.3374 C.2     1  UNL1        0.2315
@<TRIPOS>BOND
     1     1    38    1
     2     2     7    1
     3     2     1    1
     4     3     2    2
     5     4     3    1
     6     4     5    2
     7     5     6    1
     8     6     7    2
     9     8     1    1
    10     8     9    1
    11     8    12    1
    12     9    10    1
    13    10    11    1
    14    12    11    1
    15    13    40    1
    16    14    13    1
    17    14    15    1
    18    15    18    2
    19    16    17    1
    20    16    15    1
    21    19    14    2
    22    20    21    2
    23    20    19    1
    24    21    26    1
    25    22    21    1
    26    23    22    1
    27    24    23    1
    28    24    25    1
    29    26    27    1
    30    26    13    1
    31    29    38    2
    32    31    36    2
    33    31    32    1
    34    32    34    2
    35    33    40    1
    36    33    28    2
    37    34    28    1
    38    36    33    1
    39    37    35    1
    40    37    42    1
    41    39    31    1
    42    40    41    1
    43    41    38   am
    44    41    42   am
    45    42    30    2
