@<TRIPOS>MOLECULE
No_1068-gen_results/8p0m/2024-11-27-11-27-31/
 21 22 0 0 0
SMALL
GASTEIGER

@<TRIPOS>ATOM
      1 C         -28.0162   -0.8135   28.8779 C.ar    1  UNL1        0.0041
      2 C         -28.4690   -0.7850   29.8287 C.ar    1  UNL1        0.0031
      3 C         -28.1816    0.4277   28.1134 C.ar    1  UNL1        0.0029
      4 C         -27.4498    0.6435   26.8500 C.ar    1  UNL1        0.0039
      5 C         -26.1815    0.0357   26.7145 C.ar    1  UNL1        0.0714
      6 C         -25.7800   -0.9326   27.6938 C.ar    1  UNL1        0.0077
      7 C         -26.5568   -1.2134   28.7413 C.ar    1  UNL1        0.0714
      8 C         -29.6198   -0.2424   30.2347 C.ar    1  UNL1        0.0375
      9 C         -30.0397    0.8257   29.3606 C.ar    1  UNL1        0.1454
     10 C         -29.3523    1.1382   28.2041 C.ar    1  UNL1        0.0375
     11 C         -25.9876   -2.2963   29.6358 C.3     1  UNL1        0.4186
     12 F         -25.5109   -3.0666   29.0790 F       1  UNL1       -0.1659
     13 F         -27.0921   -2.7641   30.3775 F       1  UNL1       -0.1659
     14 F         -25.1521   -1.6645   30.5474 F       1  UNL1       -0.1659
     15 O         -31.2524    1.4699   29.6969 O.3     1  UNL1       -0.4504
     16 C         -25.3231    0.3210   25.5832 C.3     1  UNL1        0.4186
     17 F         -25.7833    1.3317   25.1103 F       1  UNL1       -0.1659
     18 F         -24.0686    0.6117   26.0552 F       1  UNL1       -0.1659
     19 F         -25.2745   -0.6759   24.7405 F       1  UNL1       -0.1659
     20 C         -31.1806    2.4743   30.5162 C.2     1  UNL1        0.1796
     21 C         -31.8659    3.4010   30.7005 C.2     1  UNL1        0.0439
@<TRIPOS>BOND
     1     7    11    1
     2    11    12    1
     3    11    13    1
     4    11    14    1
     5     9    15    1
     6     5    16    1
     7    16    17    1
     8    16    18    1
     9    16    19    1
    10    15    20    1
    11    20    21    2
    12     1     2   ar
    13     2     8   ar
    14     8     9   ar
    15     9    10   ar
    16    10     3   ar
    17     1     3   ar
    18     3     4   ar
    19     4     5   ar
    20     5     6   ar
    21     6     7   ar
    22     7     1   ar
