@<TRIPOS>MOLECULE
No_107-gen_results/8p0m/2024-11-27-11-27-31/
 15 16 0 0 0
SMALL
GASTEIGER

@<TRIPOS>ATOM
      1 C         -28.0162   -0.8135   28.8779 C.ar    1  UNL1        0.0000
      2 C         -27.0636   -0.1189   28.6079 C.ar    1  UNL1        0.0000
      3 C         -26.9716    0.7139   27.5060 C.ar    1  UNL1        0.0000
      4 C         -28.1053    0.7744   26.6421 C.ar    1  UNL1        0.0000
      5 C         -29.2041    0.1179   27.0477 C.ar    1  UNL1        0.0000
      6 C         -29.2127   -0.6088   28.1281 C.ar    1  UNL1        0.0000
      7 C         -25.6064    1.2973   27.2607 C.ar    1  UNL1        0.0002
      8 C         -24.5747    0.9523   27.8916 C.ar    1  UNL1        0.0066
      9 C         -23.2508    1.5806   27.7141 C.ar    1  UNL1        0.0798
     10 C         -23.1204    2.3465   26.5712 C.ar    1  UNL1        0.0066
     11 C         -25.3405    2.2063   26.1432 C.ar    1  UNL1        0.0000
     12 C         -24.1505    2.7826   25.8889 C.ar    1  UNL1        0.0002
     13 C         -22.0384    1.1965   28.4872 C.2     1  UNL1        0.3878
     14 O         -22.1609    0.3755   29.4311 O.co2   1  UNL1       -0.2406
     15 O         -20.8747    1.5714   28.0511 O.co2   1  UNL1       -0.2406
@<TRIPOS>BOND
     1     3     7    1
     2     9    13    1
     3    13    14   ar
     4    13    15   ar
     5     7     8   ar
     6     8     9   ar
     7     9    10   ar
     8    10    12   ar
     9    12    11   ar
    10    11     7   ar
    11     1     2   ar
    12     2     3   ar
    13     3     4   ar
    14     4     5   ar
    15     5     6   ar
    16     6     1   ar
