@<TRIPOS>MOLECULE
No_1070-gen_results/8p0m/2024-11-27-11-27-31/
 10 10 0 0 0
SMALL
GASTEIGER

@<TRIPOS>ATOM
      1 C         -28.0162   -0.8135   28.8779 C.ar    1  UNL1        0.0114
      2 C         -28.4690   -0.7850   29.8287 C.ar    1  UNL1        0.0011
      3 C         -28.1960    0.3478   28.0550 C.ar    1  UNL1        0.0579
      4 C         -29.0191    1.3501   28.3782 C.ar    1  UNL1        0.0180
      5 C         -29.6249    1.2683   29.6012 C.ar    1  UNL1        0.0806
      6 C         -29.3821    0.1816   30.4004 C.ar    1  UNL1        0.0066
      7 CL        -27.4295    0.4280   26.4540 Cl      1  UNL1       -0.0822
      8 C         -30.5291    2.2956   30.0778 C.2     1  UNL1        0.3878
      9 O         -30.6088    2.6320   31.1920 O.co2   1  UNL1       -0.2406
     10 O         -31.4371    2.6547   29.1321 O.co2   1  UNL1       -0.2406
@<TRIPOS>BOND
     1     3     7    1
     2     5     8    1
     3     8     9   ar
     4     8    10   ar
     5     1     2   ar
     6     2     6   ar
     7     6     5   ar
     8     5     4   ar
     9     4     3   ar
    10     3     1   ar
