@<TRIPOS>MOLECULE
outputs/IAG933/test6/raw/output_1071_IAG933_linker_design_.xyz
 43 47 0 0 0
SMALL
GASTEIGER

@<TRIPOS>ATOM
      1 C         -24.8550   -1.0120   30.1430 C.3     1  UNL1        0.0440
      2 C         -24.9730   -2.5050   29.7880 C.2     1  UNL1       -0.0208
      3 C         -23.9060   -3.1730   29.1460 C.2     1  UNL1       -0.0042
      4 C         -23.9890   -4.5490   28.8530 C.2     1  UNL1       -0.0003
      5 C         -25.1370   -5.2800   29.2050 C.2     1  UNL1       -0.0000
      6 C         -26.2320   -4.6110   29.7840 C.2     1  UNL1       -0.0003
      7 C         -26.1550   -3.2320   30.0650 C.2     1  UNL1       -0.0042
      8 C         -25.3870   -0.6790   31.5710 C.3     1  UNL1        0.0917
      9 C         -25.1890    0.7730   32.0280 C.3     1  UNL1        0.0768
     10 C         -25.3360    0.6840   33.5440 C.3     1  UNL1        0.0362
     11 C         -24.8290   -0.7150   33.9050 C.3     1  UNL1        0.0901
     12 N         -24.7580   -1.4810   32.6460 N.3     1  UNL1       -0.2177
     13 C         -25.6880    1.6140   26.4610 C.3     1  UNL1        0.0951
     14 C         -26.2500    2.9200   26.3950 C.2     1  UNL1        0.0590
     15 C         -25.6420    4.0930   27.1230 C.2     1  UNL1        0.2628
     16 N         -25.6140    5.2520   26.4490 N.am    1  UNL1       -0.2000
     17 C         -25.0260    6.4790   26.9630 C.3     1  UNL1        0.1388
     18 O         -25.1430    3.9660   28.2430 O.2     1  UNL1       -0.2686
     19 C         -27.4380    3.0910   25.6450 C.2     1  UNL1        0.1025
     20 N         -28.0750    2.0890   25.0030 N.2     1  UNL1       -0.2118
     21 C         -27.5430    0.8490   25.0790 C.2     1  UNL1        0.2344
     22 O         -28.1930   -0.2080   24.4770 O.2     1  UNL1       -0.4585
     23 C         -29.4600    0.0050   23.8660 C.3     1  UNL1        0.2423
     24 C         -30.0650   -1.3770   23.5730 C.3     1  UNL1        0.2292
     25 O         -30.7290   -1.8780   24.7210 O.3     1  UNL1       -0.2162
     26 C         -26.3540    0.5760   25.7770 C.3     1  UNL1        0.2441
     27 F         -25.8600   -0.6810   25.7950 F       1  UNL1       -0.2265
     28 C         -23.2025    2.1106   26.1834 C.2     1  UNL1        0.1918
     29 C         -23.9841    0.6713   27.9924 C.2     1  UNL1       -0.0249
     30 N         -24.7320    3.8344   30.7260 N.3     1  UNL1       -0.0639
     31 C         -24.2820    1.4392   26.8612 C.2     1  UNL1        0.0197
     32 O         -26.8800    3.0437   30.6622 O.2     1  UNL1       -0.1560
     33 O         -26.1455    4.7186   32.4399 O.2     1  UNL1       -0.1560
     34 C         -26.8217    5.4283   30.0711 C.3     1  UNL1        0.1975
     35 C         -23.0131    0.9226   30.2123 C.3     1  UNL1        0.0999
     36 O         -23.3823    2.7538   24.9946 O.2     1  UNL1       -0.2869
     37 C         -22.8358    0.9017   28.6285 C.2     1  UNL1       -0.0101
     38 N         -24.3817    1.3658   30.7694 N.3     1  UNL1       -0.2524
     39 C         -24.7336   -0.3717   28.6947 C.3     1  UNL1        0.0317
     40 C         -21.9053    2.1022   26.7528 C.2     1  UNL1        0.0414
     41 S         -26.1569    4.2627   31.1163 S.O2    1  UNL1        0.0605
     42 C         -24.1194    2.6933   31.3448 C.3     1  UNL1        0.1901
     43 C         -21.7327    1.4958   27.9792 C.2     1  UNL1        0.0000
@<TRIPOS>BOND
     1     1     2    1
     2     1     8    1
     3     2     7    1
     4     3     2    2
     5     4     3    1
     6     4     5    2
     7     5     6    1
     8     6     7    2
     9     8     9    1
    10     8    12    1
    11     9    10    1
    12    10    11    1
    13    12    11    1
    14    13    31    1
    15    14    13    1
    16    14    15    1
    17    15    18    2
    18    16    17    1
    19    16    15    1
    20    19    14    2
    21    20    21    2
    22    20    19    1
    23    21    26    1
    24    22    21    1
    25    23    22    1
    26    24    23    1
    27    24    25    1
    28    26    27    1
    29    26    13    1
    30    28    40    2
    31    28    31    1
    32    29    37    1
    33    29    39    1
    34    30    41    1
    35    30    42    1
    36    31    29    2
    37    32    41    2
    38    34    41    1
    39    35    38    1
    40    36    28    1
    41    37    35    1
    42    38    42    1
    43    38     9    1
    44    39     1    1
    45    40    43    1
    46    41    33    2
    47    43    37    2
