@<TRIPOS>MOLECULE
No_1074-gen_results/8p0m/2024-11-27-11-27-31/
 34 38 0 0 0
SMALL
GASTEIGER

@<TRIPOS>ATOM
      1 C         -28.0162   -0.8135   28.8779 C.3     1  UNL1        0.0157
      2 C         -28.4690   -0.7850   29.8287 C.3     1  UNL1        0.0486
      3 C         -28.1816    0.4277   28.1134 C.3     1  UNL1        0.0837
      4 C         -27.0280    0.9338   27.5279 C.ar    1  UNL1       -0.0154
      5 C         -29.8654   -0.6573   30.0468 C.3     1  UNL1        0.2128
      6 C         -27.0821    2.0872   26.7153 C.ar    1  UNL1       -0.0034
      7 C         -30.3551    0.3177   29.1200 C.3     1  UNL1        0.2620
      8 C         -29.4261    0.9833   28.2132 C.2     1  UNL1        0.1976
      9 C         -25.7428    0.3443   27.5186 C.ar    1  UNL1       -0.0034
     10 C         -24.6368    0.8866   26.8414 C.ar    1  UNL1        0.0064
     11 C         -24.7491    2.0569   26.1380 C.ar    1  UNL1        0.0345
     12 C         -25.9584    2.6948   26.1246 C.ar    1  UNL1        0.0064
     13 O         -31.5823    0.8687   29.2862 O.3     1  UNL1       -0.4679
     14 BR        -23.1256    2.7812   25.4858 Br      1  UNL1       -0.0490
     15 C         -31.8227    1.8209   30.1308 C.ar    1  UNL1        0.1422
     16 C         -31.4421    2.0967   31.0702 C.ar    1  UNL1        0.0372
     17 C         -32.9034    2.7836   29.4545 C.ar    1  UNL1        0.0744
     18 C         -31.7771    3.2037   31.9318 C.ar    1  UNL1        0.0074
     19 C         -33.3130    3.8526   30.2491 C.ar    1  UNL1        0.1496
     20 C         -32.7608    4.0692   31.4722 C.ar    1  UNL1        0.0504
     21 O         -29.8245    1.9472   27.4603 O.2     1  UNL1       -0.2918
     22 O         -30.6230   -1.0978   30.9681 O.3     1  UNL1       -0.4750
     23 C         -30.6085   -2.3161   31.4709 C.ar    1  UNL1        0.1386
     24 C         -31.7603   -2.8139   31.9288 C.ar    1  UNL1        0.0369
     25 C         -31.8088   -4.0882   32.3086 C.ar    1  UNL1        0.0031
     26 C         -30.5908   -4.9142   32.3093 C.ar    1  UNL1        0.0002
     27 C         -29.4221   -4.3878   31.8227 C.ar    1  UNL1        0.0031
     28 C         -29.4273   -3.1293   31.3988 C.ar    1  UNL1        0.0369
     29 O         -34.2455    4.6736   29.7346 O.3     1  UNL1       -0.4506
     30 C         -34.2472    5.9372   30.0393 C.2     1  UNL1        0.1753
     31 C         -34.3684    6.3261   31.1042 C.2     1  UNL1        0.0209
     32 C         -33.5305    6.0868   32.3284 C.3     1  UNL1        0.0770
     33 C         -32.8805    5.1537   32.4045 C.2     1  UNL1        0.0879
     34 N         -32.0857    4.8156   33.5380 N.2     1  UNL1       -0.1522
@<TRIPOS>BOND
     1     1     2    1
     2     1     3    1
     3     3     4    1
     4     5     7    1
     5     3     8    1
     6     7     8    1
     7     7    13    1
     8    11    14    1
     9    13    15    1
    10     8    21    2
    11     5    22    1
    12    22    23    1
    13    19    29    1
    14    29    30    1
    15    30    31    2
    16    31    32    1
    17    20    33    1
    18    32    33    1
    19    33    34    2
    20     2     5    1
    21    23    24   ar
    22    24    25   ar
    23    25    26   ar
    24    26    27   ar
    25    27    28   ar
    26    28    23   ar
    27     4     6   ar
    28     6    12   ar
    29    12    11   ar
    30    11    10   ar
    31    10     9   ar
    32     9     4   ar
    33    15    16   ar
    34    16    18   ar
    35    18    20   ar
    36    20    19   ar
    37    19    17   ar
    38    17    15   ar
