@<TRIPOS>MOLECULE
No_1075-gen_results/8p0m/2024-11-27-11-27-31/
 24 25 0 0 0
SMALL
GASTEIGER

@<TRIPOS>ATOM
      1 C         -28.0162   -0.8135   28.8779 C.ar    1  UNL1        0.0416
      2 C         -27.0636   -0.1189   28.6079 C.ar    1  UNL1        0.0566
      3 C         -26.9716    0.7139   27.5060 C.ar    1  UNL1        0.0049
      4 C         -28.1053    0.7744   26.6421 C.ar    1  UNL1        0.0098
      5 C         -29.2008    0.1044   27.0527 C.ar    1  UNL1        0.1136
      6 C         -29.2096   -0.6029   28.1853 C.ar    1  UNL1        0.1451
      7 C         -30.2851    0.2916   26.0027 C.2     1  UNL1        0.3907
      8 O         -30.9770    1.0934   26.0318 O.co2   1  UNL1       -0.2404
      9 O         -30.4240   -0.7973   25.2032 O.co2   1  UNL1       -0.2404
     10 C         -25.7102   -0.2089   29.4469 C.2     1  UNL1        0.2490
     11 N         -24.6245   -0.5947   28.9338 N.am    1  UNL1       -0.2792
     12 C         -23.4742   -0.8027   29.4458 C.3     1  UNL1        0.0607
     13 C         -22.4648   -0.9201   28.4606 C.3     1  UNL1        0.0200
     14 C         -23.4752   -1.9729   30.4008 C.3     1  UNL1        0.0199
     15 C         -23.1168    0.5344   30.3666 C.3     1  UNL1        0.0199
     16 O         -25.9582   -0.6068   30.6713 O.2     1  UNL1       -0.2699
     17 C         -24.5336   -0.2078   27.4388 C.3     1  UNL1        0.0936
     18 C         -22.6790    0.1505   27.5330 C.3     1  UNL1        0.0232
     19 O         -30.3374   -1.2786   28.5057 O.3     1  UNL1       -0.4731
     20 C         -30.4545   -1.7053   29.8094 C.3     1  UNL1        0.2316
     21 C         -31.8461   -1.8660   30.1383 C.3     1  UNL1        0.1737
     22 N         -32.0803   -2.2490   31.2768 N.2     1  UNL1       -0.2531
     23 C         -31.1062   -2.5796   32.0054 C.2     1  UNL1        0.1614
     24 CL        -31.4158   -3.1604   33.6980 Cl      1  UNL1       -0.0592
@<TRIPOS>BOND
     1     5     7    1
     2     7     8   ar
     3     7     9   ar
     4     2    10    1
     5    10    11   am
     6    11    12    1
     7    12    13    1
     8    12    14    1
     9    12    15    1
    10    10    16    2
    11    11    17    1
    12    13    18    1
    13    17    18    1
    14     6    19    1
    15    19    20    1
    16    20    21    1
    17    21    22    1
    18    22    23    2
    19    23    24    1
    20     1     2   ar
    21     2     3   ar
    22     3     4   ar
    23     4     5   ar
    24     5     6   ar
    25     6     1   ar
