@<TRIPOS>MOLECULE
No_108-gen_results/8p0m/2024-11-27-11-27-31/
 17 18 0 0 0
SMALL
GASTEIGER

@<TRIPOS>ATOM
      1 C         -28.0162   -0.8135   28.8779 C.ar    1  UNL1        0.0111
      2 C         -27.0636   -0.1189   28.6079 C.ar    1  UNL1       -0.0028
      3 C         -25.7923   -0.4302   29.0761 C.ar    1  UNL1       -0.0002
      4 C         -25.5756   -1.5654   29.9363 C.ar    1  UNL1        0.0009
      5 C         -26.7354   -2.3004   30.2173 C.ar    1  UNL1        0.0114
      6 C         -27.9184   -1.9537   29.7629 C.ar    1  UNL1        0.0577
      7 CL        -29.2678   -2.8890   30.2152 Cl      1  UNL1       -0.0822
      8 C         -27.1068    1.1096   27.7591 C.ar    1  UNL1       -0.0184
      9 C         -26.2403    1.3313   26.8308 C.ar    1  UNL1       -0.0040
     10 C         -25.1051    0.4831   26.6996 C.ar    1  UNL1       -0.0003
     11 C         -24.7225   -0.3100   27.8747 C.ar    1  UNL1       -0.0000
     12 C         -28.3984    1.8358   27.6996 C.3     1  UNL1        0.0439
     13 C         -28.8814    2.2200   28.8110 C.2     1  UNL1       -0.0266
     14 C         -29.0295    1.9818   26.4619 C.3     1  UNL1        0.0087
     15 C         -30.2565    2.5142   29.0379 C.2     1  UNL1       -0.0300
     16 C         -28.6823    1.3782   25.3516 C.3     1  UNL1        0.0007
     17 C         -30.7180    2.9367   30.2508 C.3     1  UNL1        0.0304
@<TRIPOS>BOND
     1     6     7    1
     2     8    12    1
     3    12    13    1
     4    12    14    1
     5    13    15    2
     6    14    16    1
     7    15    17    1
     8     1     2   ar
     9     3     4   ar
    10     4     5   ar
    11     5     6   ar
    12     6     1   ar
    13     2     3   ar
    14     3    11   ar
    15    11    10   ar
    16    10     9   ar
    17     9     8   ar
    18     8     2   ar
