@<TRIPOS>MOLECULE
No_1080-gen_results/8p0m/2024-11-27-11-27-31/
 21 23 0 0 0
SMALL
GASTEIGER

@<TRIPOS>ATOM
      1 C         -28.0162   -0.8135   28.8779 C.ar    1  UNL1        0.0375
      2 C         -27.0636   -0.1189   28.6079 C.ar    1  UNL1        0.0031
      3 C         -26.9287    1.1713   29.0083 C.ar    1  UNL1        0.0003
      4 C         -25.7702    2.0341   28.6884 C.ar    1  UNL1        0.0032
      5 C         -25.6189    3.3482   29.0918 C.ar    1  UNL1        0.0002
      6 C         -29.0712   -0.3338   29.7689 C.ar    1  UNL1        0.1455
      7 C         -29.0128    0.9333   30.1718 C.ar    1  UNL1        0.0375
      8 C         -27.8993    1.7759   29.8587 C.ar    1  UNL1        0.0031
      9 C         -24.5417    4.1093   28.6528 C.ar    1  UNL1        0.0033
     10 C         -23.7334    3.5516   27.6135 C.ar    1  UNL1        0.0420
     11 C         -24.8513    1.6832   27.6298 C.ar    1  UNL1        0.0420
     12 C         -23.8924    2.3843   27.1237 C.ar    1  UNL1        0.1957
     13 O         -23.0635    1.9401   26.1641 O.3     1  UNL1       -0.2866
     14 O         -30.0500   -1.1917   30.0697 O.3     1  UNL1       -0.4487
     15 C         -29.8650   -2.3678   30.6757 C.ar    1  UNL1        0.2030
     16 C         -28.7948   -2.6587   31.2258 C.ar    1  UNL1        0.2330
     17 C         -30.9960   -3.3051   30.5702 C.ar    1  UNL1        0.1396
     18 O         -27.7685   -1.8922   31.3427 O.3     1  UNL1       -0.2832
     19 N         -30.8038   -4.5382   30.9336 N.ar    1  UNL1       -0.2389
     20 C         -29.7023   -4.9625   31.6629 C.ar    1  UNL1        0.1024
     21 C         -28.6453   -4.0982   31.8061 C.ar    1  UNL1        0.0659
@<TRIPOS>BOND
     1     3     4    1
     2    12    13    1
     3     6    14    1
     4    14    15    1
     5    16    18    1
     6    15    16   ar
     7    16    21   ar
     8    21    20   ar
     9    20    19   ar
    10    19    17   ar
    11    17    15   ar
    12     1     2   ar
    13     2     3   ar
    14     3     8   ar
    15     8     7   ar
    16     7     6   ar
    17     6     1   ar
    18     4     5   ar
    19     5     9   ar
    20     9    10   ar
    21    10    12   ar
    22    12    11   ar
    23    11     4   ar
