@<TRIPOS>MOLECULE
No_1091-gen_results/8p0m/2024-11-27-11-27-31/
 28 31 0 0 0
SMALL
GASTEIGER

@<TRIPOS>ATOM
      1 C         -28.0162   -0.8135   28.8779 C.ar    1  UNL1       -0.0003
      2 C         -27.0636   -0.1190   28.6079 C.ar    1  UNL1        0.0001
      3 C         -26.8756    1.1325   28.9134 C.ar    1  UNL1        0.0030
      4 C         -25.6883    1.9515   28.5672 C.ar    1  UNL1        0.0453
      5 C         -24.6394    1.2834   27.8753 C.ar    1  UNL1        0.0828
      6 C         -24.8068   -0.0513   27.6040 C.ar    1  UNL1        0.0067
      7 C         -25.9019   -0.7670   27.9511 C.ar    1  UNL1        0.0002
      8 C         -29.2125   -0.1153   29.1222 C.ar    1  UNL1       -0.0039
      9 C         -29.1930    1.2207   29.4151 C.ar    1  UNL1       -0.0178
     10 C         -28.0327    1.9256   29.1788 C.ar    1  UNL1       -0.0038
     11 C         -23.3539    1.8898   27.5892 C.2     1  UNL1        0.3879
     12 O         -23.1789    2.6305   26.7506 O.co2   1  UNL1       -0.2406
     13 O         -22.2101    1.4155   28.3583 O.co2   1  UNL1       -0.2406
     14 C         -25.4777    3.3728   28.9092 C.2     1  UNL1        0.1958
     15 C         -25.4641    3.9850   30.0211 C.ar    1  UNL1        0.0390
     16 C         -25.4578    3.2857   31.2831 C.ar    1  UNL1        0.0032
     17 C         -25.3693    4.0396   32.5082 C.ar    1  UNL1        0.0001
     18 C         -25.1469    5.4356   32.3971 C.ar    1  UNL1        0.0000
     19 C         -25.2152    6.0881   31.1640 C.ar    1  UNL1        0.0001
     20 C         -25.3209    5.3581   30.0347 C.ar    1  UNL1        0.0032
     21 O         -25.7679    4.1801   27.8516 O.2     1  UNL1       -0.2866
     22 C         -30.4279    1.9235   29.8840 C.3     1  UNL1        0.0526
     23 C         -31.0153    2.6484   29.1665 C.ar    1  UNL1       -0.0178
     24 C         -30.6060    2.9900   27.8134 C.ar    1  UNL1       -0.0039
     25 C         -31.3599    3.9237   27.0243 C.ar    1  UNL1       -0.0003
     26 C         -32.4859    4.5256   27.5604 C.ar    1  UNL1       -0.0000
     27 C         -32.9085    4.2707   28.8109 C.ar    1  UNL1       -0.0003
     28 C         -32.2149    3.4332   29.6407 C.ar    1  UNL1       -0.0039
@<TRIPOS>BOND
     1     5    11    1
     2    11    12   ar
     3    11    13   ar
     4     4    14    1
     5    14    15    1
     6    14    21    2
     7     9    22    1
     8    22    23    1
     9    15    16   ar
    10    16    17   ar
    11    17    18   ar
    12    18    19   ar
    13    19    20   ar
    14    20    15   ar
    15     3     4   ar
    16     4     5   ar
    17     5     6   ar
    18     6     7   ar
    19     7     2   ar
    20    23    24   ar
    21    24    25   ar
    22    25    26   ar
    23    26    27   ar
    24    27    28   ar
    25    28    23   ar
    26     1     2   ar
    27     2     3   ar
    28     3    10   ar
    29    10     9   ar
    30     9     8   ar
    31     8     1   ar
