@<TRIPOS>MOLECULE
No_1092-gen_results/8p0m/2024-11-27-11-27-31/
 32 35 0 0 0
SMALL
GASTEIGER

@<TRIPOS>ATOM
      1 C         -28.0162   -0.8135   28.8779 C.ar    1  UNL1        0.0336
      2 C         -27.0636   -0.1189   28.6079 C.ar    1  UNL1       -0.0080
      3 C         -25.7647   -0.3897   29.0360 C.ar    1  UNL1       -0.0030
      4 C         -25.5296   -1.5302   29.9014 C.ar    1  UNL1        0.0027
      5 C         -26.6577   -2.2915   30.2035 C.ar    1  UNL1        0.0371
      6 C         -27.8548   -1.9555   29.7630 C.ar    1  UNL1        0.1439
      7 C         -24.5441    0.4126   28.7379 C.ar    1  UNL1        0.0006
      8 C         -24.4731    1.2065   27.7114 C.ar    1  UNL1        0.0114
      9 C         -23.2779    1.8420   27.3661 C.ar    1  UNL1        0.0577
     10 C         -22.0928    1.6644   28.0343 C.ar    1  UNL1        0.0114
     11 C         -23.3031    0.1394   29.4701 C.ar    1  UNL1        0.0000
     12 C         -22.0943    0.7976   29.1026 C.ar    1  UNL1        0.0009
     13 O         -28.9305   -2.7270   30.1204 O.3     1  UNL1       -0.4255
     14 C         -30.0455   -2.1694   30.6085 C.3     1  UNL1        0.4815
     15 C         -31.1211   -2.7897   30.2133 C.3     1  UNL1        0.4233
     16 CL        -31.0802   -4.3594   29.8908 Cl      1  UNL1       -0.0377
     17 F         -32.1547   -2.5758   31.1363 F       1  UNL1       -0.1762
     18 F         -31.6006   -2.2238   29.0369 F       1  UNL1       -0.1762
     19 F         -29.9586   -0.8883   30.4479 F       1  UNL1       -0.1570
     20 F         -29.7928   -2.4024   31.9752 F       1  UNL1       -0.1570
     21 CL        -23.3038    2.9678   26.0134 Cl      1  UNL1       -0.0822
     22 C         -24.2093   -1.8542   30.4274 C.ar    1  UNL1        0.0001
     23 C         -23.1803   -0.9895   30.3559 C.ar    1  UNL1        0.0000
     24 C         -27.2165    1.1304   27.7182 C.3     1  UNL1        0.1094
     25 C         -28.2297    1.6635   27.4034 C.ar    1  UNL1       -0.0110
     26 C         -28.3796    2.7336   26.5090 C.ar    1  UNL1       -0.0035
     27 C         -29.5288    3.3214   26.1498 C.ar    1  UNL1       -0.0003
     28 C         -30.7313    2.7778   26.6153 C.ar    1  UNL1       -0.0000
     29 C         -30.7071    1.6869   27.4386 C.ar    1  UNL1       -0.0003
     30 C         -29.5307    1.1158   27.8215 C.ar    1  UNL1       -0.0035
     31 C         -25.8408    1.8196   27.3820 C.2     1  UNL1        0.2157
     32 O         -25.8976    2.8258   26.6058 O.2     1  UNL1       -0.2876
@<TRIPOS>BOND
     1     6    13    1
     2    13    14    1
     3    14    15    1
     4    15    16    1
     5    15    17    1
     6    15    18    1
     7    14    19    1
     8    14    20    1
     9     9    21    1
    10     2    24    1
    11    24    31    1
    12    31    32    2
    13    24    25    1
    14     7     8   ar
    15     8     9   ar
    16     9    10   ar
    17    10    12   ar
    18    12    11   ar
    19     1     2   ar
    20     2     3   ar
    21     4     5   ar
    22     5     6   ar
    23     6     1   ar
    24    25    26   ar
    25    26    27   ar
    26    27    28   ar
    27    28    29   ar
    28    29    30   ar
    29    30    25   ar
    30     3     4   ar
    31     4    22   ar
    32    22    23   ar
    33    23    11   ar
    34    11     7   ar
    35     7     3   ar
