@<TRIPOS>MOLECULE
outputs/IAG933/test6/raw/output_1093_IAG933_linker_design_.xyz
 40 42 0 0 0
SMALL
GASTEIGER

@<TRIPOS>ATOM
      1 C         -24.8550   -1.0120   30.1430 C.3     1  UNL1        0.0541
      2 C         -24.9730   -2.5050   29.7880 C.2     1  UNL1       -0.0203
      3 C         -23.9060   -3.1730   29.1460 C.2     1  UNL1       -0.0042
      4 C         -23.9890   -4.5490   28.8530 C.2     1  UNL1       -0.0003
      5 C         -25.1370   -5.2800   29.2050 C.2     1  UNL1       -0.0000
      6 C         -26.2320   -4.6110   29.7840 C.2     1  UNL1       -0.0003
      7 C         -26.1550   -3.2320   30.0650 C.2     1  UNL1       -0.0042
      8 C         -25.3870   -0.6790   31.5710 C.3     1  UNL1        0.0777
      9 C         -25.1890    0.7730   32.0280 C.3     1  UNL1        0.0192
     10 C         -25.3360    0.6840   33.5440 C.3     1  UNL1        0.0202
     11 C         -24.8290   -0.7150   33.9050 C.3     1  UNL1        0.0887
     12 N         -24.7580   -1.4810   32.6460 N.3     1  UNL1       -0.2191
     13 C         -25.6880    1.6140   26.4610 C.2     1  UNL1        0.1019
     14 C         -26.2500    2.9200   26.3950 C.2     1  UNL1        0.0905
     15 C         -25.6420    4.0930   27.1230 C.2     1  UNL1        0.2676
     16 N         -25.6140    5.2520   26.4490 N.am    1  UNL1       -0.1997
     17 C         -25.0260    6.4790   26.9630 C.3     1  UNL1        0.1388
     18 O         -25.1430    3.9660   28.2430 O.2     1  UNL1       -0.2683
     19 C         -27.4380    3.0910   25.6450 C.2     1  UNL1        0.1076
     20 N         -28.0750    2.0890   25.0030 N.2     1  UNL1       -0.2112
     21 C         -27.5430    0.8490   25.0790 C.2     1  UNL1        0.2399
     22 O         -28.1930   -0.2080   24.4770 O.2     1  UNL1       -0.4583
     23 C         -29.4600    0.0050   23.8660 C.3     1  UNL1        0.2423
     24 C         -30.0650   -1.3770   23.5730 C.3     1  UNL1        0.2292
     25 O         -30.7290   -1.8780   24.7210 O.3     1  UNL1       -0.2162
     26 C         -26.3540    0.5760   25.7770 C.3     1  UNL1        0.2752
     27 F         -25.8600   -0.6810   25.7950 F       1  UNL1       -0.2207
     28 C         -22.0892    1.4402   27.0027 C.2     1  UNL1        0.2600
     29 C         -26.6642    0.2922   29.0139 C.2     1  UNL1        0.2484
     30 C         -29.1806    1.8999   28.6453 C.3     1  UNL1        0.0252
     31 CL        -21.9703    1.9340   25.2768 Cl      1  UNL1       -0.0405
     32 C         -24.9807   -0.0231   29.0051 C.3     1  UNL1        0.1432
     33 O         -21.0016    1.4542   27.6054 O.2     1  UNL1       -0.2763
     34 O         -27.3961   -0.6588   28.7288 O.2     1  UNL1       -0.2729
     35 N         -26.9420    1.5066   29.3726 N.am    1  UNL1       -0.2051
     36 O         -22.4558   -0.2236   29.2725 O.2     1  UNL1       -0.2930
     37 C         -28.2083    1.9423   29.7456 C.3     1  UNL1        0.1152
     38 N         -24.5981    1.7379   27.1700 N.2     1  UNL1       -0.2570
     39 C         -23.4053    0.3187   28.6292 C.2     1  UNL1        0.1898
     40 C         -23.3771    1.1365   27.5364 C.3     1  UNL1        0.2326
@<TRIPOS>BOND
     1     1    32    1
     2     2     7    1
     3     2     1    1
     4     3     2    2
     5     4     3    1
     6     4     5    2
     7     5     6    1
     8     6     7    2
     9     8     1    1
    10     8     9    1
    11     8    12    1
    12     9    10    1
    13    10    11    1
    14    12    11    1
    15    13    38    2
    16    14    13    1
    17    14    15    1
    18    15    18    2
    19    16    17    1
    20    16    15    1
    21    19    14    2
    22    20    21    2
    23    20    19    1
    24    21    26    1
    25    22    21    1
    26    23    22    1
    27    24    23    1
    28    24    25    1
    29    26    27    1
    30    26    13    1
    31    28    33    2
    32    29    35    1
    33    30    37    1
    34    31    28    1
    35    32    39    1
    36    32    29    1
    37    34    29    2
    38    35    37    1
    39    38    40    1
    40    39    36    2
    41    40    28    1
    42    40    39    1
