@<TRIPOS>MOLECULE
outputs/IAG933/test6/raw/output_1098_IAG933_linker_design_.xyz
 42 45 0 0 0
SMALL
GASTEIGER

@<TRIPOS>ATOM
      1 C         -24.8550   -1.0120   30.1430 C.3     1  UNL1        0.0971
      2 C         -24.9730   -2.5050   29.7880 C.2     1  UNL1       -0.0064
      3 C         -23.9060   -3.1730   29.1460 C.2     1  UNL1       -0.0029
      4 C         -23.9890   -4.5490   28.8530 C.2     1  UNL1       -0.0003
      5 C         -25.1370   -5.2800   29.2050 C.2     1  UNL1       -0.0000
      6 C         -26.2320   -4.6110   29.7840 C.2     1  UNL1       -0.0003
      7 C         -26.1550   -3.2320   30.0650 C.2     1  UNL1       -0.0029
      8 C         -25.3870   -0.6790   31.5710 C.3     1  UNL1        0.0916
      9 C         -25.1890    0.7730   32.0280 C.3     1  UNL1        0.0206
     10 C         -25.3360    0.6840   33.5440 C.3     1  UNL1        0.0203
     11 C         -24.8290   -0.7150   33.9050 C.3     1  UNL1        0.0888
     12 N         -24.7580   -1.4810   32.6460 N.3     1  UNL1       -0.2178
     13 C         -25.6880    1.6140   26.4610 C.2     1  UNL1        0.0410
     14 C         -26.2500    2.9200   26.3950 C.2     1  UNL1        0.0765
     15 C         -25.6420    4.0930   27.1230 C.2     1  UNL1        0.2664
     16 N         -25.6140    5.2520   26.4490 N.am    1  UNL1       -0.1997
     17 C         -25.0260    6.4790   26.9630 C.3     1  UNL1        0.1388
     18 O         -25.1430    3.9660   28.2430 O.2     1  UNL1       -0.2683
     19 C         -27.4380    3.0910   25.6450 C.2     1  UNL1        0.1067
     20 N         -28.0750    2.0890   25.0030 N.2     1  UNL1       -0.2081
     21 C         -27.5430    0.8490   25.0790 C.2     1  UNL1        0.2533
     22 O         -28.1930   -0.2080   24.4770 O.2     1  UNL1       -0.4558
     23 C         -29.4600    0.0050   23.8660 C.3     1  UNL1        0.2426
     24 C         -30.0650   -1.3770   23.5730 C.3     1  UNL1        0.2292
     25 O         -30.7290   -1.8780   24.7210 O.3     1  UNL1       -0.2162
     26 C         -26.3540    0.5760   25.7770 C.2     1  UNL1        0.1930
     27 F         -25.8600   -0.6810   25.7950 F       1  UNL1       -0.1992
     28 O         -29.1478   -0.2999   28.0800 O.2     1  UNL1       -0.3177
     29 P         -28.3462    0.0859   29.2163 P.3     1  UNL1        0.1305
     30 F         -23.2080    2.0068   24.9121 F       1  UNL1       -0.1635
     31 C         -26.6697   -0.2866   28.7576 C.3     1  UNL1        0.1336
     32 N         -25.2578   -0.1127   29.0020 N.3     1  UNL1       -0.2542
     33 C         -28.5484    1.7578   29.5744 C.3     1  UNL1        0.0691
     34 C         -28.8032   -0.7968   30.6079 C.3     1  UNL1        0.0691
     35 C         -22.7722    0.6285   28.6856 C.2     1  UNL1        0.2436
     36 C         -24.3324    1.3215   27.0039 C.2     1  UNL1        0.0654
     37 O         -21.8874    1.5709   26.6969 O.2     1  UNL1       -0.4201
     38 F         -20.5473    1.2321   28.4953 F       1  UNL1       -0.1798
     39 C         -24.1789    0.6025   28.2450 C.3     1  UNL1        0.1511
     40 C         -23.1668    1.6614   26.2183 C.2     1  UNL1        0.2830
     41 O         -22.5142    0.1326   29.8330 O.2     1  UNL1       -0.2874
     42 C         -21.6795    1.1578   27.9542 C.3     1  UNL1        0.3892
@<TRIPOS>BOND
     1     1    32    1
     2     2     7    1
     3     2     1    1
     4     3     2    2
     5     4     3    1
     6     4     5    2
     7     5     6    1
     8     6     7    2
     9     8     1    1
    10     8     9    1
    11     8    12    1
    12     9    10    1
    13    10    11    1
    14    12    11    1
    15    13    36    1
    16    14    13    1
    17    14    15    1
    18    15    18    2
    19    16    17    1
    20    16    15    1
    21    19    14    2
    22    20    21    2
    23    20    19    1
    24    21    26    1
    25    22    21    1
    26    23    22    1
    27    24    23    1
    28    24    25    1
    29    26    27    1
    30    26    13    2
    31    28    29    2
    32    29    33    1
    33    29    34    1
    34    30    40    1
    35    31    32    1
    36    31    29    1
    37    35    41    2
    38    36    39    1
    39    37    42    1
    40    39    35    1
    41    39    32    1
    42    40    37    1
    43    40    36    2
    44    42    38    1
    45    42    35    1
