@<TRIPOS>MOLECULE
outputs/IAG933/test6/raw/output_1099_IAG933_linker_design_.xyz
 43 45 0 0 0
SMALL
GASTEIGER

@<TRIPOS>ATOM
      1 C         -24.8550   -1.0120   30.1430 C.3     1  UNL1        0.0593
      2 C         -24.9730   -2.5050   29.7880 C.2     1  UNL1       -0.0195
      3 C         -23.9060   -3.1730   29.1460 C.2     1  UNL1       -0.0042
      4 C         -23.9890   -4.5490   28.8530 C.2     1  UNL1       -0.0003
      5 C         -25.1370   -5.2800   29.2050 C.2     1  UNL1       -0.0000
      6 C         -26.2320   -4.6110   29.7840 C.2     1  UNL1       -0.0003
      7 C         -26.1550   -3.2320   30.0650 C.2     1  UNL1       -0.0042
      8 C         -25.3870   -0.6790   31.5710 C.3     1  UNL1        0.0785
      9 C         -25.1890    0.7730   32.0280 C.3     1  UNL1        0.0192
     10 C         -25.3360    0.6840   33.5440 C.3     1  UNL1        0.0202
     11 C         -24.8290   -0.7150   33.9050 C.3     1  UNL1        0.0887
     12 N         -24.7580   -1.4810   32.6460 N.3     1  UNL1       -0.2191
     13 C         -25.6880    1.6140   26.4610 C.3     1  UNL1        0.2350
     14 C         -26.2500    2.9200   26.3950 C.2     1  UNL1        0.0946
     15 C         -25.6420    4.0930   27.1230 C.2     1  UNL1        0.2658
     16 N         -25.6140    5.2520   26.4490 N.am    1  UNL1       -0.1999
     17 C         -25.0260    6.4790   26.9630 C.3     1  UNL1        0.1388
     18 O         -25.1430    3.9660   28.2430 O.2     1  UNL1       -0.2685
     19 C         -27.4380    3.0910   25.6450 C.2     1  UNL1        0.1057
     20 N         -28.0750    2.0890   25.0030 N.2     1  UNL1       -0.2116
     21 C         -27.5430    0.8490   25.0790 C.2     1  UNL1        0.2379
     22 O         -28.1930   -0.2080   24.4770 O.2     1  UNL1       -0.4584
     23 C         -29.4600    0.0050   23.8660 C.3     1  UNL1        0.2423
     24 C         -30.0650   -1.3770   23.5730 C.3     1  UNL1        0.2292
     25 O         -30.7290   -1.8780   24.7210 O.3     1  UNL1       -0.2162
     26 C         -26.3540    0.5760   25.7770 C.3     1  UNL1        0.2797
     27 F         -25.8600   -0.6810   25.7950 F       1  UNL1       -0.2229
     28 O         -28.3236   -0.3363   28.5669 O.3     1  UNL1       -0.4294
     29 C         -22.4106   -0.0059   28.8904 C.2     1  UNL1        0.1632
     30 C         -23.6120    1.3946   27.1828 C.2     1  UNL1        0.1248
     31 C         -23.1120    1.9021   26.4422 C.2     1  UNL1        0.0356
     32 O         -27.5703    1.4027   29.8330 O.2     1  UNL1       -0.2246
     33 C         -20.5838    1.5504   27.4938 C.2     1  UNL1        0.2175
     34 F         -22.1345   -0.8332   29.7171 F       1  UNL1       -0.2000
     35 O         -24.3587    1.6398   26.8114 O.2     1  UNL1       -0.4749
     36 C         -21.1973    0.9151   28.2613 C.1     1  UNL1       -0.0363
     37 O         -20.7067    2.3369   26.3127 O.2     1  UNL1       -0.4614
     38 C         -29.5430    0.1865   28.0077 C.3     1  UNL1        0.2574
     39 C         -27.4107    0.4782   29.0636 C.2     1  UNL1        0.4212
     40 N         -26.1664    0.2017   28.4795 N.am    1  UNL1       -0.1692
     41 C         -24.8808    0.0683   29.0709 C.3     1  UNL1        0.1180
     42 C         -23.6353    0.4244   28.3578 C.3     1  UNL1        0.1347
     43 C         -21.9768    2.6149   25.8060 C.3     1  UNL1        0.2534
@<TRIPOS>BOND
     1     1    41    1
     2     2     7    1
     3     2     1    1
     4     3     2    2
     5     4     3    1
     6     4     5    2
     7     5     6    1
     8     6     7    2
     9     8     1    1
    10     8     9    1
    11     8    12    1
    12     9    10    1
    13    10    11    1
    14    12    11    1
    15    13    35    1
    16    14    13    1
    17    14    15    1
    18    15    18    2
    19    16    17    1
    20    16    15    1
    21    19    14    2
    22    20    21    2
    23    20    19    1
    24    21    26    1
    25    22    21    1
    26    23    22    1
    27    24    23    1
    28    24    25    1
    29    26    27    1
    30    26    13    1
    31    28    39    1
    32    29    34    1
    33    31    30    2
    34    33    36    2
    35    35    30    1
    36    36    29    2
    37    37    33    1
    38    38    28    1
    39    39    32    2
    40    40    39    1
    41    41    40    1
    42    42    30    1
    43    42    29    1
    44    42    41    1
    45    43    37    1
