@<TRIPOS>MOLECULE
outputs/IAG933/test6/raw/output_11_IAG933_linker_design_.xyz
 46 50 0 0 0
SMALL
GASTEIGER

@<TRIPOS>ATOM
      1 C         -24.8550   -1.0120   30.1430 C.3     1  UNL1        0.0675
      2 C         -24.9730   -2.5050   29.7880 C.2     1  UNL1       -0.0165
      3 C         -23.9060   -3.1730   29.1460 C.2     1  UNL1       -0.0039
      4 C         -23.9890   -4.5490   28.8530 C.2     1  UNL1       -0.0003
      5 C         -25.1370   -5.2800   29.2050 C.2     1  UNL1       -0.0000
      6 C         -26.2320   -4.6110   29.7840 C.2     1  UNL1       -0.0003
      7 C         -26.1550   -3.2320   30.0650 C.2     1  UNL1       -0.0039
      8 C         -25.3870   -0.6790   31.5710 C.3     1  UNL1        0.0814
      9 C         -25.1890    0.7730   32.0280 C.3     1  UNL1        0.0195
     10 C         -25.3360    0.6840   33.5440 C.3     1  UNL1        0.0203
     11 C         -24.8290   -0.7150   33.9050 C.3     1  UNL1        0.0887
     12 N         -24.7580   -1.4810   32.6460 N.3     1  UNL1       -0.2188
     13 C         -25.6880    1.6140   26.4610 C.2     1  UNL1        0.0401
     14 C         -26.2500    2.9200   26.3950 C.2     1  UNL1        0.0766
     15 C         -25.6420    4.0930   27.1230 C.2     1  UNL1        0.2664
     16 N         -25.6140    5.2520   26.4490 N.am    1  UNL1       -0.1997
     17 C         -25.0260    6.4790   26.9630 C.3     1  UNL1        0.1388
     18 O         -25.1430    3.9660   28.2430 O.2     1  UNL1       -0.2683
     19 C         -27.4380    3.0910   25.6450 C.2     1  UNL1        0.1067
     20 N         -28.0750    2.0890   25.0030 N.2     1  UNL1       -0.2081
     21 C         -27.5430    0.8490   25.0790 C.2     1  UNL1        0.2533
     22 O         -28.1930   -0.2080   24.4770 O.2     1  UNL1       -0.4558
     23 C         -29.4600    0.0050   23.8660 C.3     1  UNL1        0.2426
     24 C         -30.0650   -1.3770   23.5730 C.3     1  UNL1        0.2292
     25 O         -30.7290   -1.8780   24.7210 O.3     1  UNL1       -0.2162
     26 C         -26.3540    0.5760   25.7770 C.2     1  UNL1        0.1931
     27 F         -25.8600   -0.6810   25.7950 F       1  UNL1       -0.1992
     28 C         -28.9156    4.1687   29.6897 C.3     1  UNL1        0.0725
     29 F         -20.8935    1.7799   27.9128 F       1  UNL1       -0.2046
     30 C         -22.1817    1.3376   27.7838 C.2     1  UNL1        0.1663
     31 C         -24.3558    0.6259   28.3901 C.2     1  UNL1        0.0073
     32 C         -23.0411    1.6574   26.7602 C.2     1  UNL1        0.1648
     33 C         -29.0709    1.7846   29.0814 C.3     1  UNL1        0.1507
     34 C         -28.5669    0.4117   28.8127 C.2     1  UNL1        0.2233
     35 C         -22.9514    0.6349   28.7500 C.3     1  UNL1        0.1663
     36 C         -26.9105    3.1182   29.9031 C.3     1  UNL1        0.0725
     37 C         -26.4111    4.1517   30.8592 C.3     1  UNL1        0.0174
     38 N         -22.3631   -0.0008   29.8498 N.3     1  UNL1       -0.1207
     39 C         -26.8116    5.5695   30.4606 C.3     1  UNL1        0.0029
     40 C         -28.1898    5.5327   29.7460 C.3     1  UNL1        0.0174
     41 C         -24.4174    1.3183   27.1208 C.2     1  UNL1        0.0300
     42 O         -29.1726   -0.5267   28.4892 O.2     1  UNL1       -0.2814
     43 N         -28.2553    2.9577   29.4851 N.3     1  UNL1       -0.2657
     44 F         -22.6045    2.2286   25.5792 F       1  UNL1       -0.2021
     45 C         -25.4469   -0.0291   29.1901 C.2     1  UNL1        0.0179
     46 C         -27.0507    0.0011   29.0475 C.1     1  UNL1       -0.0679
@<TRIPOS>BOND
     1     1    45    1
     2     2     7    1
     3     2     1    1
     4     3     2    2
     5     4     3    1
     6     4     5    2
     7     5     6    1
     8     6     7    2
     9     8     1    1
    10     8     9    1
    11     8    12    1
    12     9    10    1
    13    10    11    1
    14    12    11    1
    15    13    41    1
    16    14    13    1
    17    14    15    1
    18    15    18    2
    19    16    17    1
    20    16    15    1
    21    19    14    2
    22    20    21    2
    23    20    19    1
    24    21    26    1
    25    22    21    1
    26    23    22    1
    27    24    23    1
    28    24    25    1
    29    26    27    1
    30    26    13    2
    31    28    40    1
    32    30    29    1
    33    30    35    1
    34    31    35    1
    35    31    45    1
    36    32    41    1
    37    32    30    2
    38    33    43    1
    39    34    46    2
    40    34    33    1
    41    35    38    1
    42    36    37    1
    43    39    37    1
    44    40    39    1
    45    41    31    2
    46    42    34    1
    47    43    28    1
    48    43    36    1
    49    44    32    1
    50    46    45    2
