@<TRIPOS>MOLECULE
outputs/IAG933/test6/raw/output_110_IAG933_linker_design_.xyz
 44 48 0 0 0
SMALL
GASTEIGER

@<TRIPOS>ATOM
      1 C         -24.8550   -1.0120   30.1430 C.3     1  UNL1        0.0438
      2 C         -24.9730   -2.5050   29.7880 C.2     1  UNL1       -0.0208
      3 C         -23.9060   -3.1730   29.1460 C.2     1  UNL1       -0.0042
      4 C         -23.9890   -4.5490   28.8530 C.2     1  UNL1       -0.0003
      5 C         -25.1370   -5.2800   29.2050 C.2     1  UNL1       -0.0000
      6 C         -26.2320   -4.6110   29.7840 C.2     1  UNL1       -0.0003
      7 C         -26.1550   -3.2320   30.0650 C.2     1  UNL1       -0.0042
      8 C         -25.3870   -0.6790   31.5710 C.3     1  UNL1        0.0785
      9 C         -25.1890    0.7730   32.0280 C.3     1  UNL1        0.0339
     10 C         -25.3360    0.6840   33.5440 C.3     1  UNL1        0.0216
     11 C         -24.8290   -0.7150   33.9050 C.3     1  UNL1        0.0887
     12 N         -24.7580   -1.4810   32.6460 N.3     1  UNL1       -0.2191
     13 C         -25.6880    1.6140   26.4610 C.3     1  UNL1        0.1439
     14 C         -26.2500    2.9200   26.3950 C.2     1  UNL1        0.0731
     15 C         -25.6420    4.0930   27.1230 C.2     1  UNL1        0.2640
     16 N         -25.6140    5.2520   26.4490 N.am    1  UNL1       -0.1999
     17 C         -25.0260    6.4790   26.9630 C.3     1  UNL1        0.1388
     18 O         -25.1430    3.9660   28.2430 O.2     1  UNL1       -0.2686
     19 C         -27.4380    3.0910   25.6450 C.2     1  UNL1        0.1038
     20 N         -28.0750    2.0890   25.0030 N.2     1  UNL1       -0.2118
     21 C         -27.5430    0.8490   25.0790 C.2     1  UNL1        0.2358
     22 O         -28.1930   -0.2080   24.4770 O.2     1  UNL1       -0.4585
     23 C         -29.4600    0.0050   23.8660 C.3     1  UNL1        0.2423
     24 C         -30.0650   -1.3770   23.5730 C.3     1  UNL1        0.2292
     25 O         -30.7290   -1.8780   24.7210 O.3     1  UNL1       -0.2162
     26 C         -26.3540    0.5760   25.7770 C.3     1  UNL1        0.2580
     27 F         -25.8600   -0.6810   25.7950 F       1  UNL1       -0.2251
     28 O         -21.4701    1.7523   26.7414 O.3     1  UNL1       -0.4184
     29 C         -21.9923    2.1356   25.6400 C.2     1  UNL1        0.1986
     30 N         -25.2732    1.4203   29.6017 N.3     1  UNL1       -0.2170
     31 N         -24.1835    1.6362   26.6210 N.pl3   1  UNL1       -0.2900
     32 C         -22.2076    1.3067   27.8841 C.2     1  UNL1        0.3413
     33 C         -23.6505    1.2139   27.8183 C.3     1  UNL1        0.1910
     34 C         -25.4649    4.5345   31.9514 C.3     1  UNL1        0.1166
     35 O         -25.9730    4.3881   33.2388 O.3     1  UNL1       -0.3562
     36 C         -24.4021    0.7131   28.7924 C.3     1  UNL1        0.1198
     37 C         -26.9827    6.3728   31.2733 C.3     1  UNL1        0.0051
     38 O         -21.5926    1.0156   28.9861 O.2     1  UNL1       -0.2478
     39 C         -26.7130    6.7308   32.7282 C.3     1  UNL1        0.0322
     40 C         -23.4009    2.0855   25.5572 C.2     1  UNL1        0.1034
     41 C         -26.6399    4.8902   31.0129 C.3     1  UNL1        0.0297
     42 C         -25.3812    2.0120   30.9784 C.3     1  UNL1        0.0766
     43 C         -26.5535    5.6612   33.7464 C.3     1  UNL1        0.1420
     44 C         -24.7512    3.2867   31.4508 C.3     1  UNL1        0.0470
@<TRIPOS>BOND
     1     2     7    1
     2     2     1    1
     3     3     2    2
     4     4     3    1
     5     4     5    2
     6     5     6    1
     7     6     7    2
     8     8     1    1
     9     8     9    1
    10     8    12    1
    11     9    42    1
    12     9    10    1
    13    10    11    1
    14    12    11    1
    15    13    31    1
    16    14    13    1
    17    14    15    1
    18    15    18    2
    19    16    17    1
    20    16    15    1
    21    19    14    2
    22    20    21    2
    23    20    19    1
    24    21    26    1
    25    22    21    1
    26    23    22    1
    27    24    23    1
    28    24    25    1
    29    26    27    1
    30    26    13    1
    31    28    32    1
    32    29    28    1
    33    30    42    1
    34    31    33    1
    35    32    38    2
    36    33    32    1
    37    33    36    1
    38    34    44    1
    39    34    35    1
    40    35    43    1
    41    36    30    1
    42    37    39    1
    43    39    43    1
    44    40    29    2
    45    40    31    1
    46    41    37    1
    47    41    34    1
    48    42    44    1
