@<TRIPOS>MOLECULE
outputs/IAG933/test6/raw/output_1100_IAG933_linker_design_.xyz
 41 44 0 0 0
SMALL
GASTEIGER

@<TRIPOS>ATOM
      1 C         -24.8550   -1.0120   30.1430 C.3     1  UNL1        0.2188
      2 C         -24.9730   -2.5050   29.7880 C.2     1  UNL1        0.0184
      3 C         -23.9060   -3.1730   29.1460 C.2     1  UNL1       -0.0009
      4 C         -23.9890   -4.5490   28.8530 C.2     1  UNL1       -0.0002
      5 C         -25.1370   -5.2800   29.2050 C.2     1  UNL1       -0.0000
      6 C         -26.2320   -4.6110   29.7840 C.2     1  UNL1       -0.0002
      7 C         -26.1550   -3.2320   30.0650 C.2     1  UNL1       -0.0009
      8 C         -25.3870   -0.6790   31.5710 C.3     1  UNL1        0.1168
      9 C         -25.1890    0.7730   32.0280 C.3     1  UNL1        0.0228
     10 C         -25.3360    0.6840   33.5440 C.3     1  UNL1        0.0204
     11 C         -24.8290   -0.7150   33.9050 C.3     1  UNL1        0.0888
     12 N         -24.7580   -1.4810   32.6460 N.3     1  UNL1       -0.2156
     13 C         -25.6880    1.6140   26.4610 C.3     1  UNL1        0.2167
     14 C         -26.2500    2.9200   26.3950 C.2     1  UNL1        0.0913
     15 C         -25.6420    4.0930   27.1230 C.2     1  UNL1        0.2656
     16 N         -25.6140    5.2520   26.4490 N.am    1  UNL1       -0.1999
     17 C         -25.0260    6.4790   26.9630 C.3     1  UNL1        0.1388
     18 O         -25.1430    3.9660   28.2430 O.2     1  UNL1       -0.2685
     19 C         -27.4380    3.0910   25.6450 C.2     1  UNL1        0.1054
     20 N         -28.0750    2.0890   25.0030 N.2     1  UNL1       -0.2116
     21 C         -27.5430    0.8490   25.0790 C.2     1  UNL1        0.2377
     22 O         -28.1930   -0.2080   24.4770 O.2     1  UNL1       -0.4584
     23 C         -29.4600    0.0050   23.8660 C.3     1  UNL1        0.2423
     24 C         -30.0650   -1.3770   23.5730 C.3     1  UNL1        0.2292
     25 O         -30.7290   -1.8780   24.7210 O.3     1  UNL1       -0.2162
     26 C         -26.3540    0.5760   25.7770 C.3     1  UNL1        0.2764
     27 F         -25.8600   -0.6810   25.7950 F       1  UNL1       -0.2232
     28 C         -22.5829    2.3824   25.7601 C.2     1  UNL1        0.3392
     29 O         -22.8312    0.7631   30.6652 O.2     1  UNL1       -0.2444
     30 N         -25.8944    2.0608   29.5327 N.pl3   1  UNL1        0.1287
     31 C         -22.6118    1.7330   26.9986 C.2     1  UNL1        0.1363
     32 N         -25.6790   -0.2310   29.1374 N.pl3   1  UNL1       -0.0892
     33 N         -24.9372    1.3122   27.5770 N.pl3   1  UNL1       -0.2048
     34 C         -23.4691    0.8053   28.6887 C.2     1  UNL1        0.1161
     35 C         -25.6124    1.0545   28.7791 C.cat   1  UNL1        0.4679
     36 C         -23.7239    1.2668   27.7178 C.2     1  UNL1        0.1358
     37 C         -21.3992    1.4990   27.6438 C.2     1  UNL1        0.1915
     38 C         -22.5010    0.7090   29.4396 C.2     1  UNL1        0.3489
     39 O         -21.3318    1.0019   28.8569 O.3     1  UNL1       -0.4175
     40 F         -21.4871    2.3204   25.0364 F       1  UNL1       -0.1584
     41 O         -23.5430    2.8963   25.1866 O.2     1  UNL1       -0.2539
@<TRIPOS>BOND
     1     1    32    1
     2     2     7    1
     3     2     1    1
     4     3     2    2
     5     4     3    1
     6     4     5    2
     7     5     6    1
     8     6     7    2
     9     8     1    1
    10     8     9    1
    11     8    12    1
    12     9    10    1
    13    10    11    1
    14    12    11    1
    15    13    33    1
    16    14    13    1
    17    14    15    1
    18    15    18    2
    19    16    17    1
    20    16    15    1
    21    19    14    2
    22    20    21    2
    23    20    19    1
    24    21    26    1
    25    22    21    1
    26    23    22    1
    27    24    23    1
    28    24    25    1
    29    26    27    1
    30    26    13    1
    31    28    31    1
    32    31    37    2
    33    31    36    1
    34    33    36    1
    35    33    35    1
    36    34    38    1
    37    35    32    1
    38    35    30    2
    39    36    34    2
    40    37    39    1
    41    38    29    2
    42    39    38    1
    43    40    28    1
    44    41    28    2
