@<TRIPOS>MOLECULE
No_1105-gen_results/8p0m/2024-11-27-11-27-31/
 13 13 0 0 0
SMALL
GASTEIGER

@<TRIPOS>ATOM
      1 C         -28.0162   -0.8135   28.8779 C.3     1  UNL1        0.0355
      2 C         -28.4690   -0.7850   29.8287 C.3     1  UNL1        0.1821
      3 C         -26.5042   -0.7777   28.8766 C.3     1  UNL1        0.0028
      4 C         -25.8305   -1.6807   29.6849 C.3     1  UNL1        0.0030
      5 C         -28.1490   -1.8854   30.9031 C.3     1  UNL1        0.1821
      6 C         -26.6460   -1.9561   31.0330 C.3     1  UNL1        0.0356
      7 O         -28.6274   -1.7308   32.1858 O.3     1  UNL1       -0.2204
      8 O         -30.0168   -0.9269   29.8771 O.3     1  UNL1       -0.2204
      9 C         -24.3882   -1.3467   29.9543 C.3     1  UNL1        0.0047
     10 C         -24.0409   -0.5915   30.9963 C.3     1  UNL1        0.0257
     11 C         -24.2390    0.8613   30.8028 C.2     1  UNL1       -0.0307
     12 C         -24.9778    1.6893   31.7159 C.2     1  UNL1       -0.0304
     13 C         -25.1028    3.0562   31.4043 C.3     1  UNL1        0.0303
@<TRIPOS>BOND
     1     1     2    1
     2     1     3    1
     3     3     4    1
     4     2     5    1
     5     4     6    1
     6     5     6    1
     7     5     7    1
     8     2     8    1
     9     4     9    1
    10     9    10    1
    11    10    11    1
    12    11    12    2
    13    12    13    1
