@<TRIPOS>MOLECULE
outputs/IAG933/test6/raw/output_1106_IAG933_linker_design_.xyz
 44 50 0 0 0
SMALL
GASTEIGER

@<TRIPOS>ATOM
      1 C         -24.8550   -1.0120   30.1430 C.3     1  UNL1        0.1111
      2 C         -24.9730   -2.5050   29.7880 C.2     1  UNL1       -0.0051
      3 C         -23.9060   -3.1730   29.1460 C.2     1  UNL1       -0.0029
      4 C         -23.9890   -4.5490   28.8530 C.2     1  UNL1       -0.0003
      5 C         -25.1370   -5.2800   29.2050 C.2     1  UNL1       -0.0000
      6 C         -26.2320   -4.6110   29.7840 C.2     1  UNL1       -0.0003
      7 C         -26.1550   -3.2320   30.0650 C.2     1  UNL1       -0.0029
      8 C         -25.3870   -0.6790   31.5710 C.3     1  UNL1        0.0929
      9 C         -25.1890    0.7730   32.0280 C.3     1  UNL1        0.0206
     10 C         -25.3360    0.6840   33.5440 C.3     1  UNL1        0.0203
     11 C         -24.8290   -0.7150   33.9050 C.3     1  UNL1        0.0888
     12 N         -24.7580   -1.4810   32.6460 N.3     1  UNL1       -0.2177
     13 C         -25.6880    1.6140   26.4610 C.2     1  UNL1        0.0407
     14 C         -26.2500    2.9200   26.3950 C.2     1  UNL1        0.0744
     15 C         -25.6420    4.0930   27.1230 C.2     1  UNL1        0.2220
     16 N         -25.6140    5.2520   26.4490 N.2     1  UNL1       -0.2356
     17 C         -25.0260    6.4790   26.9630 C.3     1  UNL1        0.1550
     18 O         -25.1430    3.9660   28.2430 O.2     1  UNL1       -0.4631
     19 C         -27.4380    3.0910   25.6450 C.2     1  UNL1        0.1068
     20 N         -28.0750    2.0890   25.0030 N.2     1  UNL1       -0.2081
     21 C         -27.5430    0.8490   25.0790 C.2     1  UNL1        0.2533
     22 O         -28.1930   -0.2080   24.4770 O.2     1  UNL1       -0.4558
     23 C         -29.4600    0.0050   23.8660 C.3     1  UNL1        0.2426
     24 C         -30.0650   -1.3770   23.5730 C.3     1  UNL1        0.2292
     25 O         -30.7290   -1.8780   24.7210 O.3     1  UNL1       -0.2162
     26 C         -26.3540    0.5760   25.7770 C.2     1  UNL1        0.1931
     27 F         -25.8600   -0.6810   25.7950 F       1  UNL1       -0.1992
     28 N         -24.6490   -0.1132   29.1660 N.3     1  UNL1       -0.2118
     29 C         -28.0506    4.8240   32.1933 C.2     1  UNL1        0.1398
     30 C         -26.9347    2.1558   29.6391 C.3     1  UNL1        0.0706
     31 C         -28.2254    3.5991   31.5352 C.2     1  UNL1        0.0253
     32 F         -29.0049    5.2390   33.0602 F       1  UNL1       -0.2042
     33 C         -22.3422    0.0957   29.2963 C.2     1  UNL1       -0.0103
     34 C         -21.1633    0.5277   28.6452 C.2     1  UNL1       -0.0036
     35 C         -25.8858    5.1245   31.0400 C.2     1  UNL1        0.0011
     36 C         -23.6564    0.7928   28.9761 C.3     1  UNL1        0.0859
     37 C         -22.3284    2.1401   27.3163 C.2     1  UNL1       -0.0246
     38 C         -25.4812    3.0752   29.2152 C.3     1  UNL1        0.1588
     39 C         -21.1632    1.4885   27.6281 C.2     1  UNL1       -0.0048
     40 C         -26.1123    3.8902   30.3365 C.2     1  UNL1        0.0103
     41 C         -24.6669    1.8070   29.1755 C.3     1  UNL1        0.0655
     42 C         -26.8783    5.5864   31.9490 C.2     1  UNL1        0.0294
     43 C         -27.2018    3.1819   30.6354 C.2     1  UNL1       -0.0168
     44 C         -23.4531    1.8178   28.2231 C.3     1  UNL1        0.0460
@<TRIPOS>BOND
     1     1    28    1
     2     2     7    1
     3     2     1    1
     4     3     2    2
     5     4     3    1
     6     4     5    2
     7     5     6    1
     8     6     7    2
     9     8     1    1
    10     8     9    1
    11     8    12    1
    12     9    10    1
    13    10    11    1
    14    12    11    1
    15    14    13    1
    16    14    15    1
    17    15    18    1
    18    16    17    1
    19    16    15    2
    20    19    14    2
    21    20    21    2
    22    20    19    1
    23    21    26    1
    24    22    21    1
    25    23    22    1
    26    24    23    1
    27    24    25    1
    28    26    27    1
    29    26    13    2
    30    29    32    1
    31    30    43    1
    32    31    29    2
    33    34    33    2
    34    35    42    2
    35    36    28    1
    36    36    41    1
    37    36    33    1
    38    37    39    2
    39    38    18    1
    40    38    30    1
    41    38    40    1
    42    39    34    1
    43    40    43    2
    44    40    35    1
    45    41    38    1
    46    42    29    1
    47    43    31    1
    48    44    37    1
    49    44    36    1
    50    44    41    1
