@<TRIPOS>MOLECULE
No_1111-gen_results/8p0m/2024-11-27-11-27-31/
 9 9 0 0 0
SMALL
GASTEIGER

@<TRIPOS>ATOM
      1 O         -28.1229   -1.3353   28.4874 O.2     1  UNL1       -0.2483
      2 C         -27.4806   -0.4044   28.7094 C.2     1  UNL1        0.3374
      3 C         -27.1904    0.2460   29.5268 C.3     1  UNL1        0.2000
      4 O         -26.6574   -0.2360   27.5632 O.3     1  UNL1       -0.4307
      5 CL        -27.9992    0.1556   30.9910 Cl      1  UNL1       -0.0982
      6 C         -26.1558    1.4079   29.6650 C.2     1  UNL1        0.0012
      7 C         -25.6962    1.8792   28.7659 C.2     1  UNL1        0.0312
      8 C         -25.7262    0.8673   27.4818 C.3     1  UNL1        0.2707
      9 CL        -24.8802    1.2044   26.0539 Cl      1  UNL1       -0.0633
@<TRIPOS>BOND
     1     1     2    2
     2     2     3    1
     3     2     4    1
     4     3     5    1
     5     3     6    1
     6     6     7    2
     7     4     8    1
     8     7     8    1
     9     8     9    1
