@<TRIPOS>MOLECULE
outputs/IAG933/test6/raw/output_1114_IAG933_linker_design_.xyz
 41 44 0 0 0
SMALL
GASTEIGER

@<TRIPOS>ATOM
      1 C         -24.8550   -1.0120   30.1430 C.3     1  UNL1        0.1225
      2 C         -24.9730   -2.5050   29.7880 C.2     1  UNL1       -0.0024
      3 C         -23.9060   -3.1730   29.1460 C.2     1  UNL1       -0.0026
      4 C         -23.9890   -4.5490   28.8530 C.2     1  UNL1       -0.0003
      5 C         -25.1370   -5.2800   29.2050 C.2     1  UNL1       -0.0000
      6 C         -26.2320   -4.6110   29.7840 C.2     1  UNL1       -0.0003
      7 C         -26.1550   -3.2320   30.0650 C.2     1  UNL1       -0.0026
      8 C         -25.3870   -0.6790   31.5710 C.3     1  UNL1        0.0956
      9 C         -25.1890    0.7730   32.0280 C.3     1  UNL1        0.0209
     10 C         -25.3360    0.6840   33.5440 C.3     1  UNL1        0.0203
     11 C         -24.8290   -0.7150   33.9050 C.3     1  UNL1        0.0888
     12 N         -24.7580   -1.4810   32.6460 N.3     1  UNL1       -0.2174
     13 C         -25.6880    1.6140   26.4610 C.3     1  UNL1        0.0926
     14 C         -26.2500    2.9200   26.3950 C.2     1  UNL1        0.0589
     15 C         -25.6420    4.0930   27.1230 C.2     1  UNL1        0.2628
     16 N         -25.6140    5.2520   26.4490 N.am    1  UNL1       -0.2000
     17 C         -25.0260    6.4790   26.9630 C.3     1  UNL1        0.1388
     18 O         -25.1430    3.9660   28.2430 O.2     1  UNL1       -0.2686
     19 C         -27.4380    3.0910   25.6450 C.2     1  UNL1        0.1025
     20 N         -28.0750    2.0890   25.0030 N.2     1  UNL1       -0.2118
     21 C         -27.5430    0.8490   25.0790 C.2     1  UNL1        0.2344
     22 O         -28.1930   -0.2080   24.4770 O.2     1  UNL1       -0.4585
     23 C         -29.4600    0.0050   23.8660 C.3     1  UNL1        0.2423
     24 C         -30.0650   -1.3770   23.5730 C.3     1  UNL1        0.2292
     25 O         -30.7290   -1.8780   24.7210 O.3     1  UNL1       -0.2162
     26 C         -26.3540    0.5760   25.7770 C.3     1  UNL1        0.2440
     27 F         -25.8600   -0.6810   25.7950 F       1  UNL1       -0.2265
     28 N         -27.1929    1.5039   29.1446 N.am    1  UNL1       -0.0688
     29 O         -24.7610    2.1739   30.2161 O.2     1  UNL1       -0.2695
     30 C         -23.8687    1.3201   28.1206 C.2     1  UNL1        0.0560
     31 C         -24.2507    1.6397   26.8206 C.2     1  UNL1       -0.0073
     32 C         -26.6349    0.1656   28.9083 C.2     1  UNL1        0.3492
     33 N         -25.4204    0.1567   29.4122 N.am    1  UNL1       -0.2044
     34 O         -27.1896   -0.7124   28.3274 O.2     1  UNL1       -0.2486
     35 F         -20.4539    0.3054   28.2345 F       1  UNL1       -0.1629
     36 C         -24.7662    1.3334   29.3143 C.2     1  UNL1        0.2561
     37 C         -22.5455    0.6067   28.5873 C.2     1  UNL1        0.0732
     38 C         -21.4969    0.9584   27.9744 C.2     1  UNL1        0.2880
     39 C         -22.0688    2.2557   26.0091 C.2     1  UNL1        0.1819
     40 O         -21.3479    1.7962   27.0537 O.2     1  UNL1       -0.4260
     41 C         -23.3828    2.0778   25.7802 C.2     1  UNL1        0.0370
@<TRIPOS>BOND
     1     1    33    1
     2     2     7    1
     3     2     1    1
     4     3     2    2
     5     4     3    1
     6     4     5    2
     7     5     6    1
     8     6     7    2
     9     8     1    1
    10     8     9    1
    11     8    12    1
    12     9    10    1
    13    10    11    1
    14    12    11    1
    15    13    31    1
    16    14    13    1
    17    14    15    1
    18    15    18    2
    19    16    17    1
    20    16    15    1
    21    19    14    2
    22    20    21    2
    23    20    19    1
    24    21    26    1
    25    22    21    1
    26    23    22    1
    27    24    23    1
    28    24    25    1
    29    26    27    1
    30    26    13    1
    31    30    37    1
    32    30    36    1
    33    31    30    2
    34    32    28    1
    35    32    33   am
    36    34    32    2
    37    36    33   am
    38    36    29    2
    39    38    35    1
    40    38    37    2
    41    39    40    1
    42    40    38    1
    43    41    39    2
    44    41    31    1
