@<TRIPOS>MOLECULE
No_1117-gen_results/8p0m/2024-11-27-11-27-31/
 32 34 0 0 0
SMALL
GASTEIGER

@<TRIPOS>ATOM
      1 C         -28.0162   -0.8135   28.8779 C.3     1  UNL1        0.3410
      2 C         -27.0636   -0.1190   28.6079 C.ar    1  UNL1        0.0432
      3 C         -26.9716    0.7139   27.5060 C.ar    1  UNL1       -0.0009
      4 C         -25.8205    1.4909   27.1160 C.ar    1  UNL1        0.0052
      5 C         -24.6562    1.4242   27.9180 C.ar    1  UNL1        0.1349
      6 C         -24.6847    0.5901   29.0659 C.ar    1  UNL1        0.0425
      7 C         -25.8099   -0.1266   29.3338 C.ar    1  UNL1        0.0020
      8 F         -27.8765   -1.9963   29.2445 F       1  UNL1       -0.1933
      9 F         -29.1909   -0.4312   28.7403 F       1  UNL1       -0.1933
     10 F         -23.6144    2.1391   27.6536 F       1  UNL1       -0.2047
     11 C         -23.4244    0.5232   29.8692 C.3     1  UNL1        0.2430
     12 C         -22.6779   -0.6737   29.8356 C.2     1  UNL1        0.3957
     13 O         -23.8072    0.7250   31.2530 O.3     1  UNL1       -0.3362
     14 C         -24.4388    1.9489   31.5523 C.3     1  UNL1        0.1697
     15 O         -22.8321   -1.6561   30.5043 O.co2   1  UNL1       -0.2426
     16 O         -21.7365   -0.7255   28.8654 O.co2   1  UNL1       -0.2426
     17 C         -25.5862    1.8451   32.4969 C.ar    1  UNL1        0.0073
     18 C         -26.5401    2.4099   32.0736 C.ar    1  UNL1       -0.0016
     19 C         -27.8575    2.2316   32.7382 C.ar    1  UNL1       -0.0002
     20 C         -27.8700    1.3990   33.8786 C.ar    1  UNL1       -0.0000
     21 C         -26.7273    0.7402   34.2728 C.ar    1  UNL1       -0.0002
     22 C         -25.5698    0.8918   33.5424 C.ar    1  UNL1       -0.0019
     23 C         -26.7139    3.3641   30.9253 C.ar    1  UNL1       -0.0002
     24 C         -27.8668    3.6693   30.3022 C.ar    1  UNL1        0.0002
     25 C         -25.8515    4.5528   31.1097 C.ar    1  UNL1        0.0002
     26 C         -25.8416    5.5241   30.0795 C.ar    1  UNL1        0.0066
     27 C         -27.8862    4.6209   29.2137 C.ar    1  UNL1        0.0066
     28 C         -26.8852    5.5854   29.1862 C.ar    1  UNL1        0.0798
     29 C         -26.9009    6.6385   28.1656 C.2     1  UNL1        0.3878
     30 O         -26.1160    7.4332   28.2342 O.co2   1  UNL1       -0.2406
     31 O         -27.7444    6.5492   27.2401 O.co2   1  UNL1       -0.2406
     32 C         -25.8836    2.4017   25.9872 C.3     1  UNL1        0.0334
@<TRIPOS>BOND
     1     1     8    1
     2     1     9    1
     3     5    10    1
     4     6    11    1
     5    11    12    1
     6    11    13    1
     7    13    14    1
     8    12    15   ar
     9    12    16   ar
    10    14    17    1
    11    18    23    1
    12    28    29    1
    13    29    30   ar
    14    29    31   ar
    15     4    32    1
    16     1     2    1
    17    17    18   ar
    18    18    19   ar
    19    19    20   ar
    20    20    21   ar
    21    21    22   ar
    22    22    17   ar
    23     2     3   ar
    24     3     4   ar
    25     4     5   ar
    26     5     6   ar
    27     6     7   ar
    28     7     2   ar
    29    23    24   ar
    30    24    27   ar
    31    27    28   ar
    32    28    26   ar
    33    26    25   ar
    34    25    23   ar
