@<TRIPOS>MOLECULE
outputs/IAG933/test6/raw/output_1118_IAG933_linker_design_.xyz
 51 56 0 0 0
SMALL
GASTEIGER

@<TRIPOS>ATOM
      1 C         -24.8550   -1.0120   30.1430 C.3     1  UNL1        0.0400
      2 C         -24.9730   -2.5050   29.7880 C.2     1  UNL1       -0.0211
      3 C         -23.9060   -3.1730   29.1460 C.2     1  UNL1       -0.0042
      4 C         -23.9890   -4.5490   28.8530 C.2     1  UNL1       -0.0003
      5 C         -25.1370   -5.2800   29.2050 C.2     1  UNL1       -0.0000
      6 C         -26.2320   -4.6110   29.7840 C.2     1  UNL1       -0.0003
      7 C         -26.1550   -3.2320   30.0650 C.2     1  UNL1       -0.0042
      8 C         -25.3870   -0.6790   31.5710 C.3     1  UNL1        0.0769
      9 C         -25.1890    0.7730   32.0280 C.3     1  UNL1        0.0192
     10 C         -25.3360    0.6840   33.5440 C.3     1  UNL1        0.0202
     11 C         -24.8290   -0.7150   33.9050 C.3     1  UNL1        0.0887
     12 N         -24.7580   -1.4810   32.6460 N.3     1  UNL1       -0.2191
     13 C         -25.6880    1.6140   26.4610 C.3     1  UNL1        0.0894
     14 C         -26.2500    2.9200   26.3950 C.2     1  UNL1        0.0586
     15 C         -25.6420    4.0930   27.1230 C.2     1  UNL1        0.2627
     16 N         -25.6140    5.2520   26.4490 N.am    1  UNL1       -0.2000
     17 C         -25.0260    6.4790   26.9630 C.3     1  UNL1        0.1388
     18 O         -25.1430    3.9660   28.2430 O.2     1  UNL1       -0.2686
     19 C         -27.4380    3.0910   25.6450 C.2     1  UNL1        0.1025
     20 N         -28.0750    2.0890   25.0030 N.2     1  UNL1       -0.2118
     21 C         -27.5430    0.8490   25.0790 C.2     1  UNL1        0.2344
     22 O         -28.1930   -0.2080   24.4770 O.2     1  UNL1       -0.4585
     23 C         -29.4600    0.0050   23.8660 C.3     1  UNL1        0.2423
     24 C         -30.0650   -1.3770   23.5730 C.3     1  UNL1        0.2292
     25 O         -30.7290   -1.8780   24.7210 O.3     1  UNL1       -0.2162
     26 C         -26.3540    0.5760   25.7770 C.3     1  UNL1        0.2437
     27 F         -25.8600   -0.6810   25.7950 F       1  UNL1       -0.2265
     28 C         -30.0020    1.6558   32.0685 C.3     1  UNL1        0.1740
     29 C         -26.7773    5.7309   30.4535 C.3     1  UNL1        0.0297
     30 C         -26.3345    4.4775   33.4795 C.3     1  UNL1        0.1421
     31 C         -24.2805    1.5708   26.8791 C.2     1  UNL1       -0.0258
     32 C         -27.9339    3.7736   29.7808 C.3     1  UNL1        0.0591
     33 C         -21.9901    1.0750   28.9170 C.3     1  UNL1        0.0894
     34 C         -21.2246    1.7765   27.8562 C.3     1  UNL1        0.0235
     35 N         -23.2898    1.5594   29.1109 N.3     1  UNL1       -0.2154
     36 C         -25.1638    4.5886   31.4092 C.3     1  UNL1        0.0002
     37 C         -27.5424    4.5855   31.0173 C.3     1  UNL1        0.1176
     38 C         -27.0242    1.4298   29.1305 C.3     1  UNL1        0.0025
     39 C         -28.7187   -0.1620   29.5373 C.3     1  UNL1        0.0024
     40 C         -23.2078    2.1217   26.0805 C.2     1  UNL1       -0.0328
     41 C         -27.5908   -0.7619   28.8826 C.3     1  UNL1        0.0001
     42 C         -26.4876    0.1627   28.8285 C.3     1  UNL1        0.0021
     43 C         -25.5813    5.6937   31.5528 C.3     1  UNL1        0.0049
     44 C         -21.7590    2.1123   26.4909 C.3     1  UNL1        0.0269
     45 C         -24.1471    1.0530   28.2699 C.3     1  UNL1        0.0914
     46 C         -28.3777    1.2763   29.6271 C.3     1  UNL1        0.0273
     47 O         -27.3184    4.3266   32.3896 O.3     1  UNL1       -0.3562
     48 C         -28.9170    2.6129   30.0981 C.3     1  UNL1        0.1177
     49 C         -25.0777    5.2215   32.9233 C.3     1  UNL1        0.0321
     50 C         -25.0919   -0.0416   28.9987 C.3     1  UNL1        0.0253
     51 O         -29.5988    2.8144   31.3404 O.3     1  UNL1       -0.3535
@<TRIPOS>BOND
     1     1    50    1
     2     2     7    1
     3     2     1    1
     4     3     2    2
     5     4     3    1
     6     4     5    2
     7     5     6    1
     8     6     7    2
     9     8     1    1
    10     8     9    1
    11     8    12    1
    12     9    10    1
    13    10    11    1
    14    12    11    1
    15    13    31    1
    16    14    13    1
    17    14    15    1
    18    15    18    2
    19    16    17    1
    20    16    15    1
    21    19    14    2
    22    20    21    2
    23    20    19    1
    24    21    26    1
    25    22    21    1
    26    23    22    1
    27    24    23    1
    28    24    25    1
    29    26    27    1
    30    26    13    1
    31    29    37    1
    32    29    43    1
    33    31    45    1
    34    33    35    1
    35    34    33    1
    36    37    32    1
    37    37    47    1
    38    38    46    1
    39    39    46    1
    40    40    44    1
    41    40    31    2
    42    41    39    1
    43    42    41    1
    44    42    50    1
    45    42    38    1
    46    43    36    1
    47    43    49    1
    48    44    34    1
    49    45    50    1
    50    45    35    1
    51    46    48    1
    52    47    30    1
    53    48    32    1
    54    48    51    1
    55    49    30    1
    56    51    28    1
