@<TRIPOS>MOLECULE
outputs/IAG933/test6/raw/output_1119_IAG933_linker_design_.xyz
 46 52 0 0 0
SMALL
GASTEIGER

@<TRIPOS>ATOM
      1 C         -24.8550   -1.0120   30.1430 C.3     1  UNL1        0.0568
      2 C         -24.9730   -2.5050   29.7880 C.2     1  UNL1       -0.0174
      3 C         -23.9060   -3.1730   29.1460 C.2     1  UNL1       -0.0039
      4 C         -23.9890   -4.5490   28.8530 C.2     1  UNL1       -0.0003
      5 C         -25.1370   -5.2800   29.2050 C.2     1  UNL1       -0.0000
      6 C         -26.2320   -4.6110   29.7840 C.2     1  UNL1       -0.0003
      7 C         -26.1550   -3.2320   30.0650 C.2     1  UNL1       -0.0039
      8 C         -25.3870   -0.6790   31.5710 C.3     1  UNL1        0.0805
      9 C         -25.1890    0.7730   32.0280 C.3     1  UNL1        0.0195
     10 C         -25.3360    0.6840   33.5440 C.3     1  UNL1        0.0203
     11 C         -24.8290   -0.7150   33.9050 C.3     1  UNL1        0.0887
     12 N         -24.7580   -1.4810   32.6460 N.3     1  UNL1       -0.2188
     13 C         -25.6880    1.6140   26.4610 C.3     1  UNL1        0.0887
     14 C         -26.2500    2.9200   26.3950 C.2     1  UNL1        0.0586
     15 C         -25.6420    4.0930   27.1230 C.2     1  UNL1        0.2627
     16 N         -25.6140    5.2520   26.4490 N.am    1  UNL1       -0.2000
     17 C         -25.0260    6.4790   26.9630 C.3     1  UNL1        0.1388
     18 O         -25.1430    3.9660   28.2430 O.2     1  UNL1       -0.2686
     19 C         -27.4380    3.0910   25.6450 C.2     1  UNL1        0.1025
     20 N         -28.0750    2.0890   25.0030 N.2     1  UNL1       -0.2118
     21 C         -27.5430    0.8490   25.0790 C.2     1  UNL1        0.2344
     22 O         -28.1930   -0.2080   24.4770 O.2     1  UNL1       -0.4585
     23 C         -29.4600    0.0050   23.8660 C.3     1  UNL1        0.2423
     24 C         -30.0650   -1.3770   23.5730 C.3     1  UNL1        0.2292
     25 O         -30.7290   -1.8780   24.7210 O.3     1  UNL1       -0.2162
     26 C         -26.3540    0.5760   25.7770 C.3     1  UNL1        0.2437
     27 F         -25.8600   -0.6810   25.7950 F       1  UNL1       -0.2265
     28 C         -28.7827    2.3027   30.5193 C.3     1  UNL1        0.0918
     29 C         -24.7395    0.1056   29.2559 C.2     1  UNL1       -0.0356
     30 C         -21.5079    1.7591   26.9648 C.2     1  UNL1        0.0296
     31 C         -25.8022    0.8104   28.7329 C.3     1  UNL1        0.0374
     32 C         -30.5808    1.2848   29.0813 C.3     1  UNL1        0.0014
     33 C         -27.1834    1.1504   29.1517 C.3     1  UNL1        0.0090
     34 C         -29.4199    0.9622   30.0591 C.3     1  UNL1        0.0176
     35 C         -22.0707    0.4620   28.9682 C.2     1  UNL1       -0.0005
     36 C         -22.8370    1.8396   26.6074 C.2     1  UNL1        0.1395
     37 C         -30.2456    0.6457   27.7122 C.3     1  UNL1        0.0000
     38 C         -27.5887    2.5139   29.6190 C.3     1  UNL1        0.0196
     39 C         -28.3556    0.2039   29.2442 C.3     1  UNL1        0.0020
     40 C         -23.7811    1.2248   27.4827 C.2     1  UNL1        0.0197
     41 C         -29.0083   -0.2122   27.9065 C.3     1  UNL1        0.0001
     42 C         -21.1251    1.0349   28.1014 C.2     1  UNL1        0.0023
     43 F         -23.1944    2.4485   25.4966 F       1  UNL1       -0.2042
     44 C         -23.4839    0.5908   28.6277 C.2     1  UNL1       -0.0057
     45 N         -28.3885    2.2459   31.9482 N.3     1  UNL1       -0.1329
     46 C         -25.0863    1.2502   27.4545 C.2     1  UNL1       -0.0315
@<TRIPOS>BOND
     1     1    29    1
     2     2     7    1
     3     2     1    1
     4     3     2    2
     5     4     3    1
     6     4     5    2
     7     5     6    1
     8     6     7    2
     9     8     1    1
    10     8     9    1
    11     8    12    1
    12     9    10    1
    13    10    11    1
    14    12    11    1
    15    13    46    1
    16    14    13    1
    17    14    15    1
    18    15    18    2
    19    16    17    1
    20    16    15    1
    21    19    14    2
    22    20    21    2
    23    20    19    1
    24    21    26    1
    25    22    21    1
    26    23    22    1
    27    24    23    1
    28    24    25    1
    29    26    27    1
    30    26    13    1
    31    28    45    1
    32    30    42    1
    33    31    46    1
    34    31    33    1
    35    31    29    1
    36    33    39    1
    37    33    38    1
    38    34    32    1
    39    34    28    1
    40    36    30    2
    41    36    40    1
    42    37    41    1
    43    37    32    1
    44    38    28    1
    45    39    41    1
    46    39    34    1
    47    40    44    1
    48    42    35    2
    49    43    36    1
    50    44    35    1
    51    44    29    2
    52    46    40    2
