@<TRIPOS>MOLECULE
No_1121-gen_results/8p0m/2024-11-27-11-27-31/
 14 14 0 0 0
SMALL
GASTEIGER

@<TRIPOS>ATOM
      1 C         -28.0162   -0.8135   28.8779 C.ar    1  UNL1        0.0061
      2 C         -28.4690   -0.7850   29.8287 C.2     1  UNL1        0.0529
      3 C         -26.5042   -0.7777   28.8766 C.ar    1  UNL1        0.0004
      4 C         -25.6540   -0.6597   27.7191 C.ar    1  UNL1       -0.0000
      5 C         -29.9920   -0.8134   29.9579 C.1     1  UNL1        0.1289
      6 C         -26.1232   -0.1174   26.5796 C.ar    1  UNL1        0.0039
      7 C         -27.4869    0.2318   26.5236 C.ar    1  UNL1        0.0714
      8 C         -27.9979    0.7916   25.3873 C.3     1  UNL1        0.4186
      9 C         -28.2866   -0.0433   27.6084 C.ar    1  UNL1        0.0042
     10 C         -27.9376   -1.2569   31.2156 C.3     1  UNL1        0.0428
     11 F         -27.7004    1.8643   25.1224 F       1  UNL1       -0.1659
     12 F         -29.3762    0.7392   25.4832 F       1  UNL1       -0.1659
     13 F         -27.6995   -0.1710   24.3777 F       1  UNL1       -0.1659
     14 O         -30.6800   -1.3328   30.8094 O.2     1  UNL1       -0.2315
@<TRIPOS>BOND
     1     1     2    1
     2     2     5    2
     3     7     8    1
     4     2    10    1
     5     8    11    1
     6     8    12    1
     7     8    13    1
     8     5    14    2
     9     1     3   ar
    10     3     4   ar
    11     4     6   ar
    12     6     7   ar
    13     7     9   ar
    14     9     1   ar
