@<TRIPOS>MOLECULE
No_1123-gen_results/8p0m/2024-11-27-11-27-31/
 22 24 0 0 0
SMALL
GASTEIGER

@<TRIPOS>ATOM
      1 C         -28.0162   -0.8135   28.8779 C.ar    1  UNL1       -0.0000
      2 C         -28.4690   -0.7850   29.8287 C.ar    1  UNL1       -0.0000
      3 C         -27.0871    0.2903   28.6377 C.ar    1  UNL1       -0.0001
      4 C         -26.8317    1.2487   29.5869 C.ar    1  UNL1        0.0064
      5 C         -28.3914    0.0801   31.0065 C.ar    1  UNL1        0.0000
      6 C         -27.4940    1.1521   30.7841 C.ar    1  UNL1        0.0002
      7 C         -26.3172    0.3994   27.3653 C.ar    1  UNL1       -0.0043
      8 C         -25.4320    1.4866   27.2802 C.ar    1  UNL1       -0.0220
      9 C         -25.2459    2.4300   28.2946 C.ar    1  UNL1        0.0023
     10 C         -25.9289    2.3306   29.4680 C.ar    1  UNL1        0.0795
     11 C         -25.6696    3.3674   30.4891 C.2     1  UNL1        0.3877
     12 O         -24.8195    3.1021   31.3416 O.co2   1  UNL1       -0.2406
     13 O         -26.3872    4.4008   30.5262 O.co2   1  UNL1       -0.2406
     14 C         -24.6616    1.5817   26.0073 C.3     1  UNL1        0.0267
     15 C         -23.4692    2.3900   26.0427 C.3     1  UNL1        0.0094
     16 C         -22.3989    1.9460   26.6831 C.3     1  UNL1        0.0283
     17 C         -22.2939    1.2602   27.9053 C.ar    1  UNL1       -0.0030
     18 C         -21.1888    0.6502   28.3927 C.ar    1  UNL1        0.0946
     19 N         -21.3148   -0.2512   29.3951 N.ar    1  UNL1       -0.2426
     20 C         -22.4789   -0.9029   29.6619 C.ar    1  UNL1        0.0989
     21 C         -23.6867   -0.2719   29.1857 C.ar    1  UNL1        0.0204
     22 C         -23.5723    0.6305   28.3067 C.ar    1  UNL1       -0.0011
@<TRIPOS>BOND
     1    10    11    1
     2    11    12   ar
     3    11    13   ar
     4     8    14    1
     5    14    15    1
     6    15    16    1
     7    16    17    1
     8    17    18   ar
     9    18    19   ar
    10    19    20   ar
    11    20    21   ar
    12    21    22   ar
    13    22    17   ar
    14     4    10   ar
    15    10     9   ar
    16     9     8   ar
    17     8     7   ar
    18     7     3   ar
    19     1     2   ar
    20     2     5   ar
    21     5     6   ar
    22     6     4   ar
    23     4     3   ar
    24     3     1   ar
