@<TRIPOS>MOLECULE
outputs/IAG933/test6/raw/output_1128_IAG933_linker_design_.xyz
 45 49 0 0 0
SMALL
GASTEIGER

@<TRIPOS>ATOM
      1 C         -24.8550   -1.0120   30.1430 C.3     1  UNL1        0.0437
      2 C         -24.9730   -2.5050   29.7880 C.2     1  UNL1       -0.0208
      3 C         -23.9060   -3.1730   29.1460 C.2     1  UNL1       -0.0042
      4 C         -23.9890   -4.5490   28.8530 C.2     1  UNL1       -0.0003
      5 C         -25.1370   -5.2800   29.2050 C.2     1  UNL1       -0.0000
      6 C         -26.2320   -4.6110   29.7840 C.2     1  UNL1       -0.0003
      7 C         -26.1550   -3.2320   30.0650 C.2     1  UNL1       -0.0042
      8 C         -25.3870   -0.6790   31.5710 C.3     1  UNL1        0.0772
      9 C         -25.1890    0.7730   32.0280 C.3     1  UNL1        0.0217
     10 C         -25.3360    0.6840   33.5440 C.3     1  UNL1        0.0203
     11 C         -24.8290   -0.7150   33.9050 C.3     1  UNL1        0.0887
     12 N         -24.7580   -1.4810   32.6460 N.3     1  UNL1       -0.2191
     13 C         -25.6880    1.6140   26.4610 C.2     1  UNL1        0.0533
     14 C         -26.2500    2.9200   26.3950 C.2     1  UNL1        0.0778
     15 C         -25.6420    4.0930   27.1230 C.2     1  UNL1        0.2665
     16 N         -25.6140    5.2520   26.4490 N.am    1  UNL1       -0.1997
     17 C         -25.0260    6.4790   26.9630 C.3     1  UNL1        0.1388
     18 O         -25.1430    3.9660   28.2430 O.2     1  UNL1       -0.2683
     19 C         -27.4380    3.0910   25.6450 C.2     1  UNL1        0.1068
     20 N         -28.0750    2.0890   25.0030 N.2     1  UNL1       -0.2081
     21 C         -27.5430    0.8490   25.0790 C.2     1  UNL1        0.2533
     22 O         -28.1930   -0.2080   24.4770 O.2     1  UNL1       -0.4558
     23 C         -29.4600    0.0050   23.8660 C.3     1  UNL1        0.2426
     24 C         -30.0650   -1.3770   23.5730 C.3     1  UNL1        0.2292
     25 O         -30.7290   -1.8780   24.7210 O.3     1  UNL1       -0.2162
     26 C         -26.3540    0.5760   25.7770 C.2     1  UNL1        0.1943
     27 F         -25.8600   -0.6810   25.7950 F       1  UNL1       -0.1992
     28 C         -27.6005    1.6053   30.2816 C.3     1  UNL1        0.1834
     29 C         -25.3718    2.1827   30.2419 C.3     1  UNL1        0.1141
     30 C         -28.1271    2.6403   33.1550 C.3     1  UNL1        0.0001
     31 N         -25.4175    1.5804   29.2326 N.3     1  UNL1       -0.1300
     32 C         -28.1560    3.6826   34.1707 C.3     1  UNL1        0.0000
     33 C         -24.4122    1.3993   27.2300 C.2     1  UNL1        0.0752
     34 C         -25.9056    4.5466   34.5390 C.3     1  UNL1        0.0000
     35 C         -27.2318    2.9534   32.3968 C.3     1  UNL1        0.0039
     36 C         -23.1245    1.7124   26.8091 C.2     1  UNL1        0.0840
     37 CL        -22.7718    2.3020   25.1968 Cl      1  UNL1       -0.0828
     38 F         -20.9174    1.6506   27.7499 F       1  UNL1       -0.2296
     39 C         -27.1905    4.7863   33.7588 C.3     1  UNL1        0.0000
     40 N         -24.3626    1.2033   28.4601 N.pl3   1  UNL1       -0.2329
     41 C         -22.2907    1.4697   27.8114 C.3     1  UNL1        0.2161
     42 C         -26.3124    1.7344   31.4374 C.3     1  UNL1        0.0499
     43 O         -28.9497    2.0028   30.5564 O.3     1  UNL1       -0.2204
     44 C         -23.0238    1.0828   28.9068 C.3     1  UNL1        0.1508
     45 C         -27.0447    4.4031   32.3099 C.3     1  UNL1        0.0001
@<TRIPOS>BOND
     1     2     7    1
     2     2     1    1
     3     3     2    2
     4     4     3    1
     5     4     5    2
     6     5     6    1
     7     6     7    2
     8     8     1    1
     9     8     9    1
    10     8    12    1
    11     9    42    1
    12     9    10    1
    13    10    11    1
    14    12    11    1
    15    13    33    1
    16    14    13    1
    17    14    15    1
    18    15    18    2
    19    16    17    1
    20    16    15    1
    21    19    14    2
    22    20    21    2
    23    20    19    1
    24    21    26    1
    25    22    21    1
    26    23    22    1
    27    24    23    1
    28    24    25    1
    29    26    27    1
    30    26    13    2
    31    28    43    1
    32    28    42    1
    33    30    32    1
    34    31    29    1
    35    33    40    1
    36    35    42    1
    37    35    30    1
    38    36    33    2
    39    36    41    1
    40    37    36    1
    41    39    32    1
    42    39    34    1
    43    40    44    1
    44    40    31    1
    45    41    38    1
    46    41    44    1
    47    42    29    1
    48    45    35    1
    49    45    39    1
