@<TRIPOS>MOLECULE
outputs/IAG933/test6/raw/output_1131_IAG933_linker_design_.xyz
 41 45 0 0 0
SMALL
GASTEIGER

@<TRIPOS>ATOM
      1 C         -24.8550   -1.0120   30.1430 C.3     1  UNL1        0.0975
      2 C         -24.9730   -2.5050   29.7880 C.2     1  UNL1       -0.0064
      3 C         -23.9060   -3.1730   29.1460 C.2     1  UNL1       -0.0029
      4 C         -23.9890   -4.5490   28.8530 C.2     1  UNL1       -0.0003
      5 C         -25.1370   -5.2800   29.2050 C.2     1  UNL1       -0.0000
      6 C         -26.2320   -4.6110   29.7840 C.2     1  UNL1       -0.0003
      7 C         -26.1550   -3.2320   30.0650 C.2     1  UNL1       -0.0029
      8 C         -25.3870   -0.6790   31.5710 C.3     1  UNL1        0.0916
      9 C         -25.1890    0.7730   32.0280 C.3     1  UNL1        0.0206
     10 C         -25.3360    0.6840   33.5440 C.3     1  UNL1        0.0203
     11 C         -24.8290   -0.7150   33.9050 C.3     1  UNL1        0.0888
     12 N         -24.7580   -1.4810   32.6460 N.3     1  UNL1       -0.2178
     13 C         -25.6880    1.6140   26.4610 C.2     1  UNL1        0.0872
     14 C         -26.2500    2.9200   26.3950 C.2     1  UNL1        0.0899
     15 C         -25.6420    4.0930   27.1230 C.2     1  UNL1        0.2676
     16 N         -25.6140    5.2520   26.4490 N.am    1  UNL1       -0.1997
     17 C         -25.0260    6.4790   26.9630 C.3     1  UNL1        0.1388
     18 O         -25.1430    3.9660   28.2430 O.2     1  UNL1       -0.2683
     19 C         -27.4380    3.0910   25.6450 C.2     1  UNL1        0.1080
     20 N         -28.0750    2.0890   25.0030 N.2     1  UNL1       -0.2080
     21 C         -27.5430    0.8490   25.0790 C.2     1  UNL1        0.2546
     22 O         -28.1930   -0.2080   24.4770 O.2     1  UNL1       -0.4558
     23 C         -29.4600    0.0050   23.8660 C.3     1  UNL1        0.2426
     24 C         -30.0650   -1.3770   23.5730 C.3     1  UNL1        0.2292
     25 O         -30.7290   -1.8780   24.7210 O.3     1  UNL1       -0.2162
     26 C         -26.3540    0.5760   25.7770 C.2     1  UNL1        0.2063
     27 F         -25.8600   -0.6810   25.7950 F       1  UNL1       -0.1979
     28 C         -23.2479    1.2929   29.2764 C.3     1  UNL1        0.0368
     29 C         -28.9406    1.8789   29.6115 C.3     1  UNL1        0.0040
     30 C         -24.6730    1.0940   28.6507 C.3     1  UNL1        0.1345
     31 O         -29.6982   -1.0901   29.0304 O.3     1  UNL1       -0.3523
     32 C         -27.5837    1.1874   29.9048 C.3     1  UNL1        0.0187
     33 N         -24.5401    1.2473   27.1725 N.pl3   1  UNL1       -0.2942
     34 C         -21.9439    1.5066   27.2357 C.3     1  UNL1        0.0216
     35 C         -30.3769    1.2162   29.5428 C.3     1  UNL1        0.0321
     36 C         -28.4879   -0.5779   28.3818 C.3     1  UNL1        0.1580
     37 N         -25.5138   -0.0852   29.2102 N.3     1  UNL1       -0.2535
     38 C         -30.3729   -0.2223   30.0581 C.3     1  UNL1        0.1422
     39 C         -23.2740    1.4561   26.4481 C.3     1  UNL1        0.0920
     40 C         -27.2615   -0.0226   29.0870 C.3     1  UNL1        0.0888
     41 C         -22.1024    0.5941   28.4960 C.3     1  UNL1        0.0049
@<TRIPOS>BOND
     1     1    37    1
     2     2     7    1
     3     2     1    1
     4     3     2    2
     5     4     3    1
     6     4     5    2
     7     5     6    1
     8     6     7    2
     9     8     1    1
    10     8     9    1
    11     8    12    1
    12     9    10    1
    13    10    11    1
    14    12    11    1
    15    13    33    1
    16    14    13    1
    17    14    15    1
    18    15    18    2
    19    16    17    1
    20    16    15    1
    21    19    14    2
    22    20    21    2
    23    20    19    1
    24    21    26    1
    25    22    21    1
    26    23    22    1
    27    24    23    1
    28    24    25    1
    29    26    27    1
    30    26    13    2
    31    29    32    1
    32    30    37    1
    33    30    28    1
    34    31    38    1
    35    33    30    1
    36    34    41    1
    37    35    29    1
    38    35    38    1
    39    36    31    1
    40    36    40    1
    41    39    33    1
    42    39    34    1
    43    40    37    1
    44    40    32    1
    45    41    28    1
