@<TRIPOS>MOLECULE
No_1133-gen_results/8p0m/2024-11-27-11-27-31/
 35 38 0 0 0
SMALL
GASTEIGER

@<TRIPOS>ATOM
      1 C         -28.0162   -0.8135   28.8779 C.ar    1  UNL1        0.0042
      2 C         -28.4690   -0.7850   29.8287 C.ar    1  UNL1        0.0536
      3 C         -26.5042   -0.7777   28.8766 C.ar    1  UNL1       -0.0038
      4 C         -25.9150   -0.6580   29.9230 C.ar    1  UNL1       -0.0187
      5 C         -27.9691   -0.7243   31.2047 C.ar    1  UNL1        0.0042
      6 C         -24.4089   -0.5955   30.0365 C.3     1  UNL1        0.0424
      7 C         -26.5502   -0.6554   31.1921 C.ar    1  UNL1       -0.0038
      8 C         -23.6800   -0.0973   29.0041 C.2     1  UNL1       -0.0161
      9 C         -22.2692   -0.0591   29.1110 C.2     1  UNL1        0.0906
     10 N         -21.6114    0.5063   28.1144 N.2     1  UNL1       -0.2473
     11 C         -22.3067    1.2931   27.2762 C.2     1  UNL1        0.0762
     12 C         -24.0370    0.9453   28.0092 C.3     1  UNL1        0.0615
     13 C         -23.7340   -1.1475   31.2298 C.3     1  UNL1        0.0091
     14 C         -30.0945   -0.8227   29.8609 C.2     1  UNL1        0.2490
     15 O         -30.5569   -0.4113   28.9062 O.2     1  UNL1       -0.2699
     16 N         -30.7750   -1.2920   30.9212 N.am    1  UNL1       -0.2760
     17 C         -32.2092   -1.3517   30.8867 C.3     1  UNL1        0.0937
     18 C         -32.7195   -2.0911   31.7001 C.3     1  UNL1        0.0216
     19 C         -32.4725   -2.9782   32.1027 C.3     1  UNL1        0.0057
     20 C         -30.9059   -3.2489   32.2157 C.3     1  UNL1        0.0509
     21 C         -30.1246   -2.7138   31.0448 C.3     1  UNL1        0.0959
     22 CA        -30.2460   -4.2572   33.0821 C.3     1  UNL1        0.1965
     23 C         -29.7515   -5.3544   32.4153 C.2     1  UNL1        0.3842
     24 O         -30.4615   -5.8869   31.5977 O.co2   1  UNL1       -0.2438
     25 N         -29.4108   -3.4409   34.0026 N.pl3   1  UNL1       -0.2278
     26 C         -29.8006   -2.9319   35.2309 C.ar    1  UNL1        0.0659
     27 C         -30.8461   -3.1346   35.6979 C.ar    1  UNL1        0.0170
     28 C         -31.2749   -2.5109   36.9371 C.ar    1  UNL1        0.0127
     29 C         -28.7949   -2.0186   35.7640 C.ar    1  UNL1        0.0170
     30 C         -29.0848   -1.3721   36.9585 C.ar    1  UNL1        0.0127
     31 C         -30.3398   -1.6206   37.5543 C.ar    1  UNL1        0.0578
     32 OXT       -28.5231   -5.7414   32.6592 O.co2   1  UNL1       -0.2438
     33 CL        -30.7729   -0.8525   39.0427 Cl      1  UNL1       -0.0822
     34 C         -24.9980    1.5458   27.4703 C.3     1  UNL1        0.0101
     35 C         -25.3537    1.3242   26.1921 C.3     1  UNL1        0.0007
@<TRIPOS>BOND
     1     4     6    1
     2     6     8    1
     3     8     9    2
     4     9    10    1
     5    10    11    2
     6     8    12    1
     7    11    12    1
     8     6    13    1
     9     2    14    1
    10    14    15    2
    11    14    16   am
    12    16    17    1
    13    17    18    1
    14    19    20    1
    15    16    21    1
    16    20    21    1
    17    20    22    1
    18    22    23    1
    19    23    24   ar
    20    22    25    1
    21    25    26    1
    22    23    32   ar
    23    31    33    1
    24    12    34    1
    25    34    35    1
    26    18    19    1
    27    26    27   ar
    28    27    28   ar
    29    28    31   ar
    30    31    30   ar
    31    30    29   ar
    32    29    26   ar
    33     1     2   ar
    34     2     5   ar
    35     5     7   ar
    36     7     4   ar
    37     4     3   ar
    38     3     1   ar
