@<TRIPOS>MOLECULE
outputs/IAG933/test6/raw/output_1134_IAG933_linker_design_.xyz
 44 47 0 0 0
SMALL
GASTEIGER

@<TRIPOS>ATOM
      1 C         -24.8550   -1.0120   30.1430 C.3     1  UNL1        0.1114
      2 C         -24.9730   -2.5050   29.7880 C.2     1  UNL1       -0.0030
      3 C         -23.9060   -3.1730   29.1460 C.2     1  UNL1       -0.0026
      4 C         -23.9890   -4.5490   28.8530 C.2     1  UNL1       -0.0003
      5 C         -25.1370   -5.2800   29.2050 C.2     1  UNL1       -0.0000
      6 C         -26.2320   -4.6110   29.7840 C.2     1  UNL1       -0.0003
      7 C         -26.1550   -3.2320   30.0650 C.2     1  UNL1       -0.0026
      8 C         -25.3870   -0.6790   31.5710 C.3     1  UNL1        0.0950
      9 C         -25.1890    0.7730   32.0280 C.3     1  UNL1        0.0209
     10 C         -25.3360    0.6840   33.5440 C.3     1  UNL1        0.0203
     11 C         -24.8290   -0.7150   33.9050 C.3     1  UNL1        0.0888
     12 N         -24.7580   -1.4810   32.6460 N.3     1  UNL1       -0.2174
     13 C         -25.6880    1.6140   26.4610 C.2     1  UNL1        0.0424
     14 C         -26.2500    2.9200   26.3950 C.2     1  UNL1        0.0767
     15 C         -25.6420    4.0930   27.1230 C.2     1  UNL1        0.2664
     16 N         -25.6140    5.2520   26.4490 N.am    1  UNL1       -0.1997
     17 C         -25.0260    6.4790   26.9630 C.3     1  UNL1        0.1388
     18 O         -25.1430    3.9660   28.2430 O.2     1  UNL1       -0.2683
     19 C         -27.4380    3.0910   25.6450 C.2     1  UNL1        0.1067
     20 N         -28.0750    2.0890   25.0030 N.2     1  UNL1       -0.2081
     21 C         -27.5430    0.8490   25.0790 C.2     1  UNL1        0.2533
     22 O         -28.1930   -0.2080   24.4770 O.2     1  UNL1       -0.4558
     23 C         -29.4600    0.0050   23.8660 C.3     1  UNL1        0.2426
     24 C         -30.0650   -1.3770   23.5730 C.3     1  UNL1        0.2292
     25 O         -30.7290   -1.8780   24.7210 O.3     1  UNL1       -0.2162
     26 C         -26.3540    0.5760   25.7770 C.2     1  UNL1        0.1932
     27 F         -25.8600   -0.6810   25.7950 F       1  UNL1       -0.1992
     28 N         -28.5044    0.7659   29.3483 N.3     1  UNL1       -0.2445
     29 C         -23.1962    1.6070   27.0701 C.2     1  UNL1        0.1705
     30 C         -24.4817    1.2338   27.2767 C.2     1  UNL1        0.0554
     31 N         -25.2574   -0.1130   29.1141 N.pl3   1  UNL1       -0.3000
     32 C         -29.2386    1.6132   29.8386 C.3     1  UNL1        0.0918
     33 C         -27.2685    1.0788   29.0141 C.3     1  UNL1        0.0958
     34 C         -22.9467    0.5027   28.8488 C.2     1  UNL1        0.2391
     35 C         -24.3974    0.4902   28.4351 C.2     1  UNL1        0.0930
     36 O         -22.3750   -0.1266   29.7277 O.2     1  UNL1       -0.2827
     37 C         -29.4984   -0.5549   31.4882 C.3     1  UNL1        0.1759
     38 C         -28.9817   -0.6823   29.1925 C.3     1  UNL1        0.2201
     39 C         -22.4497    2.3711   24.8613 C.3     1  UNL1        0.2526
     40 C         -26.4776    0.0752   28.9167 C.3     1  UNL1        0.1085
     41 C         -22.3869    1.2003   27.8625 C.2     1  UNL1        0.2137
     42 O         -28.7233   -1.2761   30.5077 O.3     1  UNL1       -0.3346
     43 O         -22.9931    2.5336   26.0783 O.2     1  UNL1       -0.4690
     44 F         -21.1127    1.4073   27.7528 F       1  UNL1       -0.1975
@<TRIPOS>BOND
     1     1    31    1
     2     2     7    1
     3     2     1    1
     4     3     2    2
     5     4     3    1
     6     4     5    2
     7     5     6    1
     8     6     7    2
     9     8     1    1
    10     8     9    1
    11     8    12    1
    12     9    10    1
    13    10    11    1
    14    12    11    1
    15    13    30    1
    16    14    13    1
    17    14    15    1
    18    15    18    2
    19    16    17    1
    20    16    15    1
    21    19    14    2
    22    20    21    2
    23    20    19    1
    24    21    26    1
    25    22    21    1
    26    23    22    1
    27    24    23    1
    28    24    25    1
    29    26    27    1
    30    26    13    2
    31    28    32    1
    32    29    30    1
    33    29    41    2
    34    30    35    2
    35    33    28    1
    36    34    36    2
    37    35    34    1
    38    35    31    1
    39    38    28    1
    40    38    42    1
    41    39    43    1
    42    40    33    1
    43    40    31    1
    44    41    34    1
    45    42    37    1
    46    43    29    1
    47    44    41    1
