@<TRIPOS>MOLECULE
outputs/IAG933/test6/raw/output_1139_IAG933_linker_design_.xyz
 44 47 0 0 0
SMALL
GASTEIGER

@<TRIPOS>ATOM
      1 C         -24.8550   -1.0120   30.1430 C.3     1  UNL1        0.0989
      2 C         -24.9730   -2.5050   29.7880 C.2     1  UNL1       -0.0063
      3 C         -23.9060   -3.1730   29.1460 C.2     1  UNL1       -0.0029
      4 C         -23.9890   -4.5490   28.8530 C.2     1  UNL1       -0.0003
      5 C         -25.1370   -5.2800   29.2050 C.2     1  UNL1       -0.0000
      6 C         -26.2320   -4.6110   29.7840 C.2     1  UNL1       -0.0003
      7 C         -26.1550   -3.2320   30.0650 C.2     1  UNL1       -0.0029
      8 C         -25.3870   -0.6790   31.5710 C.3     1  UNL1        0.0916
      9 C         -25.1890    0.7730   32.0280 C.3     1  UNL1        0.0206
     10 C         -25.3360    0.6840   33.5440 C.3     1  UNL1        0.0203
     11 C         -24.8290   -0.7150   33.9050 C.3     1  UNL1        0.0888
     12 N         -24.7580   -1.4810   32.6460 N.3     1  UNL1       -0.2178
     13 C         -25.6880    1.6140   26.4610 C.3     1  UNL1        0.1441
     14 C         -26.2500    2.9200   26.3950 C.2     1  UNL1        0.0731
     15 C         -25.6420    4.0930   27.1230 C.2     1  UNL1        0.2640
     16 N         -25.6140    5.2520   26.4490 N.am    1  UNL1       -0.1999
     17 C         -25.0260    6.4790   26.9630 C.3     1  UNL1        0.1388
     18 O         -25.1430    3.9660   28.2430 O.2     1  UNL1       -0.2686
     19 C         -27.4380    3.0910   25.6450 C.2     1  UNL1        0.1038
     20 N         -28.0750    2.0890   25.0030 N.2     1  UNL1       -0.2118
     21 C         -27.5430    0.8490   25.0790 C.2     1  UNL1        0.2358
     22 O         -28.1930   -0.2080   24.4770 O.2     1  UNL1       -0.4585
     23 C         -29.4600    0.0050   23.8660 C.3     1  UNL1        0.2423
     24 C         -30.0650   -1.3770   23.5730 C.3     1  UNL1        0.2292
     25 O         -30.7290   -1.8780   24.7210 O.3     1  UNL1       -0.2162
     26 C         -26.3540    0.5760   25.7770 C.3     1  UNL1        0.2581
     27 F         -25.8600   -0.6810   25.7950 F       1  UNL1       -0.2251
     28 C         -25.3675    0.8496   28.6409 C.3     1  UNL1        0.1358
     29 C         -29.6261    0.9259   31.4281 C.3     1  UNL1        0.3516
     30 N         -24.5759    0.0475   29.2638 N.3     1  UNL1       -0.2349
     31 C         -30.9498    1.7967   31.7355 C.3     1  UNL1        0.0994
     32 C         -29.2645    1.1679   29.8557 C.3     1  UNL1        0.0844
     33 C         -23.1041   -0.0056   28.8742 C.3     1  UNL1        0.2037
     34 O         -29.9565   -0.4717   31.4551 O.2     1  UNL1       -0.2755
     35 C         -29.1304    2.5926   29.3079 C.3     1  UNL1        0.0078
     36 C         -23.1400    2.5643   26.4376 C.3     1  UNL1        0.0493
     37 N         -22.3244   -0.0275   30.0886 N.3     1  UNL1       -0.1074
     38 C         -28.0499    0.3653   29.2993 C.3     1  UNL1        0.0107
     39 F         -21.2433    1.1039   27.7327 F       1  UNL1       -0.2049
     40 N         -24.8911    1.2448   27.4800 N.pl3   1  UNL1       -0.2926
     41 C         -22.5118    0.8805   27.8368 C.2     1  UNL1        0.1595
     42 C         -23.4991    1.4860   27.3146 C.2     1  UNL1        0.0528
     43 O         -28.6638    1.3534   32.3355 O.2     1  UNL1       -0.2755
     44 C         -26.7357    1.3566   29.1968 C.3     1  UNL1        0.0371
@<TRIPOS>BOND
     1     1     2    1
     2     2     7    1
     3     3     2    2
     4     4     3    1
     5     4     5    2
     6     5     6    1
     7     6     7    2
     8     8     1    1
     9     8     9    1
    10     8    12    1
    11     9    10    1
    12    10    11    1
    13    12    11    1
    14    13    40    1
    15    14    13    1
    16    14    15    1
    17    15    18    2
    18    16    17    1
    19    16    15    1
    20    19    14    2
    21    20    21    2
    22    20    19    1
    23    21    26    1
    24    22    21    1
    25    23    22    1
    26    24    23    1
    27    24    25    1
    28    26    27    1
    29    26    13    1
    30    28    44    1
    31    28    30    1
    32    29    34    1
    33    29    31    1
    34    29    43    1
    35    30     1    1
    36    32    35    1
    37    32    29    1
    38    33    30    1
    39    33    37    1
    40    36    42    1
    41    38    32    1
    42    39    41    1
    43    40    28    1
    44    41    33    1
    45    42    40    1
    46    42    41    2
    47    44    38    1
