@<TRIPOS>MOLECULE
outputs/IAG933/test6/raw/output_114_IAG933_linker_design_.xyz
 44 48 0 0 0
SMALL
GASTEIGER

@<TRIPOS>ATOM
      1 C         -24.8550   -1.0120   30.1430 C.3     1  UNL1        0.1987
      2 C         -24.9730   -2.5050   29.7880 C.2     1  UNL1        0.0213
      3 C         -23.9060   -3.1730   29.1460 C.2     1  UNL1       -0.0004
      4 C         -23.9890   -4.5490   28.8530 C.2     1  UNL1       -0.0002
      5 C         -25.1370   -5.2800   29.2050 C.2     1  UNL1       -0.0000
      6 C         -26.2320   -4.6110   29.7840 C.2     1  UNL1       -0.0002
      7 C         -26.1550   -3.2320   30.0650 C.2     1  UNL1       -0.0004
      8 C         -25.3870   -0.6790   31.5710 C.3     1  UNL1        0.1197
      9 C         -25.1890    0.7730   32.0280 C.3     1  UNL1        0.0233
     10 C         -25.3360    0.6840   33.5440 C.3     1  UNL1        0.0204
     11 C         -24.8290   -0.7150   33.9050 C.3     1  UNL1        0.0889
     12 N         -24.7580   -1.4810   32.6460 N.3     1  UNL1       -0.2150
     13 C         -25.6880    1.6140   26.4610 C.2     1  UNL1        0.0484
     14 C         -26.2500    2.9200   26.3950 C.2     1  UNL1        0.0769
     15 C         -25.6420    4.0930   27.1230 C.2     1  UNL1        0.2664
     16 N         -25.6140    5.2520   26.4490 N.am    1  UNL1       -0.1997
     17 C         -25.0260    6.4790   26.9630 C.3     1  UNL1        0.1388
     18 O         -25.1430    3.9660   28.2430 O.2     1  UNL1       -0.2683
     19 C         -27.4380    3.0910   25.6450 C.2     1  UNL1        0.1067
     20 N         -28.0750    2.0890   25.0030 N.2     1  UNL1       -0.2081
     21 C         -27.5430    0.8490   25.0790 C.2     1  UNL1        0.2533
     22 O         -28.1930   -0.2080   24.4770 O.2     1  UNL1       -0.4558
     23 C         -29.4600    0.0050   23.8660 C.3     1  UNL1        0.2426
     24 C         -30.0650   -1.3770   23.5730 C.3     1  UNL1        0.2292
     25 O         -30.7290   -1.8780   24.7210 O.3     1  UNL1       -0.2162
     26 C         -26.3540    0.5760   25.7770 C.2     1  UNL1        0.1934
     27 F         -25.8600   -0.6810   25.7950 F       1  UNL1       -0.1992
     28 C         -22.0333    1.4847   27.4645 C.2     1  UNL1        0.2255
     29 C         -24.3739    0.4637   28.3823 C.2     1  UNL1        0.3278
     30 N         -23.1793    0.1907   28.9823 N.2     1  UNL1       -0.0336
     31 O         -29.5111   -1.1794   28.6101 O.2     1  UNL1       -0.2868
     32 C         -24.4223    1.2600   27.2272 C.2     1  UNL1        0.1260
     33 C         -27.4548    1.5770   29.7702 C.2     1  UNL1        0.0029
     34 C         -23.1997    1.7211   26.7432 C.2     1  UNL1        0.2339
     35 C         -29.7030    2.3722   29.4115 C.2     1  UNL1        0.0033
     36 C         -27.7506    0.3613   29.1504 C.2     1  UNL1        0.0632
     37 C         -29.0830    0.0835   28.8910 C.2     1  UNL1        0.1956
     38 C         -22.0105    0.6797   28.5559 C.2     1  UNL1        0.2684
     39 C         -26.6468   -0.4983   28.6166 C.3     1  UNL1        0.2329
     40 F         -20.8112    2.0553   27.1562 F       1  UNL1       -0.1967
     41 C         -30.0326    1.1091   28.9077 C.2     1  UNL1        0.0418
     42 N         -25.3174   -0.1718   29.1023 N.pl3   1  UNL1       -0.1848
     43 C         -28.4226    2.5602   29.9048 C.2     1  UNL1        0.0000
     44 O         -23.1414    2.4108   25.6071 O.2     1  UNL1       -0.2838
@<TRIPOS>BOND
     1     1    42    1
     2     2     7    1
     3     2     1    1
     4     3     2    2
     5     4     3    1
     6     4     5    2
     7     5     6    1
     8     6     7    2
     9     8     1    1
    10     8     9    1
    11     8    12    1
    12     9    10    1
    13    10    11    1
    14    12    11    1
    15    13    32    1
    16    14    13    1
    17    14    15    1
    18    15    18    2
    19    16    17    1
    20    16    15    1
    21    19    14    2
    22    20    21    2
    23    20    19    1
    24    21    26    1
    25    22    21    1
    26    23    22    1
    27    24    23    1
    28    24    25    1
    29    26    27    1
    30    26    13    2
    31    28    38    1
    32    29    30    1
    33    29    42    1
    34    31    37    1
    35    32    29    2
    36    33    43    1
    37    34    32    1
    38    34    28    2
    39    35    43    2
    40    36    33    2
    41    37    41    2
    42    37    36    1
    43    38    30    2
    44    39    42    1
    45    39    36    1
    46    40    28    1
    47    41    35    1
    48    44    34    1
