@<TRIPOS>MOLECULE
outputs/IAG933/test6/raw/output_1140_IAG933_linker_design_.xyz
 43 47 0 0 0
SMALL
GASTEIGER

@<TRIPOS>ATOM
      1 C         -24.8550   -1.0120   30.1430 C.3     1  UNL1        0.1416
      2 C         -24.9730   -2.5050   29.7880 C.2     1  UNL1       -0.0006
      3 C         -23.9060   -3.1730   29.1460 C.2     1  UNL1       -0.0026
      4 C         -23.9890   -4.5490   28.8530 C.2     1  UNL1       -0.0003
      5 C         -25.1370   -5.2800   29.2050 C.2     1  UNL1       -0.0000
      6 C         -26.2320   -4.6110   29.7840 C.2     1  UNL1       -0.0003
      7 C         -26.1550   -3.2320   30.0650 C.2     1  UNL1       -0.0026
      8 C         -25.3870   -0.6790   31.5710 C.3     1  UNL1        0.0975
      9 C         -25.1890    0.7730   32.0280 C.3     1  UNL1        0.0210
     10 C         -25.3360    0.6840   33.5440 C.3     1  UNL1        0.0203
     11 C         -24.8290   -0.7150   33.9050 C.3     1  UNL1        0.0888
     12 N         -24.7580   -1.4810   32.6460 N.3     1  UNL1       -0.2174
     13 C         -25.6880    1.6140   26.4610 C.2     1  UNL1        0.0454
     14 C         -26.2500    2.9200   26.3950 C.2     1  UNL1        0.0749
     15 C         -25.6420    4.0930   27.1230 C.2     1  UNL1        0.2662
     16 N         -25.6140    5.2520   26.4490 N.am    1  UNL1       -0.1997
     17 C         -25.0260    6.4790   26.9630 C.3     1  UNL1        0.1388
     18 O         -25.1430    3.9660   28.2430 O.2     1  UNL1       -0.2683
     19 C         -27.4380    3.0910   25.6450 C.2     1  UNL1        0.1065
     20 N         -28.0750    2.0890   25.0030 N.2     1  UNL1       -0.2081
     21 C         -27.5430    0.8490   25.0790 C.2     1  UNL1        0.2530
     22 O         -28.1930   -0.2080   24.4770 O.2     1  UNL1       -0.4558
     23 C         -29.4600    0.0050   23.8660 C.3     1  UNL1        0.2426
     24 C         -30.0650   -1.3770   23.5730 C.3     1  UNL1        0.2292
     25 O         -30.7290   -1.8780   24.7210 O.3     1  UNL1       -0.2162
     26 C         -26.3540    0.5760   25.7770 C.2     1  UNL1        0.1915
     27 F         -25.8600   -0.6810   25.7950 F       1  UNL1       -0.1995
     28 C         -24.5379    1.1372   27.1211 C.3     1  UNL1        0.1733
     29 C         -23.3595    1.6388   26.4829 C.3     1  UNL1        0.0934
     30 O         -20.1570    1.1432   28.1422 O.2     1  UNL1       -0.4541
     31 N         -24.1964   -0.0021   29.3283 N.am    1  UNL1       -0.1638
     32 C         -21.1031    1.6378   27.0358 C.2     1  UNL1        0.2758
     33 C         -23.2798    2.1500   25.4085 C.3     1  UNL1        0.2002
     34 F         -22.6938    2.6245   24.3061 F       1  UNL1       -0.2339
     35 C         -22.2882    1.4091   27.2668 C.2     1  UNL1        0.0362
     36 C         -23.3437    0.7890   29.6748 C.2     1  UNL1        0.2552
     37 O         -24.6489    0.1183   27.9700 O.3     1  UNL1       -0.2604
     38 O         -20.4914   -1.5547   29.1928 O.3     1  UNL1       -0.2164
     39 C         -21.3913   -1.0036   29.1783 C.3     1  UNL1        0.2262
     40 F         -20.7730    2.1201   26.0202 F       1  UNL1       -0.1640
     41 C         -21.1875    0.3581   28.8649 C.3     1  UNL1        0.2135
     42 O         -23.2203    1.4299   30.7226 O.2     1  UNL1       -0.2723
     43 C         -22.3877    0.8637   28.6152 C.3     1  UNL1        0.1449
@<TRIPOS>BOND
     1     1     2    1
     2     2     7    1
     3     3     2    2
     4     4     3    1
     5     4     5    2
     6     5     6    1
     7     6     7    2
     8     8     1    1
     9     8     9    1
    10     8    12    1
    11     9    10    1
    12    10    11    1
    13    12    11    1
    14    14    13    1
    15    14    15    1
    16    15    18    2
    17    16    17    1
    18    16    15    1
    19    19    14    2
    20    20    21    2
    21    20    19    1
    22    21    26    1
    23    22    21    1
    24    23    22    1
    25    24    23    1
    26    24    25    1
    27    26    27    1
    28    26    13    2
    29    28    13    1
    30    28    37    1
    31    29    33    1
    32    29    28    1
    33    29    35    1
    34    30    41    1
    35    31    36   am
    36    31     1    1
    37    32    35    2
    38    32    30    1
    39    34    33    1
    40    36    42    2
    41    37    31    1
    42    39    38    1
    43    40    32    1
    44    41    39    1
    45    43    35    1
    46    43    41    1
    47    43    36    1
