@<TRIPOS>MOLECULE
No_1142-gen_results/8p0m/2024-11-27-11-27-31/
 14 15 0 0 0
SMALL
GASTEIGER

@<TRIPOS>ATOM
      1 O         -28.1229   -1.3353   28.4874 O.2     1  UNL1       -0.2729
      2 C         -27.4806   -0.4044   28.7094 C.2     1  UNL1        0.2473
      3 C         -27.1904    0.2460   29.5268 C.3     1  UNL1        0.1006
      4 N         -26.6871   -0.0001   27.4423 N.am    1  UNL1       -0.1725
      5 C         -27.6511    0.1259   30.8798 C.ar    1  UNL1       -0.0138
      6 C         -25.7508    1.0047   27.4342 C.3     1  UNL1        0.2555
      7 C         -25.5541    1.7023   28.6009 C.3     1  UNL1        0.0591
      8 C         -26.1486    1.3780   29.6666 C.3     1  UNL1        0.0182
      9 C         -28.6090    0.6564   31.3753 C.ar    1  UNL1       -0.0038
     10 C         -29.1795    0.3372   32.7060 C.ar    1  UNL1       -0.0003
     11 C         -28.6939   -0.7983   33.3433 C.ar    1  UNL1       -0.0000
     12 C         -27.7116   -1.5497   32.7547 C.ar    1  UNL1       -0.0003
     13 C         -27.1276   -1.1674   31.5291 C.ar    1  UNL1       -0.0038
     14 F         -25.1524    1.2948   26.3076 F       1  UNL1       -0.2132
@<TRIPOS>BOND
     1     1     2    2
     2     2     3    1
     3     2     4   am
     4     3     5    1
     5     4     6    1
     6     3     8    1
     7     7     8    1
     8     6    14    1
     9     7     6    1
    10     5     9   ar
    11     9    10   ar
    12    10    11   ar
    13    11    12   ar
    14    12    13   ar
    15    13     5   ar
