@<TRIPOS>MOLECULE
No_1143-gen_results/8p0m/2024-11-27-11-27-31/
 16 18 0 0 0
SMALL
GASTEIGER

@<TRIPOS>ATOM
      1 C         -28.0162   -0.8135   28.8779 C.ar    1  UNL1        0.0015
      2 C         -27.0636   -0.1189   28.6079 C.ar    1  UNL1        0.0176
      3 C         -25.7923   -0.4302   29.0761 C.ar    1  UNL1        0.0015
      4 C         -25.5756   -1.5654   29.9363 C.ar    1  UNL1        0.0000
      5 C         -26.7354   -2.3004   30.2173 C.ar    1  UNL1        0.0000
      6 C         -27.9184   -1.9537   29.7629 C.ar    1  UNL1        0.0000
      7 C         -27.1057    1.1023   27.7593 C.ar    1  UNL1        0.0813
      8 N         -26.8548    2.1259   28.0082 N.ar    1  UNL1       -0.2438
      9 C         -27.5137    0.8100   26.3476 C.ar    1  UNL1        0.0177
     10 C         -27.8713   -0.3799   25.8365 C.ar    1  UNL1        0.0015
     11 C         -28.2139   -0.4462   24.5060 C.ar    1  UNL1        0.0000
     12 C         -28.3274    0.7151   23.7511 C.ar    1  UNL1        0.0000
     13 C         -27.6179    1.8401   25.3738 C.ar    1  UNL1        0.0030
     14 C         -27.9332    1.8542   24.2051 C.ar    1  UNL1        0.0001
     15 C         -27.1219    3.2386   26.0701 C.ar    1  UNL1        0.0207
     16 C         -26.7884    3.3214   27.3425 C.ar    1  UNL1        0.0988
@<TRIPOS>BOND
     1     2     7    1
     2     1     2   ar
     3     2     3   ar
     4     3     4   ar
     5     4     5   ar
     6     5     6   ar
     7     6     1   ar
     8     7     8   ar
     9     8    16   ar
    10    16    15   ar
    11    15    13   ar
    12     9     7   ar
    13     9    10   ar
    14    10    11   ar
    15    11    12   ar
    16    12    14   ar
    17    14    13   ar
    18    13     9   ar
