@<TRIPOS>MOLECULE
No_1144-gen_results/8p0m/2024-11-27-11-27-31/
 32 34 0 0 0
SMALL
GASTEIGER

@<TRIPOS>ATOM
      1 C         -28.0162   -0.8135   28.8779 C.ar    1  UNL1        0.0066
      2 C         -28.4690   -0.7850   29.8287 C.ar    1  UNL1        0.0797
      3 C         -28.1816    0.4277   28.1134 C.ar    1  UNL1        0.0001
      4 C         -27.4498    0.6435   26.8500 C.ar    1  UNL1       -0.0003
      5 C         -26.4529    0.9939   26.6681 C.ar    1  UNL1        0.0006
      6 C         -25.1812    0.8624   26.8165 C.2     1  UNL1        0.0088
      7 C         -24.2036    1.0464   27.4866 C.2     1  UNL1        0.0493
      8 C         -29.4367    0.0780   30.4436 C.ar    1  UNL1        0.0104
      9 C         -23.2068    1.1720   27.8982 C.1     1  UNL1       -0.0623
     10 C         -29.6775    1.1885   29.7341 C.ar    1  UNL1        0.0716
     11 C         -29.0585    1.3972   28.5508 C.ar    1  UNL1        0.0039
     12 C         -21.9511    1.0728   28.5269 C.1     1  UNL1       -0.0654
     13 C         -28.3646    0.2102   25.7067 C.ar    1  UNL1       -0.0039
     14 C         -28.4589    1.1036   24.7132 C.ar    1  UNL1       -0.0178
     15 C         -26.5028    2.5526   26.2212 C.ar    1  UNL1       -0.0003
     16 C         -27.4766    2.2909   24.8367 C.ar    1  UNL1       -0.0039
     17 C         -30.6119    2.2594   30.2785 C.3     1  UNL1        0.4186
     18 F         -30.8752    2.2814   31.3937 F       1  UNL1       -0.1659
     19 F         -30.0314    3.4660   29.9073 F       1  UNL1       -0.1659
     20 F         -31.7237    2.1834   29.4391 F       1  UNL1       -0.1659
     21 C         -28.2741   -2.0961   30.8047 C.2     1  UNL1        0.3877
     22 O         -27.5930   -2.9828   30.4227 O.co2   1  UNL1       -0.2406
     23 O         -29.0439   -2.2362   31.8980 O.co2   1  UNL1       -0.2406
     24 C         -20.9436    0.8458   29.3211 C.3     1  UNL1        0.1849
     25 C         -29.3207    1.1132   23.6732 C.3     1  UNL1        0.0526
     26 C         -30.6521    1.4583   24.0279 C.ar    1  UNL1       -0.0178
     27 C         -31.0758    2.1885   24.6257 C.ar    1  UNL1       -0.0039
     28 C         -32.5371    2.5358   24.8855 C.ar    1  UNL1       -0.0003
     29 C         -33.3980    1.8341   24.1630 C.ar    1  UNL1       -0.0000
     30 C         -32.9609    0.9067   23.2412 C.ar    1  UNL1       -0.0003
     31 C         -31.6001    0.6817   23.0830 C.ar    1  UNL1       -0.0039
     32 N         -20.1685   -0.1838   29.3781 N.3     1  UNL1       -0.1160
@<TRIPOS>BOND
     1     3     4    1
     2     5     6    1
     3     6     7    2
     4     7     9    1
     5     9    12    3
     6    10    17    1
     7    17    18    1
     8    17    19    1
     9    17    20    1
    10     2    21    1
    11    21    22   ar
    12    21    23   ar
    13    12    24    1
    14    14    25    1
    15    25    26    1
    16    24    32    1
    17     4     5   ar
    18     5    15   ar
    19    15    16   ar
    20    16    14   ar
    21    14    13   ar
    22    13     4   ar
    23    26    27   ar
    24    27    28   ar
    25    28    29   ar
    26    29    30   ar
    27    30    31   ar
    28    31    26   ar
    29     1     2   ar
    30     2     8   ar
    31     8    10   ar
    32    10    11   ar
    33    11     3   ar
    34     3     1   ar
