@<TRIPOS>MOLECULE
outputs/IAG933/test6/raw/output_1147_IAG933_linker_design_.xyz
 41 44 0 0 0
SMALL
GASTEIGER

@<TRIPOS>ATOM
      1 C         -24.8550   -1.0120   30.1430 C.3     1  UNL1        0.0594
      2 C         -24.9730   -2.5050   29.7880 C.2     1  UNL1       -0.0196
      3 C         -23.9060   -3.1730   29.1460 C.2     1  UNL1       -0.0042
      4 C         -23.9890   -4.5490   28.8530 C.2     1  UNL1       -0.0003
      5 C         -25.1370   -5.2800   29.2050 C.2     1  UNL1       -0.0000
      6 C         -26.2320   -4.6110   29.7840 C.2     1  UNL1       -0.0003
      7 C         -26.1550   -3.2320   30.0650 C.2     1  UNL1       -0.0042
      8 C         -25.3870   -0.6790   31.5710 C.3     1  UNL1        0.0783
      9 C         -25.1890    0.7730   32.0280 C.3     1  UNL1        0.0192
     10 C         -25.3360    0.6840   33.5440 C.3     1  UNL1        0.0202
     11 C         -24.8290   -0.7150   33.9050 C.3     1  UNL1        0.0887
     12 N         -24.7580   -1.4810   32.6460 N.3     1  UNL1       -0.2191
     13 C         -25.6880    1.6140   26.4610 C.2     1  UNL1        0.0911
     14 C         -26.2500    2.9200   26.3950 C.2     1  UNL1        0.0902
     15 C         -25.6420    4.0930   27.1230 C.2     1  UNL1        0.2676
     16 N         -25.6140    5.2520   26.4490 N.am    1  UNL1       -0.1997
     17 C         -25.0260    6.4790   26.9630 C.3     1  UNL1        0.1388
     18 O         -25.1430    3.9660   28.2430 O.2     1  UNL1       -0.2683
     19 C         -27.4380    3.0910   25.6450 C.2     1  UNL1        0.1080
     20 N         -28.0750    2.0890   25.0030 N.2     1  UNL1       -0.2080
     21 C         -27.5430    0.8490   25.0790 C.2     1  UNL1        0.2546
     22 O         -28.1930   -0.2080   24.4770 O.2     1  UNL1       -0.4558
     23 C         -29.4600    0.0050   23.8660 C.3     1  UNL1        0.2426
     24 C         -30.0650   -1.3770   23.5730 C.3     1  UNL1        0.2292
     25 O         -30.7290   -1.8780   24.7210 O.3     1  UNL1       -0.2162
     26 C         -26.3540    0.5760   25.7770 C.2     1  UNL1        0.2066
     27 F         -25.8600   -0.6810   25.7950 F       1  UNL1       -0.1979
     28 C         -24.5038    0.3480   28.1907 C.3     1  UNL1        0.1921
     29 N         -24.4793    1.2718   27.1543 N.pl3   1  UNL1       -0.2667
     30 C         -23.0548    2.7406   25.7274 C.3     1  UNL1        0.2367
     31 C         -23.0920    1.7424   26.7858 C.2     1  UNL1        0.0953
     32 F         -22.1847    2.4634   24.7435 F       1  UNL1       -0.2276
     33 C         -25.4817   -0.1991   29.1418 C.3     1  UNL1        0.1363
     34 O         -22.0737   -0.9855   29.9913 O.2     1  UNL1       -0.2665
     35 N         -20.0875    0.0156   28.5177 N.2     1  UNL1       -0.1407
     36 N         -26.5749    0.7985   29.1776 N.3     1  UNL1       -0.1288
     37 C         -21.2181    0.3830   28.3987 C.2     1  UNL1        0.1859
     38 F         -20.8110    1.9549   26.7687 F       1  UNL1       -0.2013
     39 C         -21.7272    1.3453   27.3431 C.2     1  UNL1        0.1761
     40 C         -22.2140   -0.2035   28.9850 C.2     1  UNL1        0.2881
     41 N         -23.4062   -0.0026   28.5275 N.am    1  UNL1       -0.1797
@<TRIPOS>BOND
     1     1    33    1
     2     2     7    1
     3     2     1    1
     4     3     2    2
     5     4     3    1
     6     4     5    2
     7     5     6    1
     8     6     7    2
     9     8     1    1
    10     8     9    1
    11     8    12    1
    12     9    10    1
    13    10    11    1
    14    12    11    1
    15    13    29    1
    16    14    13    1
    17    14    15    1
    18    15    18    2
    19    16    17    1
    20    16    15    1
    21    19    14    2
    22    20    21    2
    23    20    19    1
    24    21    26    1
    25    22    21    1
    26    23    22    1
    27    24    23    1
    28    24    25    1
    29    26    27    1
    30    26    13    2
    31    28    41    1
    32    28    33    1
    33    29    28    1
    34    30    31    1
    35    31    29    1
    36    31    39    2
    37    32    30    1
    38    33    36    1
    39    37    35    2
    40    37    40    1
    41    38    39    1
    42    39    37    1
    43    40    34    2
    44    41    40    1
