@<TRIPOS>MOLECULE
outputs/IAG933/test6/raw/output_115_IAG933_linker_design_.xyz
 43 46 0 0 0
SMALL
GASTEIGER

@<TRIPOS>ATOM
      1 C         -24.8550   -1.0120   30.1430 C.3     1  UNL1        0.0625
      2 C         -24.9730   -2.5050   29.7880 C.2     1  UNL1       -0.0191
      3 C         -23.9060   -3.1730   29.1460 C.2     1  UNL1       -0.0042
      4 C         -23.9890   -4.5490   28.8530 C.2     1  UNL1       -0.0003
      5 C         -25.1370   -5.2800   29.2050 C.2     1  UNL1       -0.0000
      6 C         -26.2320   -4.6110   29.7840 C.2     1  UNL1       -0.0003
      7 C         -26.1550   -3.2320   30.0650 C.2     1  UNL1       -0.0042
      8 C         -25.3870   -0.6790   31.5710 C.3     1  UNL1        0.0788
      9 C         -25.1890    0.7730   32.0280 C.3     1  UNL1        0.0193
     10 C         -25.3360    0.6840   33.5440 C.3     1  UNL1        0.0202
     11 C         -24.8290   -0.7150   33.9050 C.3     1  UNL1        0.0887
     12 N         -24.7580   -1.4810   32.6460 N.3     1  UNL1       -0.2191
     13 C         -25.6880    1.6140   26.4610 C.2     1  UNL1        0.0387
     14 C         -26.2500    2.9200   26.3950 C.2     1  UNL1        0.0766
     15 C         -25.6420    4.0930   27.1230 C.2     1  UNL1        0.2664
     16 N         -25.6140    5.2520   26.4490 N.am    1  UNL1       -0.1997
     17 C         -25.0260    6.4790   26.9630 C.3     1  UNL1        0.1388
     18 O         -25.1430    3.9660   28.2430 O.2     1  UNL1       -0.2683
     19 C         -27.4380    3.0910   25.6450 C.2     1  UNL1        0.1067
     20 N         -28.0750    2.0890   25.0030 N.2     1  UNL1       -0.2081
     21 C         -27.5430    0.8490   25.0790 C.2     1  UNL1        0.2533
     22 O         -28.1930   -0.2080   24.4770 O.2     1  UNL1       -0.4558
     23 C         -29.4600    0.0050   23.8660 C.3     1  UNL1        0.2426
     24 C         -30.0650   -1.3770   23.5730 C.3     1  UNL1        0.2292
     25 O         -30.7290   -1.8780   24.7210 O.3     1  UNL1       -0.2162
     26 C         -26.3540    0.5760   25.7770 C.2     1  UNL1        0.1931
     27 F         -25.8600   -0.6810   25.7950 F       1  UNL1       -0.1992
     28 C         -28.2479    1.7800   30.8752 C.3     1  UNL1        0.2004
     29 C         -25.6320   -0.0707   29.1517 C.3     1  UNL1        0.1228
     30 C         -23.2143    1.7700   26.6424 C.2     1  UNL1        0.0848
     31 C         -23.1932    0.4020   29.1221 C.2     1  UNL1       -0.0002
     32 C         -24.4454    1.2944   27.1968 C.2     1  UNL1        0.0129
     33 C         -27.6815    3.1294   31.2242 C.2     1  UNL1        0.3741
     34 CL        -23.1374    2.5940   25.1218 Cl      1  UNL1       -0.0799
     35 C         -22.0057    1.5887   27.2687 C.2     1  UNL1        0.1506
     36 O         -28.4569   -0.0424   29.4213 O.2     1  UNL1       -0.2727
     37 O         -27.5485    3.9737   30.3344 O.co2   1  UNL1       -0.2451
     38 N         -26.5278    1.0670   29.4379 N.am    1  UNL1       -0.2018
     39 F         -20.9120    1.7519   26.6985 F       1  UNL1       -0.2033
     40 C         -22.0011    0.8937   28.5587 C.2     1  UNL1        0.0302
     41 C         -24.5183    0.5851   28.3964 C.2     1  UNL1       -0.0012
     42 C         -27.7789    0.8836   29.8828 C.2     1  UNL1        0.2532
     43 O         -27.3812    3.4090   32.3727 O.co2   1  UNL1       -0.2451
@<TRIPOS>BOND
     1     1    29    1
     2     2     7    1
     3     2     1    1
     4     3     2    2
     5     4     3    1
     6     4     5    2
     7     5     6    1
     8     6     7    2
     9     8     1    1
    10     8     9    1
    11     8    12    1
    12     9    10    1
    13    10    11    1
    14    12    11    1
    15    13    32    1
    16    14    13    1
    17    14    15    1
    18    15    18    2
    19    16    17    1
    20    16    15    1
    21    19    14    2
    22    20    21    2
    23    20    19    1
    24    21    26    1
    25    22    21    1
    26    23    22    1
    27    24    23    1
    28    24    25    1
    29    26    27    1
    30    26    13    2
    31    28    33    1
    32    29    38    1
    33    30    32    2
    34    30    35    1
    35    32    41    1
    36    33    43   ar
    37    34    30    1
    38    35    40    2
    39    36    42    2
    40    37    33   ar
    41    38    42    1
    42    39    35    1
    43    40    31    1
    44    41    31    2
    45    41    29    1
    46    42    28    1
