@<TRIPOS>MOLECULE
No_1150-gen_results/8p0m/2024-11-27-11-27-31/
 13 14 0 0 0
SMALL
GASTEIGER

@<TRIPOS>ATOM
      1 C         -28.0162   -0.8135   28.8779 C.ar    1  UNL1       -0.0039
      2 C         -28.4690   -0.7850   29.8287 C.ar    1  UNL1       -0.0003
      3 C         -27.1356    0.2359   28.5352 C.ar    1  UNL1       -0.0178
      4 C         -26.8745    1.2825   29.3982 C.ar    1  UNL1       -0.0039
      5 C         -28.3613    0.1987   30.9244 C.ar    1  UNL1       -0.0000
      6 C         -27.5277    1.2234   30.6356 C.ar    1  UNL1       -0.0003
      7 C         -26.3987    0.2949   27.2279 C.3     1  UNL1        0.0526
      8 C         -26.9022    0.7280   26.2134 C.ar    1  UNL1       -0.0178
      9 C         -28.2290    1.2592   26.1972 C.ar    1  UNL1       -0.0039
     10 C         -28.7981    1.5774   24.8830 C.ar    1  UNL1       -0.0003
     11 C         -28.0616    1.2060   23.7686 C.ar    1  UNL1       -0.0000
     12 C         -26.3521    0.3906   24.9373 C.ar    1  UNL1       -0.0039
     13 C         -26.8850    0.6591   23.7725 C.ar    1  UNL1       -0.0003
@<TRIPOS>BOND
     1     3     7    1
     2     7     8    1
     3     1     2   ar
     4     2     5   ar
     5     5     6   ar
     6     6     4   ar
     7     4     3   ar
     8     3     1   ar
     9     8     9   ar
    10     9    10   ar
    11    10    11   ar
    12    11    13   ar
    13    13    12   ar
    14    12     8   ar
