@<TRIPOS>MOLECULE
outputs/IAG933/test6/raw/output_1154_IAG933_linker_design_.xyz
 44 48 0 0 0
SMALL
GASTEIGER

@<TRIPOS>ATOM
      1 C         -24.8550   -1.0120   30.1430 C.3     1  UNL1        0.0632
      2 C         -24.9730   -2.5050   29.7880 C.2     1  UNL1       -0.0170
      3 C         -23.9060   -3.1730   29.1460 C.2     1  UNL1       -0.0039
      4 C         -23.9890   -4.5490   28.8530 C.2     1  UNL1       -0.0003
      5 C         -25.1370   -5.2800   29.2050 C.2     1  UNL1       -0.0000
      6 C         -26.2320   -4.6110   29.7840 C.2     1  UNL1       -0.0003
      7 C         -26.1550   -3.2320   30.0650 C.2     1  UNL1       -0.0039
      8 C         -25.3870   -0.6790   31.5710 C.3     1  UNL1        0.0809
      9 C         -25.1890    0.7730   32.0280 C.3     1  UNL1        0.0195
     10 C         -25.3360    0.6840   33.5440 C.3     1  UNL1        0.0203
     11 C         -24.8290   -0.7150   33.9050 C.3     1  UNL1        0.0887
     12 N         -24.7580   -1.4810   32.6460 N.3     1  UNL1       -0.2188
     13 C         -25.6880    1.6140   26.4610 C.3     1  UNL1        0.0953
     14 C         -26.2500    2.9200   26.3950 C.2     1  UNL1        0.0590
     15 C         -25.6420    4.0930   27.1230 C.2     1  UNL1        0.2628
     16 N         -25.6140    5.2520   26.4490 N.am    1  UNL1       -0.2000
     17 C         -25.0260    6.4790   26.9630 C.3     1  UNL1        0.1388
     18 O         -25.1430    3.9660   28.2430 O.2     1  UNL1       -0.2686
     19 C         -27.4380    3.0910   25.6450 C.2     1  UNL1        0.1025
     20 N         -28.0750    2.0890   25.0030 N.2     1  UNL1       -0.2118
     21 C         -27.5430    0.8490   25.0790 C.2     1  UNL1        0.2344
     22 O         -28.1930   -0.2080   24.4770 O.2     1  UNL1       -0.4585
     23 C         -29.4600    0.0050   23.8660 C.3     1  UNL1        0.2423
     24 C         -30.0650   -1.3770   23.5730 C.3     1  UNL1        0.2292
     25 O         -30.7290   -1.8780   24.7210 O.3     1  UNL1       -0.2162
     26 C         -26.3540    0.5760   25.7770 C.3     1  UNL1        0.2441
     27 F         -25.8600   -0.6810   25.7950 F       1  UNL1       -0.2265
     28 C         -29.0113   -0.4001   28.9094 C.3     1  UNL1        0.0205
     29 C         -24.4310    1.3763   26.7871 C.2     1  UNL1        0.0184
     30 N         -31.2448    0.1848   28.8078 N.3     1  UNL1       -0.2469
     31 C         -21.9055    1.3102   27.6961 C.3     1  UNL1        0.2317
     32 C         -26.5161   -0.2887   28.4622 C.2     1  UNL1       -0.0270
     33 O         -30.8385   -1.9642   29.6478 O.3     1  UNL1       -0.2050
     34 C         -29.9436    0.3179   28.0852 C.3     1  UNL1        0.0747
     35 C         -31.7906    1.5078   28.8598 C.3     1  UNL1        0.0917
     36 C         -25.1829   -0.1675   28.8498 C.2     1  UNL1        0.0123
     37 O         -22.8989    0.7901   28.4383 O.2     1  UNL1       -0.4713
     38 C         -30.5092    0.2303   30.7492 C.3     1  UNL1        0.0502
     39 C         -29.2090    0.0997   30.3214 C.3     1  UNL1        0.0058
     40 C         -31.3348   -0.6425   29.8288 C.3     1  UNL1        0.2127
     41 C         -27.7730   -0.9685   28.5652 C.3     1  UNL1        0.0272
     42 C         -23.4291    1.8757   25.9730 C.2     1  UNL1       -0.0018
     43 C         -22.1140    1.8618   26.4579 C.2     1  UNL1        0.0205
     44 C         -24.1756    0.7014   28.0029 C.2     1  UNL1        0.1314
@<TRIPOS>BOND
     1     1    36    1
     2     2     7    1
     3     2     1    1
     4     3     2    2
     5     4     3    1
     6     4     5    2
     7     5     6    1
     8     6     7    2
     9     8     1    1
    10     8     9    1
    11     8    12    1
    12     9    10    1
    13    10    11    1
    14    12    11    1
    15    13    29    1
    16    14    13    1
    17    14    15    1
    18    15    18    2
    19    16    17    1
    20    16    15    1
    21    19    14    2
    22    20    21    2
    23    20    19    1
    24    21    26    1
    25    22    21    1
    26    23    22    1
    27    24    23    1
    28    24    25    1
    29    26    27    1
    30    26    13    1
    31    28    41    1
    32    28    39    1
    33    29    44    2
    34    30    35    1
    35    30    40    1
    36    31    37    1
    37    32    41    1
    38    32    36    2
    39    34    30    1
    40    34    28    1
    41    39    38    1
    42    40    33    1
    43    40    38    1
    44    42    43    2
    45    42    29    1
    46    43    31    1
    47    44    37    1
    48    44    36    1
