@<TRIPOS>MOLECULE
No_1156-gen_results/8p0m/2024-11-27-11-27-31/
 17 18 0 0 0
SMALL
GASTEIGER

@<TRIPOS>ATOM
      1 C         -28.0162   -0.8135   28.8779 C.ar    1  UNL1        0.0066
      2 C         -27.0636   -0.1189   28.6079 C.ar    1  UNL1        0.0002
      3 C         -25.7923   -0.4302   29.0761 C.ar    1  UNL1        0.0001
      4 C         -24.5456    0.3494   28.8225 C.ar    1  UNL1        0.0030
      5 C         -23.2409    0.0217   29.3323 C.ar    1  UNL1        0.0002
      6 C         -27.8820   -1.8995   29.8633 C.ar    1  UNL1        0.0798
      7 C         -26.6526   -2.3142   30.3138 C.ar    1  UNL1        0.0066
      8 C         -25.5153   -1.5607   29.9787 C.ar    1  UNL1        0.0002
      9 C         -22.1645    0.7936   28.9524 C.ar    1  UNL1        0.0031
     10 C         -22.1241    1.7484   27.9889 C.ar    1  UNL1        0.0369
     11 C         -24.5235    1.3782   27.7946 C.ar    1  UNL1        0.0369
     12 C         -23.3387    2.0417   27.4305 C.ar    1  UNL1        0.1387
     13 C         -29.1399   -2.5681   30.2783 C.2     1  UNL1        0.3878
     14 O         -30.1665   -2.0198   30.0493 O.co2   1  UNL1       -0.2406
     15 O         -29.0175   -3.6652   30.9378 O.co2   1  UNL1       -0.2406
     16 O         -23.4436    2.9926   26.4698 O.3     1  UNL1       -0.4714
     17 C         -24.7550    3.3017   26.0598 C.3     1  UNL1        0.2525
@<TRIPOS>BOND
     1     3     4    1
     2     6    13    1
     3    13    14   ar
     4    13    15   ar
     5    12    16    1
     6    16    17    1
     7     1     2   ar
     8     2     3   ar
     9     3     8   ar
    10     8     7   ar
    11     7     6   ar
    12     6     1   ar
    13     4     5   ar
    14     5     9   ar
    15     9    10   ar
    16    10    12   ar
    17    12    11   ar
    18    11     4   ar
