@<TRIPOS>MOLECULE
outputs/IAG933/test6/raw/output_1157_IAG933_linker_design_.xyz
 42 44 0 0 0
SMALL
GASTEIGER

@<TRIPOS>ATOM
      1 C         -24.8550   -1.0120   30.1430 C.3     1  UNL1        0.0544
      2 C         -24.9730   -2.5050   29.7880 C.2     1  UNL1       -0.0198
      3 C         -23.9060   -3.1730   29.1460 C.2     1  UNL1       -0.0042
      4 C         -23.9890   -4.5490   28.8530 C.2     1  UNL1       -0.0003
      5 C         -25.1370   -5.2800   29.2050 C.2     1  UNL1       -0.0000
      6 C         -26.2320   -4.6110   29.7840 C.2     1  UNL1       -0.0003
      7 C         -26.1550   -3.2320   30.0650 C.2     1  UNL1       -0.0042
      8 C         -25.3870   -0.6790   31.5710 C.3     1  UNL1        0.0782
      9 C         -25.1890    0.7730   32.0280 C.3     1  UNL1        0.0192
     10 C         -25.3360    0.6840   33.5440 C.3     1  UNL1        0.0202
     11 C         -24.8290   -0.7150   33.9050 C.3     1  UNL1        0.0887
     12 N         -24.7580   -1.4810   32.6460 N.3     1  UNL1       -0.2191
     13 C         -25.6880    1.6140   26.4610 C.2     1  UNL1        0.0365
     14 C         -26.2500    2.9200   26.3950 C.2     1  UNL1        0.0742
     15 C         -25.6420    4.0930   27.1230 C.2     1  UNL1        0.2662
     16 N         -25.6140    5.2520   26.4490 N.am    1  UNL1       -0.1997
     17 C         -25.0260    6.4790   26.9630 C.3     1  UNL1        0.1388
     18 O         -25.1430    3.9660   28.2430 O.2     1  UNL1       -0.2683
     19 C         -27.4380    3.0910   25.6450 C.2     1  UNL1        0.1065
     20 N         -28.0750    2.0890   25.0030 N.2     1  UNL1       -0.2081
     21 C         -27.5430    0.8490   25.0790 C.2     1  UNL1        0.2530
     22 O         -28.1930   -0.2080   24.4770 O.2     1  UNL1       -0.4558
     23 C         -29.4600    0.0050   23.8660 C.3     1  UNL1        0.2426
     24 C         -30.0650   -1.3770   23.5730 C.3     1  UNL1        0.2292
     25 O         -30.7290   -1.8780   24.7210 O.3     1  UNL1       -0.2162
     26 C         -26.3540    0.5760   25.7770 C.2     1  UNL1        0.1907
     27 F         -25.8600   -0.6810   25.7950 F       1  UNL1       -0.1995
     28 C         -28.4770   -0.7821   29.6617 C.3     1  UNL1        0.0014
     29 C         -30.4984   -1.8391   29.6641 C.3     1  UNL1        0.0000
     30 C         -25.8115   -0.1991   29.2084 C.3     1  UNL1        0.0788
     31 N         -25.0487    0.4846   28.2424 N.3     1  UNL1       -0.2107
     32 C         -23.1483    1.2225   27.7833 C.2     1  UNL1        0.1071
     33 O         -21.8052    1.7218   25.7695 O.2     1  UNL1       -0.2993
     34 C         -29.7620   -0.4262   27.6289 C.3     1  UNL1        0.0000
     35 O         -22.9250    2.4621   25.2853 O.3     1  UNL1        0.0285
     36 C         -27.2823   -0.7176   28.8300 C.3     1  UNL1        0.0178
     37 C         -22.8572    0.6910   28.9575 C.1     1  UNL1        0.1011
     38 C         -24.5866    1.2994   27.4165 C.3     1  UNL1        0.1324
     39 N         -22.5952    0.1567   29.8984 N.1     1  UNL1       -0.1910
     40 C         -22.0397    1.4212   26.9972 C.2     1  UNL1        0.2310
     41 C         -30.2520    0.7351   29.7796 C.3     1  UNL1        0.0000
     42 C         -29.7117   -0.5781   29.1511 C.3     1  UNL1        0.0000
@<TRIPOS>BOND
     1     1    30    1
     2     2     7    1
     3     2     1    1
     4     3     2    2
     5     4     3    1
     6     4     5    2
     7     5     6    1
     8     6     7    2
     9     8     1    1
    10     8     9    1
    11     8    12    1
    12     9    10    1
    13    10    11    1
    14    12    11    1
    15    13    38    1
    16    14    13    1
    17    14    15    1
    18    15    18    2
    19    16    17    1
    20    16    15    1
    21    19    14    2
    22    20    21    2
    23    20    19    1
    24    21    26    1
    25    22    21    1
    26    23    22    1
    27    24    23    1
    28    24    25    1
    29    26    27    1
    30    26    13    2
    31    30    36    1
    32    31    30    1
    33    32    37    1
    34    33    40    1
    35    34    42    1
    36    35    33    1
    37    36    28    1
    38    37    39    3
    39    38    32    1
    40    38    31    1
    41    40    32    2
    42    42    28    1
    43    42    29    1
    44    42    41    1
