@<TRIPOS>MOLECULE
outputs/IAG933/test6/raw/output_1159_IAG933_linker_design_.xyz
 47 51 0 0 0
SMALL
GASTEIGER

@<TRIPOS>ATOM
      1 C         -24.8550   -1.0120   30.1430 C.3     1  UNL1        0.0992
      2 C         -24.9730   -2.5050   29.7880 C.2     1  UNL1       -0.0141
      3 C         -23.9060   -3.1730   29.1460 C.2     1  UNL1       -0.0038
      4 C         -23.9890   -4.5490   28.8530 C.2     1  UNL1       -0.0003
      5 C         -25.1370   -5.2800   29.2050 C.2     1  UNL1       -0.0000
      6 C         -26.2320   -4.6110   29.7840 C.2     1  UNL1       -0.0003
      7 C         -26.1550   -3.2320   30.0650 C.2     1  UNL1       -0.0038
      8 C         -25.3870   -0.6790   31.5710 C.3     1  UNL1        0.0839
      9 C         -25.1890    0.7730   32.0280 C.3     1  UNL1        0.0196
     10 C         -25.3360    0.6840   33.5440 C.3     1  UNL1        0.0203
     11 C         -24.8290   -0.7150   33.9050 C.3     1  UNL1        0.0887
     12 N         -24.7580   -1.4810   32.6460 N.3     1  UNL1       -0.2187
     13 C         -25.6880    1.6140   26.4610 C.3     1  UNL1        0.0863
     14 C         -26.2500    2.9200   26.3950 C.2     1  UNL1        0.0545
     15 C         -25.6420    4.0930   27.1230 C.2     1  UNL1        0.2261
     16 N         -25.6140    5.2520   26.4490 N.2     1  UNL1       -0.2355
     17 C         -25.0260    6.4790   26.9630 C.3     1  UNL1        0.1550
     18 O         -25.1430    3.9660   28.2430 O.2     1  UNL1       -0.4071
     19 C         -27.4380    3.0910   25.6450 C.2     1  UNL1        0.1023
     20 N         -28.0750    2.0890   25.0030 N.2     1  UNL1       -0.2119
     21 C         -27.5430    0.8490   25.0790 C.2     1  UNL1        0.2341
     22 O         -28.1930   -0.2080   24.4770 O.2     1  UNL1       -0.4585
     23 C         -29.4600    0.0050   23.8660 C.3     1  UNL1        0.2423
     24 C         -30.0650   -1.3770   23.5730 C.3     1  UNL1        0.2292
     25 O         -30.7290   -1.8780   24.7210 O.3     1  UNL1       -0.2162
     26 C         -26.3540    0.5760   25.7770 C.3     1  UNL1        0.2413
     27 F         -25.8600   -0.6810   25.7950 F       1  UNL1       -0.2268
     28 C         -21.5222    1.0775   27.5248 C.3     1  UNL1        0.0358
     29 C         -25.6857   -0.1452   29.2901 C.2     1  UNL1        0.1934
     30 N         -27.5887    3.4747   32.2241 N.3     1  UNL1       -0.0354
     31 C         -24.1445    1.4925   26.6291 C.3     1  UNL1        0.0832
     32 C         -25.2464    1.1666   28.6503 C.3     1  UNL1        0.2263
     33 C         -26.7360    4.3162   32.7938 C.3     1  UNL1        0.1455
     34 C         -21.3070    2.5332   27.1762 C.3     1  UNL1        0.0030
     35 C         -25.5644    4.5745   31.6471 C.3     1  UNL1        0.1330
     36 C         -24.5440    5.1443   32.4184 C.3     1  UNL1        0.0957
     37 C         -25.6348    3.4100   29.2329 C.2     1  UNL1        0.3072
     38 N         -25.0363    5.4127   33.7100 N.3     1  UNL1       -0.2687
     39 C         -26.3734    5.0492   33.7886 C.3     1  UNL1        0.0945
     40 F         -28.1624    3.6654   33.3109 F       1  UNL1       -0.1134
     41 C         -24.2211    6.1256   34.8154 C.3     1  UNL1        0.0897
     42 N         -25.7332    4.2903   30.2415 N.pl3   1  UNL1       -0.1869
     43 C         -22.7669    0.8947   28.4117 C.3     1  UNL1        0.1526
     44 N         -23.9580    1.3604   27.9931 N.3     1  UNL1       -0.2344
     45 N         -25.9966    2.1801   29.1261 N.2     1  UNL1       -0.2000
     46 O         -26.8933   -0.4253   29.1587 O.2     1  UNL1       -0.2921
     47 N         -22.4262    0.2037   29.5140 N.3     1  UNL1       -0.1149
@<TRIPOS>BOND
     1     1    29    1
     2     2     7    1
     3     2     1    1
     4     3     2    2
     5     4     3    1
     6     4     5    2
     7     5     6    1
     8     6     7    2
     9     8     1    1
    10     8     9    1
    11     8    12    1
    12     9    10    1
    13    10    11    1
    14    12    11    1
    15    13    31    1
    16    14    13    1
    17    14    15    1
    18    15    18    1
    19    16    17    1
    20    16    15    2
    21    18    37    1
    22    19    14    2
    23    20    21    2
    24    20    19    1
    25    21    26    1
    26    22    21    1
    27    23    22    1
    28    24    23    1
    29    24    25    1
    30    26    27    1
    31    26    13    1
    32    28    43    1
    33    30    40    1
    34    31    44    1
    35    32    45    1
    36    32    29    1
    37    33    30    1
    38    33    39    1
    39    34    28    1
    40    35    42    1
    41    35    36    1
    42    35    33    1
    43    36    38    1
    44    37    42    1
    45    38    39    1
    46    38    41    1
    47    43    47    1
    48    44    43    1
    49    44    32    1
    50    45    37    2
    51    46    29    2
