@<TRIPOS>MOLECULE
outputs/IAG933/test6/raw/output_1161_IAG933_linker_design_.xyz
 46 50 0 0 0
SMALL
GASTEIGER

@<TRIPOS>ATOM
      1 C         -24.8550   -1.0120   30.1430 C.3     1  UNL1        0.0438
      2 C         -24.9730   -2.5050   29.7880 C.2     1  UNL1       -0.0208
      3 C         -23.9060   -3.1730   29.1460 C.2     1  UNL1       -0.0042
      4 C         -23.9890   -4.5490   28.8530 C.2     1  UNL1       -0.0003
      5 C         -25.1370   -5.2800   29.2050 C.2     1  UNL1       -0.0000
      6 C         -26.2320   -4.6110   29.7840 C.2     1  UNL1       -0.0003
      7 C         -26.1550   -3.2320   30.0650 C.2     1  UNL1       -0.0042
      8 C         -25.3870   -0.6790   31.5710 C.3     1  UNL1        0.0812
      9 C         -25.1890    0.7730   32.0280 C.3     1  UNL1        0.0650
     10 C         -25.3360    0.6840   33.5440 C.3     1  UNL1        0.0244
     11 C         -24.8290   -0.7150   33.9050 C.3     1  UNL1        0.0888
     12 N         -24.7580   -1.4810   32.6460 N.3     1  UNL1       -0.2190
     13 C         -25.6880    1.6140   26.4610 C.3     1  UNL1        0.1287
     14 C         -26.2500    2.9200   26.3950 C.2     1  UNL1        0.0696
     15 C         -25.6420    4.0930   27.1230 C.2     1  UNL1        0.2637
     16 N         -25.6140    5.2520   26.4490 N.am    1  UNL1       -0.2000
     17 C         -25.0260    6.4790   26.9630 C.3     1  UNL1        0.1388
     18 O         -25.1430    3.9660   28.2430 O.2     1  UNL1       -0.2686
     19 C         -27.4380    3.0910   25.6450 C.2     1  UNL1        0.1035
     20 N         -28.0750    2.0890   25.0030 N.2     1  UNL1       -0.2118
     21 C         -27.5430    0.8490   25.0790 C.2     1  UNL1        0.2355
     22 O         -28.1930   -0.2080   24.4770 O.2     1  UNL1       -0.4585
     23 C         -29.4600    0.0050   23.8660 C.3     1  UNL1        0.2423
     24 C         -30.0650   -1.3770   23.5730 C.3     1  UNL1        0.2292
     25 O         -30.7290   -1.8780   24.7210 O.3     1  UNL1       -0.2162
     26 C         -26.3540    0.5760   25.7770 C.3     1  UNL1        0.2546
     27 F         -25.8600   -0.6810   25.7950 F       1  UNL1       -0.2254
     28 N         -24.2885    1.4127   26.7944 N.3     1  UNL1       -0.2618
     29 C         -26.5378    5.9473   30.8624 C.3     1  UNL1        0.0290
     30 S         -21.2241    1.7186   27.3148 S.3     1  UNL1       -0.1107
     31 C         -24.0563    0.4150   27.7627 C.3     1  UNL1        0.1165
     32 C         -24.8195    2.1482   31.3091 C.3     1  UNL1        0.2019
     33 C         -22.0573    2.0457   25.7778 C.3     1  UNL1        0.0795
     34 C         -23.4002    1.2909   25.6089 C.3     1  UNL1        0.0848
     35 C         -25.0552    5.4692   32.6394 C.3     1  UNL1        0.1661
     36 C         -22.2511    2.0879   28.6916 C.2     1  UNL1        0.0441
     37 F         -23.7197    5.5088   32.6746 F       1  UNL1       -0.2369
     38 C         -23.6610    1.4038   28.7943 C.2     1  UNL1        0.0678
     39 I         -27.3128    8.4928   34.2273 I       1  UNL1       -0.0475
     40 C         -26.6995    7.0000   33.0256 C.2     1  UNL1        0.0064
     41 N         -24.5326    1.6903   29.9139 N.pl3   1  UNL1       -0.2140
     42 C         -25.6563    3.5018   31.1527 C.3     1  UNL1        0.0544
     43 C         -25.7072    4.9798   31.5295 C.3     1  UNL1        0.0415
     44 C         -25.7551    6.2060   33.5793 C.3     1  UNL1        0.0671
     45 O         -24.0007    2.7824   32.1508 O.3     1  UNL1       -0.2036
     46 C         -27.1369    6.8879   31.7174 C.2     1  UNL1       -0.0245
@<TRIPOS>BOND
     1     2     7    1
     2     2     1    1
     3     3     2    2
     4     4     3    1
     5     4     5    2
     6     5     6    1
     7     6     7    2
     8     8     1    1
     9     8     9    1
    10     8    12    1
    11     9    32    1
    12     9    10    1
    13    10    11    1
    14    12    11    1
    15    13    14    1
    16    13    28    1
    17    14    15    1
    18    15    18    2
    19    16    17    1
    20    16    15    1
    21    19    14    2
    22    20    21    2
    23    20    19    1
    24    21    26    1
    25    22    21    1
    26    23    22    1
    27    24    23    1
    28    24    25    1
    29    26    27    1
    30    26    13    1
    31    28    34    1
    32    28    31    1
    33    29    43    1
    34    29    46    1
    35    30    36    1
    36    31    38    1
    37    32    45    1
    38    33    30    1
    39    34    33    1
    40    35    37    1
    41    35    44    1
    42    36    38    2
    43    38    41    1
    44    40    44    1
    45    40    39    1
    46    41    32    1
    47    42    32    1
    48    43    42    1
    49    43    35    1
    50    46    40    2
