@<TRIPOS>MOLECULE
outputs/IAG933/test6/raw/output_1162_IAG933_linker_design_.xyz
 41 44 0 0 0
SMALL
GASTEIGER

@<TRIPOS>ATOM
      1 C         -24.8550   -1.0120   30.1430 C.3     1  UNL1        0.0971
      2 C         -24.9730   -2.5050   29.7880 C.2     1  UNL1       -0.0141
      3 C         -23.9060   -3.1730   29.1460 C.2     1  UNL1       -0.0038
      4 C         -23.9890   -4.5490   28.8530 C.2     1  UNL1       -0.0003
      5 C         -25.1370   -5.2800   29.2050 C.2     1  UNL1       -0.0000
      6 C         -26.2320   -4.6110   29.7840 C.2     1  UNL1       -0.0003
      7 C         -26.1550   -3.2320   30.0650 C.2     1  UNL1       -0.0038
      8 C         -25.3870   -0.6790   31.5710 C.3     1  UNL1        0.0838
      9 C         -25.1890    0.7730   32.0280 C.3     1  UNL1        0.0196
     10 C         -25.3360    0.6840   33.5440 C.3     1  UNL1        0.0203
     11 C         -24.8290   -0.7150   33.9050 C.3     1  UNL1        0.0887
     12 N         -24.7580   -1.4810   32.6460 N.3     1  UNL1       -0.2187
     13 C         -25.6880    1.6140   26.4610 C.3     1  UNL1        0.0742
     14 C         -26.2500    2.9200   26.3950 C.2     1  UNL1        0.0549
     15 C         -25.6420    4.0930   27.1230 C.2     1  UNL1        0.2624
     16 N         -25.6140    5.2520   26.4490 N.am    1  UNL1       -0.2000
     17 C         -25.0260    6.4790   26.9630 C.3     1  UNL1        0.1388
     18 O         -25.1430    3.9660   28.2430 O.2     1  UNL1       -0.2687
     19 C         -27.4380    3.0910   25.6450 C.2     1  UNL1        0.1021
     20 N         -28.0750    2.0890   25.0030 N.2     1  UNL1       -0.2119
     21 C         -27.5430    0.8490   25.0790 C.2     1  UNL1        0.2341
     22 O         -28.1930   -0.2080   24.4770 O.2     1  UNL1       -0.4585
     23 C         -29.4600    0.0050   23.8660 C.3     1  UNL1        0.2423
     24 C         -30.0650   -1.3770   23.5730 C.3     1  UNL1        0.2292
     25 O         -30.7290   -1.8780   24.7210 O.3     1  UNL1       -0.2162
     26 C         -26.3540    0.5760   25.7770 C.3     1  UNL1        0.2401
     27 F         -25.8600   -0.6810   25.7950 F       1  UNL1       -0.2269
     28 C         -24.8012    1.3104   27.5315 C.3     1  UNL1        0.0564
     29 C         -25.9876    3.2328   30.6854 C.3     1  UNL1        0.0724
     30 C         -27.3049    4.0890   31.0526 C.3     1  UNL1        0.0174
     31 O         -26.8112   -0.6636   28.8509 O.2     1  UNL1       -0.2943
     32 C         -25.4123    1.2853   29.0276 C.3     1  UNL1        0.1187
     33 C         -22.9116    2.5514   25.3012 C.3     1  UNL1        0.1740
     34 C         -22.3877    0.6202   28.3557 C.3     1  UNL1        0.0321
     35 O         -22.6748    2.4282   26.7571 O.3     1  UNL1       -0.3535
     36 C         -23.3314    1.3973   27.4344 C.3     1  UNL1        0.1175
     37 C         -27.8519    2.0437   29.5677 C.3     1  UNL1        0.0724
     38 C         -28.4241    3.4182   31.6563 C.3     1  UNL1        0.0029
     39 C         -25.8002   -0.1679   29.2363 C.2     1  UNL1        0.1700
     40 C         -28.6367    2.1146   30.9009 C.3     1  UNL1        0.0174
     41 N         -26.4130    2.2141   29.7193 N.3     1  UNL1       -0.2679
@<TRIPOS>BOND
     1     1    39    1
     2     2     7    1
     3     2     1    1
     4     3     2    2
     5     4     3    1
     6     4     5    2
     7     5     6    1
     8     6     7    2
     9     8     1    1
    10     8     9    1
    11     8    12    1
    12     9    10    1
    13    10    11    1
    14    12    11    1
    15    13    28    1
    16    14    13    1
    17    14    15    1
    18    15    18    2
    19    16    17    1
    20    16    15    1
    21    19    14    2
    22    20    21    2
    23    20    19    1
    24    21    26    1
    25    22    21    1
    26    23    22    1
    27    24    23    1
    28    24    25    1
    29    26    27    1
    30    26    13    1
    31    28    36    1
    32    28    32    1
    33    29    30    1
    34    30    38    1
    35    31    39    2
    36    32    39    1
    37    32    41    1
    38    33    35    1
    39    35    36    1
    40    36    34    1
    41    37    41    1
    42    37    40    1
    43    40    38    1
    44    41    29    1
