@<TRIPOS>MOLECULE
outputs/IAG933/test6/raw/output_1163_IAG933_linker_design_.xyz
 44 47 0 0 0
SMALL
GASTEIGER

@<TRIPOS>ATOM
      1 C         -24.8550   -1.0120   30.1430 C.3     1  UNL1        0.0415
      2 C         -24.9730   -2.5050   29.7880 C.2     1  UNL1       -0.0210
      3 C         -23.9060   -3.1730   29.1460 C.2     1  UNL1       -0.0042
      4 C         -23.9890   -4.5490   28.8530 C.2     1  UNL1       -0.0003
      5 C         -25.1370   -5.2800   29.2050 C.2     1  UNL1       -0.0000
      6 C         -26.2320   -4.6110   29.7840 C.2     1  UNL1       -0.0003
      7 C         -26.1550   -3.2320   30.0650 C.2     1  UNL1       -0.0042
      8 C         -25.3870   -0.6790   31.5710 C.3     1  UNL1        0.0769
      9 C         -25.1890    0.7730   32.0280 C.3     1  UNL1        0.0192
     10 C         -25.3360    0.6840   33.5440 C.3     1  UNL1        0.0202
     11 C         -24.8290   -0.7150   33.9050 C.3     1  UNL1        0.0887
     12 N         -24.7580   -1.4810   32.6460 N.3     1  UNL1       -0.2191
     13 C         -25.6880    1.6140   26.4610 C.2     1  UNL1        0.0343
     14 C         -26.2500    2.9200   26.3950 C.2     1  UNL1        0.0762
     15 C         -25.6420    4.0930   27.1230 C.2     1  UNL1        0.2664
     16 N         -25.6140    5.2520   26.4490 N.am    1  UNL1       -0.1997
     17 C         -25.0260    6.4790   26.9630 C.3     1  UNL1        0.1388
     18 O         -25.1430    3.9660   28.2430 O.2     1  UNL1       -0.2683
     19 C         -27.4380    3.0910   25.6450 C.2     1  UNL1        0.1067
     20 N         -28.0750    2.0890   25.0030 N.2     1  UNL1       -0.2081
     21 C         -27.5430    0.8490   25.0790 C.2     1  UNL1        0.2533
     22 O         -28.1930   -0.2080   24.4770 O.2     1  UNL1       -0.4558
     23 C         -29.4600    0.0050   23.8660 C.3     1  UNL1        0.2426
     24 C         -30.0650   -1.3770   23.5730 C.3     1  UNL1        0.2292
     25 O         -30.7290   -1.8780   24.7210 O.3     1  UNL1       -0.2162
     26 C         -26.3540    0.5760   25.7770 C.2     1  UNL1        0.1927
     27 F         -25.8600   -0.6810   25.7950 F       1  UNL1       -0.1993
     28 C         -31.2274   -0.6795   31.9496 C.3     1  UNL1        0.1748
     29 C         -29.1626   -0.7049   28.9630 C.2     1  UNL1        0.2971
     30 C         -24.5388    1.3220   27.2367 C.2     1  UNL1       -0.0152
     31 C         -26.1806    0.3651   29.0623 C.3     1  UNL1        0.1744
     32 F         -22.1672   -0.4475   29.4952 F       1  UNL1       -0.2062
     33 C         -23.2598    1.7292   26.8869 C.2     1  UNL1        0.0040
     34 O         -27.0313   -0.2527   28.6340 O.3     1  UNL1       -0.2439
     35 O         -29.2706   -0.0654   27.8926 O.2     1  UNL1       -0.2683
     36 N         -27.9920   -0.8872   29.4023 N.am    1  UNL1       -0.0599
     37 O         -30.2035   -1.2338   31.1263 O.3     1  UNL1       -0.3417
     38 C         -25.0668    0.1283   29.2542 C.3     1  UNL1        0.0481
     39 C         -30.3821   -1.1292   29.7113 C.3     1  UNL1        0.2311
     40 C         -22.2653    1.2264   27.7029 C.2     1  UNL1        0.1593
     41 C         -24.5678    0.5902   28.4213 C.3     1  UNL1        0.0774
     42 F         -20.9806    1.5464   27.7010 F       1  UNL1       -0.2025
     43 C         -22.6349    0.3320   28.5903 C.2     1  UNL1        0.1483
     44 C         -22.8976    2.5055   25.6642 C.3     1  UNL1        0.0331
@<TRIPOS>BOND
     1     1    38    1
     2     2     7    1
     3     2     1    1
     4     3     2    2
     5     4     3    1
     6     4     5    2
     7     5     6    1
     8     6     7    2
     9     8     1    1
    10     8     9    1
    11     8    12    1
    12     9    10    1
    13    10    11    1
    14    12    11    1
    15    13    30    1
    16    14    13    1
    17    14    15    1
    18    15    18    2
    19    16    17    1
    20    16    15    1
    21    19    14    2
    22    20    21    2
    23    20    19    1
    24    21    26    1
    25    22    21    1
    26    23    22    1
    27    24    23    1
    28    24    25    1
    29    26    27    1
    30    26    13    2
    31    29    36    1
    32    29    39    1
    33    30    41    1
    34    33    30    2
    35    33    40    1
    36    34    31    1
    37    34    36    1
    38    35    29    2
    39    37    28    1
    40    38    31    1
    41    39    37    1
    42    40    43    2
    43    41    43    1
    44    41    38    1
    45    42    40    1
    46    43    32    1
    47    44    33    1
