@<TRIPOS>MOLECULE
outputs/IAG933/test6/raw/output_1164_IAG933_linker_design_.xyz
 43 46 0 0 0
SMALL
GASTEIGER

@<TRIPOS>ATOM
      1 C         -24.8550   -1.0120   30.1430 C.3     1  UNL1        0.0859
      2 C         -24.9730   -2.5050   29.7880 C.2     1  UNL1       -0.0170
      3 C         -23.9060   -3.1730   29.1460 C.2     1  UNL1       -0.0041
      4 C         -23.9890   -4.5490   28.8530 C.2     1  UNL1       -0.0003
      5 C         -25.1370   -5.2800   29.2050 C.2     1  UNL1       -0.0000
      6 C         -26.2320   -4.6110   29.7840 C.2     1  UNL1       -0.0003
      7 C         -26.1550   -3.2320   30.0650 C.2     1  UNL1       -0.0041
      8 C         -25.3870   -0.6790   31.5710 C.3     1  UNL1        0.0809
      9 C         -25.1890    0.7730   32.0280 C.3     1  UNL1        0.0193
     10 C         -25.3360    0.6840   33.5440 C.3     1  UNL1        0.0202
     11 C         -24.8290   -0.7150   33.9050 C.3     1  UNL1        0.0887
     12 N         -24.7580   -1.4810   32.6460 N.3     1  UNL1       -0.2190
     13 C         -25.6880    1.6140   26.4610 C.2     1  UNL1        0.0401
     14 C         -26.2500    2.9200   26.3950 C.2     1  UNL1        0.0766
     15 C         -25.6420    4.0930   27.1230 C.2     1  UNL1        0.2664
     16 N         -25.6140    5.2520   26.4490 N.am    1  UNL1       -0.1997
     17 C         -25.0260    6.4790   26.9630 C.3     1  UNL1        0.1388
     18 O         -25.1430    3.9660   28.2430 O.2     1  UNL1       -0.2683
     19 C         -27.4380    3.0910   25.6450 C.2     1  UNL1        0.1067
     20 N         -28.0750    2.0890   25.0030 N.2     1  UNL1       -0.2081
     21 C         -27.5430    0.8490   25.0790 C.2     1  UNL1        0.2533
     22 O         -28.1930   -0.2080   24.4770 O.2     1  UNL1       -0.4558
     23 C         -29.4600    0.0050   23.8660 C.3     1  UNL1        0.2426
     24 C         -30.0650   -1.3770   23.5730 C.3     1  UNL1        0.2292
     25 O         -30.7290   -1.8780   24.7210 O.3     1  UNL1       -0.2162
     26 C         -26.3540    0.5760   25.7770 C.2     1  UNL1        0.1931
     27 F         -25.8600   -0.6810   25.7950 F       1  UNL1       -0.1992
     28 N         -26.1189    1.2759   29.4229 N.3     1  UNL1       -0.1886
     29 C         -21.9543    1.1270   27.9298 C.2     1  UNL1        0.1694
     30 F         -21.1650    1.9717   25.9050 F       1  UNL1       -0.1994
     31 C         -22.9451    0.5239   28.7676 C.2     1  UNL1        0.0316
     32 C         -28.5622    2.7151   31.2139 C.3     1  UNL1        0.0015
     33 F         -20.7535    1.4839   28.3545 F       1  UNL1       -0.2017
     34 C         -24.2848    0.5583   28.2784 C.2     1  UNL1        0.0254
     35 C         -23.4289    1.4992   26.1645 C.2     1  UNL1        0.1695
     36 C         -27.4967    1.5778   29.3640 C.3     1  UNL1        0.0915
     37 C         -26.2725    3.4316   30.7019 C.3     1  UNL1        0.0015
     38 C         -25.4157    0.0346   29.1147 C.3     1  UNL1        0.2100
     39 C         -22.1102    1.5287   26.5990 C.2     1  UNL1        0.1946
     40 F         -23.5771    1.8773   24.7957 F       1  UNL1       -0.2017
     41 O         -26.3923   -0.7166   28.3992 O.3     1  UNL1       -0.2027
     42 C         -27.5883    3.0227   30.0475 C.3     1  UNL1        0.0175
     43 C         -24.5045    1.2322   26.9974 C.2     1  UNL1        0.0320
@<TRIPOS>BOND
     1     1    38    1
     2     2     7    1
     3     2     1    1
     4     3     2    2
     5     4     3    1
     6     4     5    2
     7     5     6    1
     8     6     7    2
     9     8     1    1
    10     8     9    1
    11     8    12    1
    12     9    10    1
    13    10    11    1
    14    12    11    1
    15    13    43    1
    16    14    13    1
    17    14    15    1
    18    15    18    2
    19    16    17    1
    20    16    15    1
    21    19    14    2
    22    20    21    2
    23    20    19    1
    24    21    26    1
    25    22    21    1
    26    23    22    1
    27    24    23    1
    28    24    25    1
    29    26    27    1
    30    26    13    2
    31    29    33    1
    32    29    31    1
    33    30    39    1
    34    34    31    2
    35    34    38    1
    36    35    39    1
    37    35    43    2
    38    36    28    1
    39    36    42    1
    40    38    41    1
    41    38    28    1
    42    39    29    2
    43    40    35    1
    44    42    37    1
    45    42    32    1
    46    43    34    1
