@<TRIPOS>MOLECULE
No_117-gen_results/8p0m/2024-11-27-11-27-31/
 21 23 0 0 0
SMALL
GASTEIGER

@<TRIPOS>ATOM
      1 F         -28.0727   -1.2542   28.5316 F       1  UNL1       -0.2042
      2 C         -27.0607   -0.6291   28.8721 C.ar    1  UNL1        0.1403
      3 C         -26.1528   -1.1557   29.4537 C.ar    1  UNL1        0.0296
      4 C         -24.8777   -0.5788   29.8639 C.ar    1  UNL1        0.0024
      5 C         -23.7561   -1.0707   30.5500 C.ar    1  UNL1        0.0001
      6 C         -22.6892   -0.2730   30.9473 C.ar    1  UNL1        0.0000
      7 C         -22.6177    0.9915   30.4197 C.ar    1  UNL1        0.0000
      8 C         -24.5396    0.8221   29.5225 C.ar    1  UNL1        0.0046
      9 C         -23.4983    1.5101   29.7663 C.ar    1  UNL1        0.0001
     10 C         -27.0138    0.8041   28.4937 C.ar    1  UNL1        0.0342
     11 C         -25.7562    1.4972   28.7712 C.ar    1  UNL1        0.0573
     12 C         -25.6149    2.9070   28.3465 C.2     1  UNL1        0.2652
     13 N         -26.5091    3.5227   27.5943 N.am    1  UNL1       -0.1968
     14 C         -27.3422    4.3971   28.0734 C.3     1  UNL1        0.1418
     15 C         -27.1345    4.8549   29.3323 C.ar    1  UNL1       -0.0006
     16 C         -27.9760    5.2011   30.2185 C.ar    1  UNL1       -0.0026
     17 C         -27.6756    5.6868   31.5633 C.ar    1  UNL1       -0.0003
     18 C         -26.3151    5.8125   31.9379 C.ar    1  UNL1       -0.0000
     19 C         -25.3385    5.4807   30.9833 C.ar    1  UNL1       -0.0003
     20 C         -25.7137    5.0213   29.7128 C.ar    1  UNL1       -0.0026
     21 O         -24.6304    3.5435   28.7389 O.2     1  UNL1       -0.2684
@<TRIPOS>BOND
     1     1     2    1
     2    11    12    1
     3    12    13   am
     4    13    14    1
     5    14    15    1
     6    12    21    2
     7     4     5   ar
     8     5     6   ar
     9     6     7   ar
    10     7     9   ar
    11     9     8   ar
    12    15    16   ar
    13    16    17   ar
    14    17    18   ar
    15    18    19   ar
    16    19    20   ar
    17    20    15   ar
    18     2     3   ar
    19     3     4   ar
    20     4     8   ar
    21     8    11   ar
    22    11    10   ar
    23    10     2   ar
