@<TRIPOS>MOLECULE
No_1170-gen_results/8p0m/2024-11-27-11-27-31/
 11 11 0 0 0
SMALL
GASTEIGER

@<TRIPOS>ATOM
      1 C         -28.0162   -0.8135   28.8779 C.ar    1  UNL1        0.0114
      2 C         -28.4690   -0.7850   29.8287 C.ar    1  UNL1        0.0577
      3 C         -26.5042   -0.7777   28.8766 C.ar    1  UNL1        0.0021
      4 C         -25.8103   -0.8531   30.1028 C.ar    1  UNL1        0.0153
      5 C         -27.9906   -0.8916   31.2257 C.ar    1  UNL1        0.0114
      6 C         -26.6042   -0.8676   31.2652 C.ar    1  UNL1        0.0021
      7 CL        -30.2937   -0.8377   29.8355 Cl      1  UNL1       -0.0822
      8 C         -24.3700   -0.8208   30.1393 C.2     1  UNL1        0.0805
      9 N         -23.6963   -1.4876   30.7366 N.2     1  UNL1       -0.1527
     10 C         -23.6660    0.2121   29.3244 C.3     1  UNL1        0.0477
     11 C         -22.2998    0.0332   29.3804 C.3     1  UNL1        0.0068
@<TRIPOS>BOND
     1     2     7    1
     2     4     8    1
     3     8     9    2
     4     8    10    1
     5    10    11    1
     6     1     2   ar
     7     2     5   ar
     8     5     6   ar
     9     6     4   ar
    10     4     3   ar
    11     3     1   ar
