@<TRIPOS>MOLECULE
outputs/IAG933/test6/raw/output_1171_IAG933_linker_design_.xyz
 44 47 0 0 0
SMALL
GASTEIGER

@<TRIPOS>ATOM
      1 C         -24.8550   -1.0120   30.1430 C.3     1  UNL1        0.0625
      2 C         -24.9730   -2.5050   29.7880 C.2     1  UNL1       -0.0191
      3 C         -23.9060   -3.1730   29.1460 C.2     1  UNL1       -0.0042
      4 C         -23.9890   -4.5490   28.8530 C.2     1  UNL1       -0.0003
      5 C         -25.1370   -5.2800   29.2050 C.2     1  UNL1       -0.0000
      6 C         -26.2320   -4.6110   29.7840 C.2     1  UNL1       -0.0003
      7 C         -26.1550   -3.2320   30.0650 C.2     1  UNL1       -0.0042
      8 C         -25.3870   -0.6790   31.5710 C.3     1  UNL1        0.0788
      9 C         -25.1890    0.7730   32.0280 C.3     1  UNL1        0.0193
     10 C         -25.3360    0.6840   33.5440 C.3     1  UNL1        0.0202
     11 C         -24.8290   -0.7150   33.9050 C.3     1  UNL1        0.0887
     12 N         -24.7580   -1.4810   32.6460 N.3     1  UNL1       -0.2191
     13 C         -25.6880    1.6140   26.4610 C.2     1  UNL1        0.0393
     14 C         -26.2500    2.9200   26.3950 C.2     1  UNL1        0.0766
     15 C         -25.6420    4.0930   27.1230 C.2     1  UNL1        0.2664
     16 N         -25.6140    5.2520   26.4490 N.am    1  UNL1       -0.1997
     17 C         -25.0260    6.4790   26.9630 C.3     1  UNL1        0.1388
     18 O         -25.1430    3.9660   28.2430 O.2     1  UNL1       -0.2683
     19 C         -27.4380    3.0910   25.6450 C.2     1  UNL1        0.1067
     20 N         -28.0750    2.0890   25.0030 N.2     1  UNL1       -0.2081
     21 C         -27.5430    0.8490   25.0790 C.2     1  UNL1        0.2533
     22 O         -28.1930   -0.2080   24.4770 O.2     1  UNL1       -0.4558
     23 C         -29.4600    0.0050   23.8660 C.3     1  UNL1        0.2426
     24 C         -30.0650   -1.3770   23.5730 C.3     1  UNL1        0.2292
     25 O         -30.7290   -1.8780   24.7210 O.3     1  UNL1       -0.2162
     26 C         -26.3540    0.5760   25.7770 C.2     1  UNL1        0.1931
     27 F         -25.8600   -0.6810   25.7950 F       1  UNL1       -0.1992
     28 O         -27.7386    1.1895   31.0336 O.2     1  UNL1       -0.2696
     29 N         -21.8901    1.6654   27.1272 N.2     1  UNL1       -0.2482
     30 C         -25.3907   -0.0308   29.0981 C.3     1  UNL1        0.1230
     31 C         -30.4807    1.5103   27.2095 C.3     1  UNL1        0.0830
     32 C         -31.8809   -0.3913   28.5647 C.3     1  UNL1        0.0830
     33 C         -28.0278    0.7011   30.0359 C.2     1  UNL1        0.2835
     34 N         -27.0302    0.4124   29.0525 N.am    1  UNL1       -0.1994
     35 C         -24.3670    1.3511   27.1125 C.2     1  UNL1        0.0193
     36 C         -24.1770    0.4624   28.2513 C.2     1  UNL1        0.0005
     37 C         -22.9312    0.1350   28.6458 C.2     1  UNL1        0.0121
     38 S         -30.2933    0.2175   28.1866 S.3     1  UNL1       -0.0344
     39 C         -20.3938    0.3839   28.6105 C.3     1  UNL1        0.0521
     40 O         -30.3934    1.9112   29.9902 O.3     1  UNL1       -0.2003
     41 C         -23.1222    1.9470   26.6555 C.2     1  UNL1        0.0982
     42 C         -21.7689    0.7729   28.1172 C.2     1  UNL1        0.0591
     43 O         -29.4134   -0.6918   27.6511 O.3     1  UNL1       -0.1683
     44 C         -29.6575    0.7007   29.7398 C.3     1  UNL1        0.2853
@<TRIPOS>BOND
     1     1    30    1
     2     2     7    1
     3     2     1    1
     4     3     2    2
     5     4     3    1
     6     4     5    2
     7     5     6    1
     8     6     7    2
     9     8     1    1
    10     8     9    1
    11     8    12    1
    12     9    10    1
    13    10    11    1
    14    12    11    1
    15    13    35    1
    16    14    13    1
    17    14    15    1
    18    15    18    2
    19    16    17    1
    20    16    15    1
    21    19    14    2
    22    20    21    2
    23    20    19    1
    24    21    26    1
    25    22    21    1
    26    23    22    1
    27    24    23    1
    28    24    25    1
    29    26    27    1
    30    26    13    2
    31    29    42    1
    32    30    34    1
    33    31    38    1
    34    33    28    2
    35    34    33    1
    36    35    36    2
    37    36    37    1
    38    36    30    1
    39    38    32    1
    40    38    44    1
    41    41    35    1
    42    41    29    2
    43    42    39    1
    44    42    37    2
    45    43    38    1
    46    44    40    1
    47    44    33    1
