@<TRIPOS>MOLECULE
outputs/IAG933/test6/raw/output_1172_IAG933_linker_design_.xyz
 42 46 0 0 0
SMALL
GASTEIGER

@<TRIPOS>ATOM
      1 C         -24.8550   -1.0120   30.1430 C.3     1  UNL1        0.1148
      2 C         -24.9730   -2.5050   29.7880 C.2     1  UNL1       -0.0125
      3 C         -23.9060   -3.1730   29.1460 C.2     1  UNL1       -0.0038
      4 C         -23.9890   -4.5490   28.8530 C.2     1  UNL1       -0.0003
      5 C         -25.1370   -5.2800   29.2050 C.2     1  UNL1       -0.0000
      6 C         -26.2320   -4.6110   29.7840 C.2     1  UNL1       -0.0003
      7 C         -26.1550   -3.2320   30.0650 C.2     1  UNL1       -0.0038
      8 C         -25.3870   -0.6790   31.5710 C.3     1  UNL1        0.0855
      9 C         -25.1890    0.7730   32.0280 C.3     1  UNL1        0.0197
     10 C         -25.3360    0.6840   33.5440 C.3     1  UNL1        0.0203
     11 C         -24.8290   -0.7150   33.9050 C.3     1  UNL1        0.0887
     12 N         -24.7580   -1.4810   32.6460 N.3     1  UNL1       -0.2186
     13 C         -25.6880    1.6140   26.4610 C.3     1  UNL1        0.0795
     14 C         -26.2500    2.9200   26.3950 C.2     1  UNL1        0.0551
     15 C         -25.6420    4.0930   27.1230 C.2     1  UNL1        0.2624
     16 N         -25.6140    5.2520   26.4490 N.am    1  UNL1       -0.2000
     17 C         -25.0260    6.4790   26.9630 C.3     1  UNL1        0.1388
     18 O         -25.1430    3.9660   28.2430 O.2     1  UNL1       -0.2687
     19 C         -27.4380    3.0910   25.6450 C.2     1  UNL1        0.1021
     20 N         -28.0750    2.0890   25.0030 N.2     1  UNL1       -0.2119
     21 C         -27.5430    0.8490   25.0790 C.2     1  UNL1        0.2341
     22 O         -28.1930   -0.2080   24.4770 O.2     1  UNL1       -0.4585
     23 C         -29.4600    0.0050   23.8660 C.3     1  UNL1        0.2423
     24 C         -30.0650   -1.3770   23.5730 C.3     1  UNL1        0.2292
     25 O         -30.7290   -1.8780   24.7210 O.3     1  UNL1       -0.2162
     26 C         -26.3540    0.5760   25.7770 C.3     1  UNL1        0.2403
     27 F         -25.8600   -0.6810   25.7950 F       1  UNL1       -0.2269
     28 C         -22.0498    1.1683   29.1493 C.3     1  UNL1        0.1145
     29 O         -23.0922    3.1891   25.3815 O.3     1  UNL1       -0.1598
     30 F         -20.1441    1.7618   28.0405 F       1  UNL1       -0.2038
     31 C         -23.3505    1.8613   25.7773 C.3     1  UNL1        0.3614
     32 C         -21.5603    1.5498   27.9338 C.3     1  UNL1        0.2859
     33 C         -21.9653   -0.6969   29.6470 C.3     1  UNL1        0.1770
     34 O         -20.8985   -0.7562   28.5866 O.3     1  UNL1       -0.2211
     35 C         -24.0054    0.7812   27.6883 C.3     1  UNL1        0.1018
     36 O         -22.0142    1.7584   26.7344 O.3     1  UNL1       -0.2781
     37 C         -25.2951   -0.1827   29.0501 C.2     1  UNL1        0.2307
     38 N         -24.0535    0.3469   28.8272 N.am    1  UNL1       -0.2778
     39 C         -22.9993    0.2944   29.8089 C.3     1  UNL1        0.1135
     40 F         -23.6984    1.4849   24.4071 F       1  UNL1       -0.1765
     41 O         -26.2611    0.4214   28.7287 O.2     1  UNL1       -0.2745
     42 C         -24.2468    1.3506   26.7025 C.3     1  UNL1        0.1153
@<TRIPOS>BOND
     1     1    37    1
     2     2     7    1
     3     2     1    1
     4     3     2    2
     5     4     3    1
     6     4     5    2
     7     5     6    1
     8     6     7    2
     9     8     1    1
    10     8     9    1
    11     8    12    1
    12     9    10    1
    13    10    11    1
    14    12    11    1
    15    13    14    1
    16    13    42    1
    17    14    15    1
    18    15    18    2
    19    16    17    1
    20    16    15    1
    21    19    14    2
    22    20    21    2
    23    20    19    1
    24    21    26    1
    25    22    21    1
    26    23    22    1
    27    24    23    1
    28    24    25    1
    29    26    27    1
    30    26    13    1
    31    28    33    1
    32    28    39    1
    33    29    31    1
    34    31    42    1
    35    31    36    1
    36    32    30    1
    37    32    28    1
    38    33    39    1
    39    34    33    1
    40    35    38    1
    41    36    32    1
    42    38    37   am
    43    38    39    1
    44    40    31    1
    45    41    37    2
    46    42    35    1
