@<TRIPOS>MOLECULE
No_1173-gen_results/8p0m/2024-11-27-11-27-31/
 14 16 0 0 0
SMALL
GASTEIGER

@<TRIPOS>ATOM
      1 C         -28.0162   -0.8135   28.8779 C.ar    1  UNL1        0.0000
      2 C         -27.0636   -0.1190   28.6079 C.ar    1  UNL1        0.0000
      3 C         -25.7923   -0.4302   29.0761 C.ar    1  UNL1        0.0000
      4 C         -24.5456    0.3494   28.8225 C.ar    1  UNL1        0.0000
      5 C         -23.2409    0.0217   29.3323 C.ar    1  UNL1        0.0000
      6 C         -22.1362    0.7695   29.0059 C.ar    1  UNL1        0.0000
      7 C         -29.3516   -0.3508   28.7011 C.ar    1  UNL1        0.0000
      8 C         -29.5331    0.7200   27.8442 C.ar    1  UNL1        0.0000
      9 C         -28.4236    1.4160   27.3797 C.ar    1  UNL1        0.0000
     10 C         -27.1068    1.0841   27.8138 C.ar    1  UNL1        0.0000
     11 C         -22.1758    1.8225   28.1042 C.ar    1  UNL1        0.0000
     12 C         -23.4377    2.1664   27.5560 C.ar    1  UNL1        0.0000
     13 C         -24.5671    1.4361   27.8572 C.ar    1  UNL1        0.0000
     14 C         -25.9442    1.8081   27.4113 C.ar    1  UNL1        0.0000
@<TRIPOS>BOND
     1     1     2   ar
     2    10     9   ar
     3     9     8   ar
     4     8     7   ar
     5     7     1   ar
     6     2     3   ar
     7     3     4   ar
     8    13    14   ar
     9    14    10   ar
    10    10     2   ar
    11     4     5   ar
    12     5     6   ar
    13     6    11   ar
    14    11    12   ar
    15    12    13   ar
    16    13     4   ar
