@<TRIPOS>MOLECULE
No_1174-gen_results/8p0m/2024-11-27-11-27-31/
 19 20 0 0 0
SMALL
GASTEIGER

@<TRIPOS>ATOM
      1 C         -28.0162   -0.8135   28.8779 C.ar    1  UNL1        0.0046
      2 C         -28.4690   -0.7850   29.8287 C.ar    1  UNL1        0.0001
      3 C         -27.0871    0.2903   28.6377 C.ar    1  UNL1        0.0554
      4 C         -26.8317    1.2487   29.5869 C.ar    1  UNL1        0.0046
      5 C         -28.3914    0.0801   31.0065 C.ar    1  UNL1        0.0000
      6 C         -27.4940    1.1521   30.7841 C.ar    1  UNL1        0.0001
      7 C         -26.3172    0.3994   27.3653 C.2     1  UNL1        0.2690
      8 N         -25.0720    0.1569   27.4305 N.am    1  UNL1       -0.1755
      9 O         -26.9084    0.2743   26.2366 O.2     1  UNL1       -0.2680
     10 C         -24.2556    0.1708   28.6575 C.ar    1  UNL1        0.0776
     11 C         -23.1725    1.1635   28.5195 C.ar    1  UNL1        0.0867
     12 C         -22.1427    1.0763   29.5170 C.ar    1  UNL1        0.0052
     13 C         -24.3036   -0.6073   29.7118 C.ar    1  UNL1        0.0166
     14 C         -23.3159   -0.6459   30.7068 C.ar    1  UNL1        0.0013
     15 C         -22.2523    0.2927   30.5987 C.ar    1  UNL1        0.0000
     16 C         -22.9591    2.0545   27.4130 C.3     1  UNL1        0.4198
     17 F         -22.0861    1.8014   26.6931 F       1  UNL1       -0.1658
     18 F         -22.8939    3.3754   27.9093 F       1  UNL1       -0.1658
     19 F         -24.0767    2.1314   26.5964 F       1  UNL1       -0.1658
@<TRIPOS>BOND
     1     3     7    1
     2     7     8   am
     3     7     9    2
     4     8    10    1
     5    11    16    1
     6    16    17    1
     7    16    18    1
     8    16    19    1
     9     1     2   ar
    10     2     5   ar
    11     5     6   ar
    12     6     4   ar
    13     4     3   ar
    14     3     1   ar
    15    10    11   ar
    16    11    12   ar
    17    12    15   ar
    18    15    14   ar
    19    14    13   ar
    20    13    10   ar
