@<TRIPOS>MOLECULE
outputs/IAG933/test6/raw/output_1175_IAG933_linker_design_.xyz
 46 50 0 0 0
SMALL
GASTEIGER

@<TRIPOS>ATOM
      1 C         -24.8550   -1.0120   30.1430 C.3     1  UNL1        0.1501
      2 C         -24.9730   -2.5050   29.7880 C.2     1  UNL1       -0.0094
      3 C         -23.9060   -3.1730   29.1460 C.2     1  UNL1       -0.0037
      4 C         -23.9890   -4.5490   28.8530 C.2     1  UNL1       -0.0003
      5 C         -25.1370   -5.2800   29.2050 C.2     1  UNL1       -0.0000
      6 C         -26.2320   -4.6110   29.7840 C.2     1  UNL1       -0.0003
      7 C         -26.1550   -3.2320   30.0650 C.2     1  UNL1       -0.0037
      8 C         -25.3870   -0.6790   31.5710 C.3     1  UNL1        0.0887
      9 C         -25.1890    0.7730   32.0280 C.3     1  UNL1        0.0198
     10 C         -25.3360    0.6840   33.5440 C.3     1  UNL1        0.0203
     11 C         -24.8290   -0.7150   33.9050 C.3     1  UNL1        0.0887
     12 N         -24.7580   -1.4810   32.6460 N.3     1  UNL1       -0.2185
     13 C         -25.6880    1.6140   26.4610 C.2     1  UNL1        0.0798
     14 C         -26.2500    2.9200   26.3950 C.2     1  UNL1        0.0781
     15 C         -25.6420    4.0930   27.1230 C.2     1  UNL1        0.2270
     16 N         -25.6140    5.2520   26.4490 N.2     1  UNL1       -0.2353
     17 C         -25.0260    6.4790   26.9630 C.3     1  UNL1        0.1550
     18 O         -25.1430    3.9660   28.2430 O.2     1  UNL1       -0.4367
     19 C         -27.4380    3.0910   25.6450 C.2     1  UNL1        0.1069
     20 N         -28.0750    2.0890   25.0030 N.2     1  UNL1       -0.2081
     21 C         -27.5430    0.8490   25.0790 C.2     1  UNL1        0.2534
     22 O         -28.1930   -0.2080   24.4770 O.2     1  UNL1       -0.4558
     23 C         -29.4600    0.0050   23.8660 C.3     1  UNL1        0.2426
     24 C         -30.0650   -1.3770   23.5730 C.3     1  UNL1        0.2292
     25 O         -30.7290   -1.8780   24.7210 O.3     1  UNL1       -0.2162
     26 C         -26.3540    0.5760   25.7770 C.2     1  UNL1        0.1964
     27 F         -25.8600   -0.6810   25.7950 F       1  UNL1       -0.1991
     28 N         -22.7862   -0.0084   29.5714 N.2     1  UNL1       -0.0322
     29 F         -28.3226    5.5837   32.3090 F       1  UNL1       -0.2062
     30 N         -24.8380    0.5465   28.2928 N.2     1  UNL1       -0.0396
     31 C         -24.1771   -0.1455   29.2763 C.2     1  UNL1        0.3561
     32 C         -27.1309    3.7573   29.5308 C.2     1  UNL1        0.0186
     33 C         -23.3166    1.7053   26.8406 C.3     1  UNL1        0.2753
     34 C         -24.9917    4.4972   31.5750 C.2     1  UNL1        0.0348
     35 O         -23.1884    2.4530   25.7540 O.3     1  UNL1       -0.1664
     36 C         -25.7322    3.7851   29.3615 C.2     1  UNL1        0.1434
     37 C         -27.8382    4.2768   30.5217 C.3     1  UNL1        0.0880
     38 F         -20.9579    1.7891   27.1136 F       1  UNL1       -0.2017
     39 C         -21.9768    0.7551   28.7494 C.2     1  UNL1        0.2636
     40 F         -25.7716    6.1428   32.8780 F       1  UNL1       -0.2021
     41 F         -22.0702    2.1079   25.0946 F       1  UNL1       -0.0461
     42 C         -24.8956    3.8506   30.4773 C.2     1  UNL1        0.0396
     43 C         -27.3583    4.9674   31.5806 C.2     1  UNL1        0.1493
     44 C         -26.0634    5.1625   31.9864 C.2     1  UNL1        0.1637
     45 C         -24.5129    1.2762   27.2567 C.2     1  UNL1        0.2102
     46 C         -22.1509    1.4602   27.5681 C.2     1  UNL1        0.2027
@<TRIPOS>BOND
     1     1    31    1
     2     2     7    1
     3     2     1    1
     4     3     2    2
     5     4     3    1
     6     4     5    2
     7     5     6    1
     8     6     7    2
     9     8     1    1
    10     8     9    1
    11     8    12    1
    12     9    10    1
    13    10    11    1
    14    12    11    1
    15    13    45    1
    16    14    13    1
    17    14    15    1
    18    15    18    1
    19    16    17    1
    20    16    15    2
    21    18    36    1
    22    19    14    2
    23    20    21    2
    24    20    19    1
    25    21    26    1
    26    22    21    1
    27    23    22    1
    28    24    23    1
    29    24    25    1
    30    26    27    1
    31    26    13    2
    32    30    31    1
    33    31    28    2
    34    32    37    1
    35    33    35    1
    36    33    45    1
    37    33    46    1
    38    34    44    1
    39    36    32    2
    40    36    42    1
    41    37    43    1
    42    38    46    1
    43    39    28    1
    44    41    35    1
    45    42    34    2
    46    43    44    2
    47    43    29    1
    48    44    40    1
    49    45    30    2
    50    46    39    2
