@<TRIPOS>MOLECULE
No_1177-gen_results/8p0m/2024-11-27-11-27-31/
 10 10 0 0 0
SMALL
GASTEIGER

@<TRIPOS>ATOM
      1 C         -28.0162   -0.8135   28.8779 C.3     1  UNL1        0.1386
      2 C         -27.0636   -0.1189   28.6079 C.ar    1  UNL1       -0.0007
      3 C         -25.7923   -0.4302   29.0761 C.ar    1  UNL1       -0.0026
      4 C         -24.5456    0.3494   28.8225 C.ar    1  UNL1       -0.0003
      5 C         -24.6586    1.4196   27.8878 C.ar    1  UNL1       -0.0000
      6 C         -25.9471    1.6811   27.3792 C.ar    1  UNL1       -0.0003
      7 C         -27.0439    0.9739   27.6871 C.ar    1  UNL1       -0.0026
      8 N         -28.6643   -0.5274   30.1017 N.pl3   1  UNL1       -0.2315
      9 C         -29.6646   -0.3963   30.4406 C.2     1  UNL1        0.0805
     10 C         -30.0840   -0.1469   31.8179 C.2     1  UNL1        0.0188
@<TRIPOS>BOND
     1     1     2    1
     2     1     8    1
     3     8     9    1
     4     9    10    2
     5     2     3   ar
     6     3     4   ar
     7     4     5   ar
     8     5     6   ar
     9     6     7   ar
    10     7     2   ar
