@<TRIPOS>MOLECULE
No_1178-gen_results/8p0m/2024-11-27-11-27-31/
 11 11 0 0 0
SMALL
GASTEIGER

@<TRIPOS>ATOM
      1 C         -28.0162   -0.8135   28.8779 C.ar    1  UNL1        0.0111
      2 C         -27.0636   -0.1190   28.6079 C.ar    1  UNL1       -0.0017
      3 C         -25.7923   -0.4302   29.0761 C.ar    1  UNL1       -0.0006
      4 C         -25.5756   -1.5654   29.9363 C.ar    1  UNL1       -0.0017
      5 C         -26.7354   -2.3004   30.2173 C.ar    1  UNL1        0.0111
      6 C         -27.9184   -1.9537   29.7629 C.ar    1  UNL1        0.0577
      7 CL        -29.3585   -2.7341   30.1521 Cl      1  UNL1       -0.0822
      8 C         -24.6534    0.5009   28.7373 C.3     1  UNL1        0.1386
      9 N         -24.4607    0.9539   27.5794 N.pl3   1  UNL1       -0.2315
     10 C         -24.1746    2.0753   27.2551 C.2     1  UNL1        0.0805
     11 C         -24.3888    2.5820   25.9325 C.2     1  UNL1        0.0188
@<TRIPOS>BOND
     1     6     7    1
     2     3     8    1
     3     8     9    1
     4     9    10    1
     5    10    11    2
     6     1     2   ar
     7     2     3   ar
     8     3     4   ar
     9     4     5   ar
    10     5     6   ar
    11     6     1   ar
