@<TRIPOS>MOLECULE
outputs/IAG933/test6/raw/output_1179_IAG933_linker_design_.xyz
 44 48 0 0 0
SMALL
GASTEIGER

@<TRIPOS>ATOM
      1 C         -24.8550   -1.0120   30.1430 C.3     1  UNL1        0.0981
      2 C         -24.9730   -2.5050   29.7880 C.2     1  UNL1       -0.0139
      3 C         -23.9060   -3.1730   29.1460 C.2     1  UNL1       -0.0038
      4 C         -23.9890   -4.5490   28.8530 C.2     1  UNL1       -0.0003
      5 C         -25.1370   -5.2800   29.2050 C.2     1  UNL1       -0.0000
      6 C         -26.2320   -4.6110   29.7840 C.2     1  UNL1       -0.0003
      7 C         -26.1550   -3.2320   30.0650 C.2     1  UNL1       -0.0038
      8 C         -25.3870   -0.6790   31.5710 C.3     1  UNL1        0.0840
      9 C         -25.1890    0.7730   32.0280 C.3     1  UNL1        0.0196
     10 C         -25.3360    0.6840   33.5440 C.3     1  UNL1        0.0203
     11 C         -24.8290   -0.7150   33.9050 C.3     1  UNL1        0.0887
     12 N         -24.7580   -1.4810   32.6460 N.3     1  UNL1       -0.2187
     13 C         -25.6880    1.6140   26.4610 C.2     1  UNL1        0.0408
     14 C         -26.2500    2.9200   26.3950 C.2     1  UNL1        0.0766
     15 C         -25.6420    4.0930   27.1230 C.2     1  UNL1        0.2664
     16 N         -25.6140    5.2520   26.4490 N.am    1  UNL1       -0.1997
     17 C         -25.0260    6.4790   26.9630 C.3     1  UNL1        0.1388
     18 O         -25.1430    3.9660   28.2430 O.2     1  UNL1       -0.2683
     19 C         -27.4380    3.0910   25.6450 C.2     1  UNL1        0.1067
     20 N         -28.0750    2.0890   25.0030 N.2     1  UNL1       -0.2081
     21 C         -27.5430    0.8490   25.0790 C.2     1  UNL1        0.2533
     22 O         -28.1930   -0.2080   24.4770 O.2     1  UNL1       -0.4558
     23 C         -29.4600    0.0050   23.8660 C.3     1  UNL1        0.2426
     24 C         -30.0650   -1.3770   23.5730 C.3     1  UNL1        0.2292
     25 O         -30.7290   -1.8780   24.7210 O.3     1  UNL1       -0.2162
     26 C         -26.3540    0.5760   25.7770 C.2     1  UNL1        0.1931
     27 F         -25.8600   -0.6810   25.7950 F       1  UNL1       -0.1992
     28 C         -25.2162   -0.0089   29.1395 C.2     1  UNL1        0.1551
     29 C         -21.7995    1.6005   27.0720 C.3     1  UNL1        0.0734
     30 C         -30.0624   -0.7552   28.1560 C.2     1  UNL1        0.0415
     31 C         -28.9336   -0.2572   28.7792 C.2     1  UNL1        0.0026
     32 C         -31.4707    0.6898   29.5578 C.2     1  UNL1        0.0169
     33 C         -21.9511    0.9716   28.4830 C.3     1  UNL1        0.2102
     34 O         -23.0286    0.0278   28.4827 O.2     1  UNL1       -0.4724
     35 C         -30.2589    1.3013   30.0549 C.2     1  UNL1       -0.0018
     36 O         -26.6088    0.2592   28.9705 O.2     1  UNL1       -0.4715
     37 C         -32.9749    0.9292   30.1022 C.3     1  UNL1        0.0344
     38 C         -24.3546    1.3454   27.0346 C.2     1  UNL1        0.0351
     39 C         -24.3216    0.5856   28.2087 C.2     1  UNL1        0.1681
     40 C         -28.9235    0.8913   29.5628 C.2     1  UNL1        0.0210
     41 C         -23.1425    1.8661   26.4500 C.2     1  UNL1       -0.0191
     42 O         -32.4125   -0.7477   27.7509 O.2     1  UNL1       -0.2869
     43 C         -31.2858   -0.2312   28.4617 C.2     1  UNL1        0.1917
     44 C         -27.4265    1.3847   29.5432 C.3     1  UNL1        0.2317
@<TRIPOS>BOND
     1     1    28    1
     2     2     7    1
     3     2     1    1
     4     3     2    2
     5     4     3    1
     6     4     5    2
     7     5     6    1
     8     6     7    2
     9     8     1    1
    10     8     9    1
    11     8    12    1
    12     9    10    1
    13    10    11    1
    14    12    11    1
    15    13    38    1
    16    14    13    1
    17    14    15    1
    18    15    18    2
    19    16    17    1
    20    16    15    1
    21    19    14    2
    22    20    21    2
    23    20    19    1
    24    21    26    1
    25    22    21    1
    26    23    22    1
    27    24    23    1
    28    24    25    1
    29    26    27    1
    30    26    13    2
    31    29    33    1
    32    30    43    2
    33    30    31    1
    34    31    40    2
    35    32    35    2
    36    32    37    1
    37    34    33    1
    38    36    28    1
    39    36    44    1
    40    38    39    1
    41    39    34    1
    42    39    28    2
    43    40    35    1
    44    41    38    2
    45    41    29    1
    46    42    43    1
    47    43    32    1
    48    44    40    1
