@<TRIPOS>MOLECULE
No_118-gen_results/8p0m/2024-11-27-11-27-31/
 18 21 0 0 0
SMALL
GASTEIGER

@<TRIPOS>ATOM
      1 C         -28.0162   -0.8135   28.8779 C.3     1  UNL1        0.0323
      2 C         -27.0636   -0.1190   28.6079 C.ar    1  UNL1       -0.0085
      3 C         -26.9716    0.7139   27.5060 C.ar    1  UNL1        0.0435
      4 C         -25.8205    1.4909   27.1160 C.ar    1  UNL1       -0.0088
      5 C         -24.8579    1.3421   27.6008 C.ar    1  UNL1       -0.0031
      6 C         -24.6224    0.5295   28.8144 C.ar    1  UNL1       -0.0006
      7 C         -25.7344   -0.1811   29.1908 C.ar    1  UNL1       -0.0030
      8 C         -29.2135   -0.0949   29.3828 C.3     1  UNL1        0.0323
      9 C         -29.5388    0.9294   28.9079 C.ar    1  UNL1       -0.0082
     10 C         -30.7118    1.5828   29.4374 C.ar    1  UNL1       -0.0030
     11 C         -31.1135    2.8952   29.0209 C.ar    1  UNL1       -0.0002
     12 C         -30.3413    3.4703   27.9779 C.ar    1  UNL1        0.0013
     13 C         -29.2647    2.8751   27.4199 C.ar    1  UNL1        0.0145
     14 C         -28.8242    1.6267   27.9133 C.ar    1  UNL1        0.0475
     15 N         -27.7073    1.1685   27.3474 N.pl3   1  UNL1       -0.2876
     16 C         -27.7941    1.2885   25.8798 C.3     1  UNL1        0.0959
     17 C         -26.6193    1.2940   25.2525 C.3     1  UNL1        0.0265
     18 C         -25.7338    1.8204   25.7096 C.3     1  UNL1        0.0294
@<TRIPOS>BOND
     1     1     8    1
     2     3    15    1
     3    14    15    1
     4    15    16    1
     5     4    18    1
     6    17    18    1
     7     1     2    1
     8     8     9    1
     9    17    16    1
    10     2     3   ar
    11     3     4   ar
    12     4     5   ar
    13     5     6   ar
    14     6     7   ar
    15     7     2   ar
    16     9    10   ar
    17    10    11   ar
    18    11    12   ar
    19    12    13   ar
    20    13    14   ar
    21    14     9   ar
