@<TRIPOS>MOLECULE
No_1180-gen_results/8p0m/2024-11-27-11-27-31/
 14 15 0 0 0
SMALL
GASTEIGER

@<TRIPOS>ATOM
      1 C         -28.0162   -0.8135   28.8779 C.3     1  UNL1        0.3410
      2 C         -27.0636   -0.1190   28.6079 C.ar    1  UNL1        0.0436
      3 C         -26.9716    0.7139   27.5060 C.ar    1  UNL1        0.0013
      4 C         -25.8205    1.4909   27.1160 C.ar    1  UNL1        0.0060
      5 C         -24.6562    1.4242   27.9180 C.ar    1  UNL1        0.0579
      6 C         -24.7114    0.5419   29.0507 C.ar    1  UNL1        0.0046
      7 C         -25.8042   -0.2058   29.3881 C.ar    1  UNL1        0.0013
      8 F         -28.9449   -0.7145   28.1169 F       1  UNL1       -0.1933
      9 F         -28.4736   -0.5530   30.2034 F       1  UNL1       -0.1933
     10 C         -23.4635    2.1527   27.6264 C.ar    1  UNL1        0.2792
     11 N         -23.4436    3.1069   26.8455 N.ar    1  UNL1       -0.2063
     12 O         -22.3728    1.9742   28.3498 O.3     1  UNL1       -0.2652
     13 C         -24.2276    3.1839   25.6458 C.ar    1  UNL1        0.1022
     14 C         -25.8714    2.3143   26.0152 C.ar    1  UNL1        0.0209
@<TRIPOS>BOND
     1     1     8    1
     2     1     9    1
     3    10    12    1
     4     1     2    1
     5     2     3   ar
     6     3     4   ar
     7     5     6   ar
     8     6     7   ar
     9     7     2   ar
    10     4     5   ar
    11     5    10   ar
    12    10    11   ar
    13    11    13   ar
    14    13    14   ar
    15    14     4   ar
