@<TRIPOS>MOLECULE
No_1182-gen_results/8p0m/2024-11-27-11-27-31/
 15 15 0 0 0
SMALL
GASTEIGER

@<TRIPOS>ATOM
      1 C         -28.0162   -0.8135   28.8779 C.3     1  UNL1        0.0723
      2 C         -28.4690   -0.7850   29.8287 C.3     1  UNL1        0.2551
      3 C         -27.0871    0.2903   28.6377 C.ar    1  UNL1       -0.0189
      4 C         -26.9102    0.8486   27.4199 C.ar    1  UNL1       -0.0040
      5 F         -28.5427   -0.0189   30.6168 F       1  UNL1       -0.2258
      6 C         -29.3192   -2.0937   30.1468 C.2     1  UNL1        0.3430
      7 O         -30.3896   -1.9753   29.7758 O.2     1  UNL1       -0.2561
      8 C         -26.1257    1.4860   27.0255 C.ar    1  UNL1        0.0045
      9 C         -24.9676    1.9799   27.8497 C.ar    1  UNL1        0.0593
     10 C         -24.9722    1.4621   29.1312 C.ar    1  UNL1        0.0045
     11 C         -25.9704    0.5602   29.5352 C.ar    1  UNL1       -0.0040
     12 F         -28.8140   -3.1109   30.7534 F       1  UNL1       -0.1606
     13 C         -23.9242    2.9083   27.4004 C.2     1  UNL1        0.2968
     14 N         -23.9086    3.2004   26.0792 N.2     1  UNL1       -0.1025
     15 O         -22.9039    3.1294   28.0567 O.2     1  UNL1       -0.2636
@<TRIPOS>BOND
     1     1     2    1
     2     1     3    1
     3     2     5    1
     4     2     6    1
     5     6     7    2
     6     6    12    1
     7     9    13    1
     8    13    14    2
     9    13    15    1
    10     3     4   ar
    11     4     8   ar
    12     8     9   ar
    13     9    10   ar
    14    10    11   ar
    15    11     3   ar
