@<TRIPOS>MOLECULE
outputs/IAG933/test6/raw/output_1184_IAG933_linker_design_.xyz
 46 50 0 0 0
SMALL
GASTEIGER

@<TRIPOS>ATOM
      1 C         -24.8550   -1.0120   30.1430 C.3     1  UNL1        0.0973
      2 C         -24.9730   -2.5050   29.7880 C.2     1  UNL1       -0.0064
      3 C         -23.9060   -3.1730   29.1460 C.2     1  UNL1       -0.0029
      4 C         -23.9890   -4.5490   28.8530 C.2     1  UNL1       -0.0003
      5 C         -25.1370   -5.2800   29.2050 C.2     1  UNL1       -0.0000
      6 C         -26.2320   -4.6110   29.7840 C.2     1  UNL1       -0.0003
      7 C         -26.1550   -3.2320   30.0650 C.2     1  UNL1       -0.0029
      8 C         -25.3870   -0.6790   31.5710 C.3     1  UNL1        0.0916
      9 C         -25.1890    0.7730   32.0280 C.3     1  UNL1        0.0206
     10 C         -25.3360    0.6840   33.5440 C.3     1  UNL1        0.0203
     11 C         -24.8290   -0.7150   33.9050 C.3     1  UNL1        0.0888
     12 N         -24.7580   -1.4810   32.6460 N.3     1  UNL1       -0.2178
     13 C         -25.6880    1.6140   26.4610 C.3     1  UNL1        0.0885
     14 C         -26.2500    2.9200   26.3950 C.2     1  UNL1        0.0562
     15 C         -25.6420    4.0930   27.1230 C.2     1  UNL1        0.2625
     16 N         -25.6140    5.2520   26.4490 N.am    1  UNL1       -0.2000
     17 C         -25.0260    6.4790   26.9630 C.3     1  UNL1        0.1388
     18 O         -25.1430    3.9660   28.2430 O.2     1  UNL1       -0.2687
     19 C         -27.4380    3.0910   25.6450 C.2     1  UNL1        0.1022
     20 N         -28.0750    2.0890   25.0030 N.2     1  UNL1       -0.2119
     21 C         -27.5430    0.8490   25.0790 C.2     1  UNL1        0.2341
     22 O         -28.1930   -0.2080   24.4770 O.2     1  UNL1       -0.4585
     23 C         -29.4600    0.0050   23.8660 C.3     1  UNL1        0.2423
     24 C         -30.0650   -1.3770   23.5730 C.3     1  UNL1        0.2292
     25 O         -30.7290   -1.8780   24.7210 O.3     1  UNL1       -0.2162
     26 C         -26.3540    0.5760   25.7770 C.3     1  UNL1        0.2414
     27 F         -25.8600   -0.6810   25.7950 F       1  UNL1       -0.2268
     28 C         -28.9646    0.5647   28.9600 C.3     1  UNL1        0.0812
     29 C         -26.0018    0.3978   28.7269 C.3     1  UNL1        0.1484
     30 C         -29.2949    0.8426   30.4231 C.3     1  UNL1        0.0438
     31 O         -31.9927    0.4092   28.0539 O.3     1  UNL1       -0.2204
     32 C         -28.6967    3.2694   29.9660 C.2     1  UNL1       -0.0042
     33 C         -24.9773    1.0678   27.7392 C.3     1  UNL1        0.1075
     34 C         -23.5524    1.1329   26.9536 C.3     1  UNL1        0.1317
     35 N         -24.8499   -0.0089   28.9287 N.3     1  UNL1       -0.2529
     36 C         -29.6844   -0.5207   28.1723 C.3     1  UNL1        0.0533
     37 C         -21.3417    1.6597   27.5227 C.3     1  UNL1        0.1741
     38 C         -28.8141    2.5372   32.2554 C.2     1  UNL1       -0.0042
     39 C         -30.8827   -0.0969   27.2940 C.3     1  UNL1        0.1836
     40 N         -27.4396   -0.0182   28.9421 N.3     1  UNL1       -0.2030
     41 C         -28.9280    2.2405   30.8852 C.2     1  UNL1       -0.0208
     42 C         -23.2258    2.0434   25.6280 C.3     1  UNL1        0.0336
     43 C         -28.1835    4.8114   31.7623 C.2     1  UNL1       -0.0000
     44 O         -22.7379    1.7868   27.8963 O.3     1  UNL1       -0.3521
     45 C         -28.4392    3.8052   32.7036 C.2     1  UNL1       -0.0003
     46 C         -28.3161    4.5424   30.3965 C.2     1  UNL1       -0.0003
@<TRIPOS>BOND
     1     1     2    1
     2     2     7    1
     3     3     2    2
     4     4     3    1
     5     4     5    2
     6     5     6    1
     7     6     7    2
     8     8     1    1
     9     8     9    1
    10     8    12    1
    11     9    10    1
    12    10    11    1
    13    12    11    1
    14    13    14    1
    15    13    33    1
    16    14    15    1
    17    15    18    2
    18    16    17    1
    19    16    15    1
    20    19    14    2
    21    20    21    2
    22    20    19    1
    23    21    26    1
    24    22    21    1
    25    23    22    1
    26    24    23    1
    27    24    25    1
    28    26    27    1
    29    26    13    1
    30    28    36    1
    31    28    30    1
    32    29    35    1
    33    29    40    1
    34    30    41    1
    35    32    46    2
    36    32    41    1
    37    33    34    1
    38    33    29    1
    39    33    35    1
    40    34    42    1
    41    34    44    1
    42    35     1    1
    43    37    44    1
    44    38    45    1
    45    39    31    1
    46    39    36    1
    47    40    28    1
    48    41    38    2
    49    43    45    2
    50    46    43    1
