@<TRIPOS>MOLECULE
No_1185-gen_results/8p0m/2024-11-27-11-27-31/
 35 38 0 0 0
SMALL
GASTEIGER

@<TRIPOS>ATOM
      1 C         -28.0162   -0.8135   28.8779 C.ar    1  UNL1        0.0103
      2 C         -28.4690   -0.7850   29.8287 C.ar    1  UNL1        0.0758
      3 C         -28.1960    0.3478   28.0550 C.ar    1  UNL1        0.0718
      4 C         -29.0191    1.3501   28.3782 C.ar    1  UNL1        0.0104
      5 C         -29.4107    0.1803   30.3782 C.ar    1  UNL1        0.0130
      6 C         -29.6059    1.2495   29.6193 C.ar    1  UNL1        0.0799
      7 C         -27.4478    0.3799   26.7122 C.3     1  UNL1        0.4186
      8 F         -27.1440    1.7401   26.5541 F       1  UNL1       -0.1659
      9 F         -28.1665    0.0360   25.6887 F       1  UNL1       -0.1659
     10 F         -26.2319   -0.2114   26.7450 F       1  UNL1       -0.1659
     11 C         -30.5475    2.3242   30.0595 C.2     1  UNL1        0.3877
     12 O         -30.1795    3.1939   30.7907 O.co2   1  UNL1       -0.2406
     13 O         -31.7122    2.2873   29.4882 O.co2   1  UNL1       -0.2406
     14 C         -28.2522   -2.0730   30.8193 C.2     1  UNL1        0.3415
     15 O         -28.0001   -2.0399   31.8743 O.2     1  UNL1       -0.2449
     16 O         -28.2990   -3.2889   30.1158 O.3     1  UNL1       -0.4404
     17 C         -28.7307   -4.3063   30.6905 C.3     1  UNL1        0.2351
     18 C         -29.9163   -4.9330   30.0055 C.ar    1  UNL1        0.0174
     19 C         -31.0809   -4.4474   30.5437 C.ar    1  UNL1       -0.0210
     20 C         -32.1275   -4.6879   29.7642 C.ar    1  UNL1       -0.0096
     21 C         -32.0250   -5.5645   28.7745 C.ar    1  UNL1       -0.0249
     22 C         -30.8094   -5.9593   28.1937 C.ar    1  UNL1       -0.0048
     23 C         -29.6927   -5.6599   28.9646 C.ar    1  UNL1       -0.0013
     24 C         -33.5273   -4.3061   30.2262 C.3     1  UNL1        0.1409
     25 CL        -34.6984   -3.8890   29.6425 Cl      1  UNL1       -0.1037
     26 C         -33.5527   -4.2964   31.7992 C.ar    1  UNL1        0.0743
     27 N         -34.5180   -4.3879   32.3442 N.ar    1  UNL1       -0.2469
     28 C         -34.5971   -4.5992   33.6521 C.ar    1  UNL1        0.0985
     29 C         -33.4244   -4.6068   34.3584 C.ar    1  UNL1        0.0203
     30 C         -32.1859   -4.4571   33.7142 C.ar    1  UNL1       -0.0011
     31 C         -32.2330   -4.3146   32.3671 C.ar    1  UNL1       -0.0027
     32 C         -31.0323   -4.7392   31.6902 C.3     1  UNL1        0.0534
     33 C         -33.1920   -5.7180   27.8193 C.3     1  UNL1        0.0261
     34 C         -33.1487   -5.0393   26.6316 C.3     1  UNL1        0.0047
     35 C         -33.7399   -3.8806   26.4715 C.3     1  UNL1        0.0004
@<TRIPOS>BOND
     1     3     7    1
     2     7     8    1
     3     7     9    1
     4     7    10    1
     5     6    11    1
     6    11    12   ar
     7    11    13   ar
     8     2    14    1
     9    14    15    2
    10    14    16    1
    11    16    17    1
    12    17    18    1
    13    20    24    1
    14    24    25    1
    15    24    26    1
    16    19    32    1
    17    31    32    1
    18    21    33    1
    19    33    34    1
    20    34    35    1
    21    18    19   ar
    22    19    20   ar
    23    20    21   ar
    24    21    22   ar
    25    22    23   ar
    26    23    18   ar
    27     1     2   ar
    28     2     5   ar
    29     5     6   ar
    30     6     4   ar
    31     4     3   ar
    32     3     1   ar
    33    26    27   ar
    34    27    28   ar
    35    28    29   ar
    36    29    30   ar
    37    30    31   ar
    38    31    26   ar
