@<TRIPOS>MOLECULE
outputs/IAG933/test6/raw/output_1186_IAG933_linker_design_.xyz
 43 47 0 0 0
SMALL
GASTEIGER

@<TRIPOS>ATOM
      1 C         -24.8550   -1.0120   30.1430 C.3     1  UNL1        0.0979
      2 C         -24.9730   -2.5050   29.7880 C.2     1  UNL1       -0.0064
      3 C         -23.9060   -3.1730   29.1460 C.2     1  UNL1       -0.0029
      4 C         -23.9890   -4.5490   28.8530 C.2     1  UNL1       -0.0003
      5 C         -25.1370   -5.2800   29.2050 C.2     1  UNL1       -0.0000
      6 C         -26.2320   -4.6110   29.7840 C.2     1  UNL1       -0.0003
      7 C         -26.1550   -3.2320   30.0650 C.2     1  UNL1       -0.0029
      8 C         -25.3870   -0.6790   31.5710 C.3     1  UNL1        0.0916
      9 C         -25.1890    0.7730   32.0280 C.3     1  UNL1        0.0206
     10 C         -25.3360    0.6840   33.5440 C.3     1  UNL1        0.0203
     11 C         -24.8290   -0.7150   33.9050 C.3     1  UNL1        0.0888
     12 N         -24.7580   -1.4810   32.6460 N.3     1  UNL1       -0.2178
     13 C         -25.6880    1.6140   26.4610 C.2     1  UNL1        0.0711
     14 C         -26.2500    2.9200   26.3950 C.2     1  UNL1        0.0695
     15 C         -25.6420    4.0930   27.1230 C.2     1  UNL1        0.2637
     16 N         -25.6140    5.2520   26.4490 N.am    1  UNL1       -0.2000
     17 C         -25.0260    6.4790   26.9630 C.3     1  UNL1        0.1388
     18 O         -25.1430    3.9660   28.2430 O.2     1  UNL1       -0.2686
     19 C         -27.4380    3.0910   25.6450 C.3     1  UNL1        0.1604
     20 N         -28.0750    2.0890   25.0030 N.2     1  UNL1       -0.2340
     21 C         -27.5430    0.8490   25.0790 C.2     1  UNL1        0.2355
     22 O         -28.1930   -0.2080   24.4770 O.2     1  UNL1       -0.4585
     23 C         -29.4600    0.0050   23.8660 C.3     1  UNL1        0.2423
     24 C         -30.0650   -1.3770   23.5730 C.3     1  UNL1        0.2292
     25 O         -30.7290   -1.8780   24.7210 O.3     1  UNL1       -0.2162
     26 C         -26.3540    0.5760   25.7770 C.3     1  UNL1        0.2707
     27 F         -25.8600   -0.6810   25.7950 F       1  UNL1       -0.2210
     28 C         -27.1431    2.9743   31.1102 C.3     1  UNL1        0.2425
     29 O         -21.2377    0.9820   28.4442 O.3     1  UNL1       -0.2188
     30 C         -23.5559    0.7396   26.9931 C.3     1  UNL1        0.1722
     31 C         -26.9876    1.1700   29.2812 C.2     1  UNL1        0.2615
     32 C         -29.0247    2.9202   29.5461 C.3     1  UNL1        0.0984
     33 O         -27.9885    3.0175   32.2351 O.3     1  UNL1       -0.3342
     34 N         -27.7039    2.3844   29.9159 N.am    1  UNL1       -0.2516
     35 C         -25.4436    1.1490   28.8170 C.3     1  UNL1        0.2142
     36 C         -29.9130    3.2976   30.7750 C.3     1  UNL1        0.0537
     37 N         -24.7999    1.4738   27.4505 N.pl3   1  UNL1       -0.2770
     38 C         -23.4228   -0.2405   28.2178 C.3     1  UNL1        0.1266
     39 O         -27.5346    0.0557   29.1791 O.2     1  UNL1       -0.2715
     40 CL        -22.4966    1.8126   26.0114 Cl      1  UNL1       -0.0912
     41 C         -22.3289    0.3582   29.1875 C.3     1  UNL1        0.2010
     42 C         -29.2372    3.7715   32.1249 C.3     1  UNL1        0.1460
     43 N         -24.8650   -0.2111   28.8862 N.3     1  UNL1       -0.2433
@<TRIPOS>BOND
     1     1     2    1
     2     2     7    1
     3     3     2    2
     4     4     3    1
     5     4     5    2
     6     5     6    1
     7     6     7    2
     8     8     1    1
     9     8     9    1
    10     8    12    1
    11     9    10    1
    12    10    11    1
    13    12    11    1
    14    13    37    1
    15    14    13    2
    16    14    15    1
    17    15    18    2
    18    16    17    1
    19    16    15    1
    20    19    14    1
    21    20    21    2
    22    20    19    1
    23    21    26    1
    24    22    21    1
    25    23    22    1
    26    24    23    1
    27    24    25    1
    28    26    27    1
    29    26    13    1
    30    28    33    1
    31    29    41    1
    32    30    40    1
    33    30    37    1
    34    30    38    1
    35    31    34   am
    36    32    34    1
    37    32    36    1
    38    34    28    1
    39    35    43    1
    40    35    31    1
    41    36    42    1
    42    37    35    1
    43    38    43    1
    44    38    41    1
    45    39    31    2
    46    42    33    1
    47    43     1    1
