@<TRIPOS>MOLECULE
outputs/IAG933/test6/raw/output_1189_IAG933_linker_design_.xyz
 47 51 0 0 0
SMALL
GASTEIGER

@<TRIPOS>ATOM
      1 C         -24.8550   -1.0120   30.1430 C.3     1  UNL1        0.0583
      2 C         -24.9730   -2.5050   29.7880 C.2     1  UNL1       -0.0195
      3 C         -23.9060   -3.1730   29.1460 C.2     1  UNL1       -0.0042
      4 C         -23.9890   -4.5490   28.8530 C.2     1  UNL1       -0.0003
      5 C         -25.1370   -5.2800   29.2050 C.2     1  UNL1       -0.0000
      6 C         -26.2320   -4.6110   29.7840 C.2     1  UNL1       -0.0003
      7 C         -26.1550   -3.2320   30.0650 C.2     1  UNL1       -0.0042
      8 C         -25.3870   -0.6790   31.5710 C.3     1  UNL1        0.0785
      9 C         -25.1890    0.7730   32.0280 C.3     1  UNL1        0.0192
     10 C         -25.3360    0.6840   33.5440 C.3     1  UNL1        0.0202
     11 C         -24.8290   -0.7150   33.9050 C.3     1  UNL1        0.0887
     12 N         -24.7580   -1.4810   32.6460 N.3     1  UNL1       -0.2191
     13 C         -25.6880    1.6140   26.4610 C.2     1  UNL1        0.0408
     14 C         -26.2500    2.9200   26.3950 C.2     1  UNL1        0.0766
     15 C         -25.6420    4.0930   27.1230 C.2     1  UNL1        0.2664
     16 N         -25.6140    5.2520   26.4490 N.am    1  UNL1       -0.1997
     17 C         -25.0260    6.4790   26.9630 C.3     1  UNL1        0.1388
     18 O         -25.1430    3.9660   28.2430 O.2     1  UNL1       -0.2683
     19 C         -27.4380    3.0910   25.6450 C.2     1  UNL1        0.1067
     20 N         -28.0750    2.0890   25.0030 N.2     1  UNL1       -0.2081
     21 C         -27.5430    0.8490   25.0790 C.2     1  UNL1        0.2533
     22 O         -28.1930   -0.2080   24.4770 O.2     1  UNL1       -0.4558
     23 C         -29.4600    0.0050   23.8660 C.3     1  UNL1        0.2426
     24 C         -30.0650   -1.3770   23.5730 C.3     1  UNL1        0.2292
     25 O         -30.7290   -1.8780   24.7210 O.3     1  UNL1       -0.2162
     26 C         -26.3540    0.5760   25.7770 C.2     1  UNL1        0.1931
     27 F         -25.8600   -0.6810   25.7950 F       1  UNL1       -0.1992
     28 C         -31.8341   -0.1007   30.0837 C.2     1  UNL1       -0.0210
     29 O         -23.0063    2.6632   25.7978 O.2     1  UNL1       -0.2844
     30 C         -24.1880    0.4950   28.2961 C.2     1  UNL1        0.0114
     31 N         -29.5544   -0.0144   30.2910 N.pl3   1  UNL1       -0.2988
     32 C         -27.5978   -0.1189   28.9375 C.3     1  UNL1        0.1104
     33 N         -26.2843    0.5101   28.8593 N.3     1  UNL1       -0.2131
     34 C         -30.7219    0.6211   30.3890 C.3     1  UNL1        0.1137
     35 C         -25.1123   -0.0714   29.0933 C.3     1  UNL1        0.0992
     36 C         -23.2304    1.8113   26.7272 C.2     1  UNL1        0.2211
     37 C         -22.3234    1.2998   27.5951 C.2     1  UNL1        0.1904
     38 O         -30.1666   -3.2754   29.4496 O.2     1  UNL1       -0.2852
     39 C         -31.7099   -1.4798   29.9098 C.2     1  UNL1        0.0365
     40 O         -22.2138    0.0491   29.7061 O.3     1  UNL1       -0.2111
     41 C         -29.3837   -1.3208   30.2520 C.2     1  UNL1        0.1042
     42 F         -20.9900    1.8329   27.6980 F       1  UNL1       -0.2025
     43 C         -33.0915    0.6270   29.6919 C.3     1  UNL1        0.0282
     44 C         -24.4700    1.2844   27.1109 C.2     1  UNL1        0.0397
     45 C         -30.4482   -2.0877   29.8667 C.2     1  UNL1        0.2096
     46 C         -28.4127    0.7378   30.0219 C.3     1  UNL1        0.1100
     47 C         -22.8215    0.5404   28.6086 C.3     1  UNL1        0.2244
@<TRIPOS>BOND
     1     1    35    1
     2     2     7    1
     3     2     1    1
     4     3     2    2
     5     4     3    1
     6     4     5    2
     7     5     6    1
     8     6     7    2
     9     8     1    1
    10     8     9    1
    11     8    12    1
    12     9    10    1
    13    10    11    1
    14    12    11    1
    15    13    44    1
    16    14    13    1
    17    14    15    1
    18    15    18    2
    19    16    17    1
    20    16    15    1
    21    19    14    2
    22    20    21    2
    23    20    19    1
    24    21    26    1
    25    22    21    1
    26    23    22    1
    27    24    23    1
    28    24    25    1
    29    26    27    1
    30    26    13    2
    31    28    34    1
    32    29    36    1
    33    30    47    1
    34    30    35    1
    35    31    34    1
    36    32    46    1
    37    33    32    1
    38    35    33    1
    39    36    44    1
    40    36    37    2
    41    37    42    1
    42    37    47    1
    43    38    45    1
    44    39    28    2
    45    41    31    1
    46    43    28    1
    47    44    30    2
    48    45    39    1
    49    45    41    2
    50    46    31    1
    51    47    40    1
