@<TRIPOS>MOLECULE
No_119-gen_results/8p0m/2024-11-27-11-27-31/
 21 22 0 0 0
SMALL
GASTEIGER

@<TRIPOS>ATOM
      1 C         -28.0162   -0.8135   28.8779 C.ar    1  UNL1       -0.0065
      2 C         -28.4690   -0.7850   29.8287 C.ar    1  UNL1       -0.0010
      3 C         -26.5042   -0.7777   28.8766 C.ar    1  UNL1       -0.0180
      4 C         -25.6540   -0.6597   27.7191 C.3     1  UNL1        0.0526
      5 C         -27.9180   -0.9374   31.1824 C.ar    1  UNL1       -0.0026
      6 C         -26.5423   -0.9399   31.2606 C.ar    1  UNL1       -0.0006
      7 C         -25.7832   -0.8935   30.1201 C.ar    1  UNL1       -0.0040
      8 C         -25.2204    0.6866   27.3939 C.ar    1  UNL1       -0.0178
      9 C         -25.3029    1.0787   26.0731 C.ar    1  UNL1       -0.0039
     10 C         -24.7297    2.3383   25.6867 C.ar    1  UNL1       -0.0003
     11 C         -24.0919    3.1193   26.6980 C.ar    1  UNL1       -0.0000
     12 C         -24.4906    1.5258   28.2612 C.ar    1  UNL1       -0.0039
     13 C         -23.9466    2.6799   27.9003 C.ar    1  UNL1       -0.0003
     14 C         -30.0189   -0.7199   29.6557 C.3     1  UNL1        0.1385
     15 N         -30.6300    0.3871   30.0697 N.pl3   1  UNL1       -0.2318
     16 C         -30.2569    1.1779   30.6677 C.2     1  UNL1        0.0762
     17 C         -29.4273    1.3898   31.3410 C.2     1  UNL1       -0.0041
     18 C         -29.3074    2.6814   32.1452 C.3     1  UNL1        0.0530
     19 C         -28.2168    2.9781   33.0317 C.2     1  UNL1       -0.0259
     20 C         -27.1553    2.0429   33.1299 C.2     1  UNL1       -0.0300
     21 C         -27.1962    0.9506   32.3412 C.3     1  UNL1        0.0304
@<TRIPOS>BOND
     1     3     4    1
     2     4     8    1
     3     2    14    1
     4    14    15    1
     5    15    16    1
     6    16    17    2
     7    17    18    1
     8    18    19    1
     9    19    20    2
    10    20    21    1
    11     1     2   ar
    12     2     5   ar
    13     5     6   ar
    14     6     7   ar
    15     7     3   ar
    16     3     1   ar
    17     8     9   ar
    18     9    10   ar
    19    10    11   ar
    20    11    13   ar
    21    13    12   ar
    22    12     8   ar
