@<TRIPOS>MOLECULE
No_1190-gen_results/8p0m/2024-11-27-11-27-31/
 35 38 0 0 0
SMALL
GASTEIGER

@<TRIPOS>ATOM
      1 C         -28.0162   -0.8135   28.8779 C.ar    1  UNL1        0.0376
      2 C         -27.0636   -0.1189   28.6079 C.ar    1  UNL1        0.0071
      3 C         -25.7923   -0.4302   29.0761 C.ar    1  UNL1        0.0046
      4 C         -25.5756   -1.5654   29.9363 C.ar    1  UNL1        0.0033
      5 C         -26.7354   -2.3004   30.2173 C.ar    1  UNL1        0.0376
      6 C         -27.9184   -1.9537   29.7629 C.ar    1  UNL1        0.1490
      7 C         -27.1057    1.1023   27.7593 C.ar    1  UNL1        0.0715
      8 C         -26.1219    1.4820   27.0232 C.ar    1  UNL1        0.0041
      9 C         -24.7142    1.1299   27.4889 C.ar    1  UNL1        0.0088
     10 C         -24.5718    0.0966   28.4066 C.ar    1  UNL1        0.0556
     11 C         -23.5476    1.7679   26.9015 C.2     1  UNL1        0.0556
     12 C         -23.4844    2.5317   25.8074 C.2     1  UNL1        0.0047
     13 C         -22.3003    1.5421   27.6678 C.2     1  UNL1        0.2716
     14 N         -22.2079    1.0009   28.7982 N.am    1  UNL1       -0.1371
     15 C         -23.3001    0.1399   29.1595 C.2     1  UNL1        0.2716
     16 O         -29.0991   -2.5386   30.1090 O.3     1  UNL1       -0.4166
     17 C         -30.1647   -1.8407   30.5500 C.2     1  UNL1        0.4226
     18 C         -31.3088   -2.1823   29.9068 C.2     1  UNL1        0.4193
     19 O         -32.2745   -2.0691   30.3002 O.2     1  UNL1       -0.2375
     20 O         -31.2260   -2.7446   28.7546 O.3     1  UNL1       -0.4249
     21 O         -30.0411   -1.0531   31.5069 O.2     1  UNL1       -0.2371
     22 C         -28.4160    1.7461   27.5669 C.3     1  UNL1        0.4186
     23 F         -29.0395    1.9561   28.5424 F       1  UNL1       -0.1659
     24 F         -28.2451    2.9252   26.9617 F       1  UNL1       -0.1659
     25 F         -29.1662    0.9414   26.6946 F       1  UNL1       -0.1659
     26 O         -23.0979   -0.5936   30.1996 O.2     1  UNL1       -0.2679
     27 O         -21.1899    2.0918   27.2351 O.2     1  UNL1       -0.2679
     28 C         -32.3115   -2.9012   27.8753 C.3     1  UNL1        0.3268
     29 C         -32.2227   -4.1903   27.2910 C.2     1  UNL1        0.3659
     30 O         -32.8182   -4.3328   26.2261 O.3     1  UNL1       -0.4406
     31 O         -31.5646   -5.1618   27.7273 O.2     1  UNL1       -0.2455
     32 C         -32.2441   -1.8036   26.8238 C.2     1  UNL1        0.2235
     33 C         -32.4901   -1.8321   25.7041 C.2     1  UNL1        0.0626
     34 C         -32.7621   -3.2627   25.1721 C.3     1  UNL1        0.2380
     35 O         -32.0221   -0.4793   27.3514 O.2     1  UNL1       -0.2871
@<TRIPOS>BOND
     1     9    11    1
     2    11    12    2
     3    11    13    1
     4    13    14   am
     5    10    15    1
     6    14    15   am
     7     6    16    1
     8    16    17    1
     9    17    18    1
    10    18    19    2
    11    18    20    1
    12    17    21    2
    13     7    22    1
    14    22    23    1
    15    22    24    1
    16    22    25    1
    17    15    26    2
    18    13    27    2
    19    20    28    1
    20    28    29    1
    21    29    30    1
    22    29    31    2
    23    28    32    1
    24    32    33    2
    25    30    34    1
    26    33    34    1
    27    32    35    1
    28     1     2   ar
    29     3     4   ar
    30     4     5   ar
    31     5     6   ar
    32     6     1   ar
    33     2     3   ar
    34     3    10   ar
    35    10     9   ar
    36     9     8   ar
    37     8     7   ar
    38     7     2   ar
