@<TRIPOS>MOLECULE
No_1193-gen_results/8p0m/2024-11-27-11-27-31/
 17 18 0 0 0
SMALL
GASTEIGER

@<TRIPOS>ATOM
      1 C         -28.0162   -0.8135   28.8779 C.3     1  UNL1        0.1198
      2 C         -27.0636   -0.1190   28.6079 C.ar    1  UNL1       -0.0023
      3 C         -27.0010    0.6913   27.4910 C.ar    1  UNL1       -0.0024
      4 C         -25.8548    1.4825   27.0830 C.ar    1  UNL1        0.0063
      5 C         -24.6901    1.4526   27.8807 C.ar    1  UNL1        0.0798
      6 C         -24.7379    0.6010   29.0416 C.ar    1  UNL1        0.0063
      7 C         -25.8234   -0.1688   29.3887 C.ar    1  UNL1       -0.0024
      8 N         -29.2075   -0.1514   29.0660 N.pl3   1  UNL1       -0.2777
      9 C         -29.7474    0.5548   28.4314 C.2     1  UNL1        0.0627
     10 C         -30.7406    0.2931   27.6888 C.2     1  UNL1        0.0385
     11 C         -31.4731   -0.8672   27.9388 C.3     1  UNL1        0.2323
     12 C         -30.0928   -0.7685   30.1771 C.3     1  UNL1        0.2420
     13 N         -32.5839   -1.2432   27.3371 N.3     1  UNL1       -0.0952
     14 O         -31.2852   -1.5691   29.0547 O.3     1  UNL1       -0.3144
     15 C         -23.7926    2.4751   27.7421 C.2     1  UNL1        0.3878
     16 O         -23.0036    2.6903   28.6675 O.co2   1  UNL1       -0.2406
     17 O         -23.5050    2.9376   26.5723 O.co2   1  UNL1       -0.2406
@<TRIPOS>BOND
     1     1     2    1
     2     1     8    1
     3     8     9    1
     4     9    10    2
     5    10    11    1
     6     8    12    1
     7    11    13    1
     8    11    14    1
     9    12    14    1
    10     5    15    1
    11    15    16   ar
    12    15    17   ar
    13     2     3   ar
    14     3     4   ar
    15     4     5   ar
    16     5     6   ar
    17     6     7   ar
    18     7     2   ar
