@<TRIPOS>MOLECULE
outputs/IAG933/test6/raw/output_1194_IAG933_linker_design_.xyz
 43 47 0 0 0
SMALL
GASTEIGER

@<TRIPOS>ATOM
      1 C         -24.8550   -1.0120   30.1430 C.3     1  UNL1        0.0673
      2 C         -24.9730   -2.5050   29.7880 C.2     1  UNL1       -0.0187
      3 C         -23.9060   -3.1730   29.1460 C.2     1  UNL1       -0.0042
      4 C         -23.9890   -4.5490   28.8530 C.2     1  UNL1       -0.0003
      5 C         -25.1370   -5.2800   29.2050 C.2     1  UNL1       -0.0000
      6 C         -26.2320   -4.6110   29.7840 C.2     1  UNL1       -0.0003
      7 C         -26.1550   -3.2320   30.0650 C.2     1  UNL1       -0.0042
      8 C         -25.3870   -0.6790   31.5710 C.3     1  UNL1        0.0792
      9 C         -25.1890    0.7730   32.0280 C.3     1  UNL1        0.0193
     10 C         -25.3360    0.6840   33.5440 C.3     1  UNL1        0.0202
     11 C         -24.8290   -0.7150   33.9050 C.3     1  UNL1        0.0887
     12 N         -24.7580   -1.4810   32.6460 N.3     1  UNL1       -0.2190
     13 C         -25.6880    1.6140   26.4610 C.2     1  UNL1        0.0923
     14 C         -26.2500    2.9200   26.3950 C.2     1  UNL1        0.0902
     15 C         -25.6420    4.0930   27.1230 C.2     1  UNL1        0.2676
     16 N         -25.6140    5.2520   26.4490 N.am    1  UNL1       -0.1997
     17 C         -25.0260    6.4790   26.9630 C.3     1  UNL1        0.1388
     18 O         -25.1430    3.9660   28.2430 O.2     1  UNL1       -0.2683
     19 C         -27.4380    3.0910   25.6450 C.2     1  UNL1        0.1080
     20 N         -28.0750    2.0890   25.0030 N.2     1  UNL1       -0.2080
     21 C         -27.5430    0.8490   25.0790 C.2     1  UNL1        0.2546
     22 O         -28.1930   -0.2080   24.4770 O.2     1  UNL1       -0.4558
     23 C         -29.4600    0.0050   23.8660 C.3     1  UNL1        0.2426
     24 C         -30.0650   -1.3770   23.5730 C.3     1  UNL1        0.2292
     25 O         -30.7290   -1.8780   24.7210 O.3     1  UNL1       -0.2162
     26 C         -26.3540    0.5760   25.7770 C.2     1  UNL1        0.2066
     27 F         -25.8600   -0.6810   25.7950 F       1  UNL1       -0.1979
     28 C         -28.3427    0.5294   28.4670 C.3     1  UNL1        0.1741
     29 C         -22.3716    2.7025   25.0720 C.3     1  UNL1        0.3641
     30 C         -25.8492   -0.2347   29.1393 C.3     1  UNL1        0.1427
     31 F         -20.0746    2.1763   27.7272 F       1  UNL1       -0.1984
     32 C         -20.6612   -0.3039   28.4176 C.2     1  UNL1        0.0400
     33 C         -24.7690    0.4194   28.4143 C.3     1  UNL1        0.1509
     34 C         -21.2460    2.0716   27.1230 C.3     1  UNL1        0.3119
     35 O         -21.2177    2.7686   25.8864 O.3     1  UNL1       -0.2831
     36 N         -24.7014    1.1472   27.2727 N.pl3   1  UNL1       -0.2520
     37 O         -23.4800    2.0367   25.6172 O.2     1  UNL1       -0.4347
     38 C         -23.5112    1.4772   26.7465 C.2     1  UNL1        0.2040
     39 C         -23.5969    0.1822   29.0026 C.3     1  UNL1        0.2278
     40 O         -22.7050    0.0837   29.4480 O.2     1  UNL1       -0.4736
     41 O         -27.0270    0.7308   29.0677 O.3     1  UNL1       -0.3514
     42 C         -21.7355    0.3838   28.5345 C.2     1  UNL1        0.1439
     43 C         -22.2869    1.3108   27.4468 C.2     1  UNL1        0.1217
@<TRIPOS>BOND
     1     1    30    1
     2     2     7    1
     3     2     1    1
     4     3     2    2
     5     4     3    1
     6     4     5    2
     7     5     6    1
     8     6     7    2
     9     8     1    1
    10     8     9    1
    11     8    12    1
    12     9    10    1
    13    10    11    1
    14    12    11    1
    15    13    36    1
    16    14    13    1
    17    14    15    1
    18    15    18    2
    19    16    17    1
    20    16    15    1
    21    19    14    2
    22    20    21    2
    23    20    19    1
    24    21    26    1
    25    22    21    1
    26    23    22    1
    27    24    23    1
    28    24    25    1
    29    26    27    1
    30    26    13    2
    31    28    41    1
    32    29    37    1
    33    29    35    1
    34    30    41    1
    35    32    42    2
    36    33    39    1
    37    33    30    1
    38    34    43    1
    39    34    31    1
    40    35    34    1
    41    36    33    1
    42    37    38    1
    43    38    36    1
    44    38    43    2
    45    39    40    1
    46    42    40    1
    47    43    42    1
