@<TRIPOS>MOLECULE
No_1195-gen_results/8p0m/2024-11-27-11-27-31/
 27 28 0 0 0
SMALL
GASTEIGER

@<TRIPOS>ATOM
      1 O         -28.1229   -1.3353   28.4874 O.2     1  UNL1       -0.2695
      2 C         -27.4806   -0.4044   28.7094 C.2     1  UNL1        0.2536
      3 C         -26.3804   -0.0867   27.9394 C.ar    1  UNL1        0.0644
      4 N         -27.6664    0.4468   29.8988 N.am    1  UNL1       -0.2534
      5 C         -26.4086    0.8567   26.8802 C.ar    1  UNL1        0.0052
      6 C         -25.0824   -0.6970   28.1699 C.ar    1  UNL1        0.0620
      7 C         -25.2842    1.0488   26.0470 C.ar    1  UNL1        0.0002
      8 C         -23.9159   -0.3440   27.4444 C.ar    1  UNL1        0.0115
      9 C         -24.0618    0.5290   26.3707 C.ar    1  UNL1        0.0009
     10 C         -28.7724    0.0990   30.7925 C.3     1  UNL1        0.1203
     11 C         -26.8467    1.5200   30.2210 C.ar    1  UNL1        0.0544
     12 C         -26.1382    1.4748   31.0766 C.ar    1  UNL1        0.0149
     13 C         -25.1673    2.5766   31.3042 C.ar    1  UNL1        0.0015
     14 C         -25.2042    3.5062   30.9048 C.ar    1  UNL1        0.0067
     15 C         -26.1347    3.7830   29.7907 C.ar    1  UNL1        0.0810
     16 C         -27.0065    2.7239   29.4247 C.ar    1  UNL1        0.0215
     17 C         -26.0957    5.0858   29.0368 C.2     1  UNL1        0.3878
     18 O         -25.6436    5.1476   28.0016 O.co2   1  UNL1       -0.2406
     19 O         -26.5220    6.1265   29.6850 O.co2   1  UNL1       -0.2406
     20 CL        -24.8721   -1.7379   29.5100 Cl      1  UNL1       -0.0821
     21 C         -27.7044    1.4337   26.4413 C.2     1  UNL1        0.0002
     22 C         -27.7436    2.3713   25.6209 C.2     1  UNL1        0.0000
     23 C         -28.8103    2.9340   25.3247 C.2     1  UNL1       -0.0000
     24 C         -29.5482    2.9894   24.2138 C.2     1  UNL1       -0.0003
     25 C         -30.8013    3.6122   24.0008 C.2     1  UNL1       -0.0046
     26 C         -31.3882    4.3033   25.0791 C.2     1  UNL1       -0.0258
     27 C         -30.6764    4.4400   26.2670 C.3     1  UNL1        0.0307
@<TRIPOS>BOND
     1     1     2    2
     2     2     3    1
     3     2     4   am
     4     4    10    1
     5     4    11    1
     6    15    17    1
     7    17    18   ar
     8    17    19   ar
     9     6    20    1
    10     5    21    1
    11    21    22    2
    12    22    23    1
    13    23    24    2
    14    24    25    1
    15    25    26    2
    16    26    27    1
    17    11    12   ar
    18    12    13   ar
    19    13    14   ar
    20    14    15   ar
    21    15    16   ar
    22    16    11   ar
    23     3     5   ar
    24     5     7   ar
    25     7     9   ar
    26     9     8   ar
    27     8     6   ar
    28     6     3   ar
