@<TRIPOS>MOLECULE
No_1196-gen_results/8p0m/2024-11-27-11-27-31/
 15 15 0 0 0
SMALL
GASTEIGER

@<TRIPOS>ATOM
      1 C         -28.0162   -0.8135   28.8779 C.ar    1  UNL1        0.0824
      2 C         -27.0636   -0.1190   28.6079 C.ar    1  UNL1        0.0394
      3 C         -26.9716    0.7139   27.5060 C.ar    1  UNL1        0.1742
      4 C         -28.1053    0.7744   26.6421 C.ar    1  UNL1        0.1723
      5 C         -29.2041    0.1179   27.0477 C.ar    1  UNL1        0.1161
      6 C         -29.2127   -0.6088   28.1281 C.ar    1  UNL1        0.0164
      7 F         -25.8738    1.4073   27.1728 F       1  UNL1       -0.2010
      8 C         -30.3669    0.2295   26.1371 C.2     1  UNL1        0.3908
      9 O         -30.8348    1.2486   25.8722 O.co2   1  UNL1       -0.2404
     10 O         -31.0734   -0.8706   25.9409 O.co2   1  UNL1       -0.2404
     11 C         -28.0166   -1.6682   30.1369 C.2     1  UNL1        0.3878
     12 O         -27.1261   -2.4771   30.3672 O.co2   1  UNL1       -0.2406
     13 O         -29.0477   -1.6528   30.8821 O.co2   1  UNL1       -0.2406
     14 O         -28.0081    1.5894   25.5860 O.3     1  UNL1       -0.4689
     15 C         -27.3207    2.7090   25.7327 C.3     1  UNL1        0.2526
@<TRIPOS>BOND
     1     3     7    1
     2     5     8    1
     3     8     9   ar
     4     8    10   ar
     5     1    11    1
     6    11    12   ar
     7    11    13   ar
     8     4    14    1
     9    14    15    1
    10     1     2   ar
    11     2     3   ar
    12     3     4   ar
    13     4     5   ar
    14     5     6   ar
    15     6     1   ar
