@<TRIPOS>MOLECULE
outputs/IAG933/test6/raw/output_1198_IAG933_linker_design_.xyz
 41 44 0 0 0
SMALL
GASTEIGER

@<TRIPOS>ATOM
      1 C         -24.8550   -1.0120   30.1430 C.3     1  UNL1        0.1559
      2 C         -24.9730   -2.5050   29.7880 C.2     1  UNL1        0.0060
      3 C         -23.9060   -3.1730   29.1460 C.2     1  UNL1       -0.0019
      4 C         -23.9890   -4.5490   28.8530 C.2     1  UNL1       -0.0002
      5 C         -25.1370   -5.2800   29.2050 C.2     1  UNL1       -0.0000
      6 C         -26.2320   -4.6110   29.7840 C.2     1  UNL1       -0.0002
      7 C         -26.1550   -3.2320   30.0650 C.2     1  UNL1       -0.0019
      8 C         -25.3870   -0.6790   31.5710 C.3     1  UNL1        0.1042
      9 C         -25.1890    0.7730   32.0280 C.3     1  UNL1        0.0217
     10 C         -25.3360    0.6840   33.5440 C.3     1  UNL1        0.0203
     11 C         -24.8290   -0.7150   33.9050 C.3     1  UNL1        0.0888
     12 N         -24.7580   -1.4810   32.6460 N.3     1  UNL1       -0.2166
     13 C         -25.6880    1.6140   26.4610 C.2     1  UNL1        0.0407
     14 C         -26.2500    2.9200   26.3950 C.2     1  UNL1        0.0744
     15 C         -25.6420    4.0930   27.1230 C.2     1  UNL1        0.2219
     16 N         -25.6140    5.2520   26.4490 N.2     1  UNL1       -0.2357
     17 C         -25.0260    6.4790   26.9630 C.3     1  UNL1        0.1550
     18 O         -25.1430    3.9660   28.2430 O.2     1  UNL1       -0.4622
     19 C         -27.4380    3.0910   25.6450 C.2     1  UNL1        0.1068
     20 N         -28.0750    2.0890   25.0030 N.2     1  UNL1       -0.2081
     21 C         -27.5430    0.8490   25.0790 C.2     1  UNL1        0.2533
     22 O         -28.1930   -0.2080   24.4770 O.2     1  UNL1       -0.4558
     23 C         -29.4600    0.0050   23.8660 C.3     1  UNL1        0.2426
     24 C         -30.0650   -1.3770   23.5730 C.3     1  UNL1        0.2292
     25 O         -30.7290   -1.8780   24.7210 O.3     1  UNL1       -0.2162
     26 C         -26.3540    0.5760   25.7770 C.2     1  UNL1        0.1931
     27 F         -25.8600   -0.6810   25.7950 F       1  UNL1       -0.1992
     28 C         -22.3156    2.2018   27.1571 C.2     1  UNL1        0.2719
     29 O         -22.7409    2.8552   26.0922 O.2     1  UNL1       -0.2706
     30 C         -23.4612    5.5474   33.3607 C.3     1  UNL1        0.1741
     31 C         -23.3855    1.9467   29.0207 C.3     1  UNL1        0.1911
     32 C         -21.6977    0.9750   27.3551 C.3     1  UNL1        0.2309
     33 O         -23.4857   -0.4567   30.1456 O.3     1  UNL1       -0.3257
     34 N         -22.4853    2.6173   28.2848 N.am    1  UNL1       -0.1961
     35 O         -21.9120    0.1697   28.4437 O.3     1  UNL1       -0.3191
     36 C         -24.7617    4.3976   31.3887 C.3     1  UNL1        0.0358
     37 C         -22.9612    0.5091   29.2400 C.3     1  UNL1        0.2602
     38 O         -24.5690    6.2982   32.8676 O.3     1  UNL1       -0.3511
     39 C         -23.8753    4.0047   30.2309 C.3     1  UNL1        0.0482
     40 C         -24.9446    5.8831   31.5150 C.3     1  UNL1        0.1424
     41 C         -24.6136    2.9681   29.2507 C.3     1  UNL1        0.1924
@<TRIPOS>BOND
     1     1    33    1
     2     2     7    1
     3     2     1    1
     4     3     2    2
     5     4     3    1
     6     4     5    2
     7     5     6    1
     8     6     7    2
     9     8     1    1
    10     8     9    1
    11     8    12    1
    12     9    10    1
    13    10    11    1
    14    12    11    1
    15    14    13    1
    16    14    15    1
    17    15    18    1
    18    16    17    1
    19    16    15    2
    20    18    41    1
    21    19    14    2
    22    20    21    2
    23    20    19    1
    24    21    26    1
    25    22    21    1
    26    23    22    1
    27    24    23    1
    28    24    25    1
    29    26    27    1
    30    26    13    2
    31    28    32    1
    32    28    34    1
    33    29    28    2
    34    31    37    1
    35    31    41    1
    36    32    35    1
    37    34    31    1
    38    35    37    1
    39    36    40    1
    40    37    33    1
    41    38    30    1
    42    39    36    1
    43    40    38    1
    44    41    39    1
