@<TRIPOS>MOLECULE
No_1199-gen_results/8p0m/2024-11-27-11-27-31/
 16 17 0 0 0
SMALL
GASTEIGER

@<TRIPOS>ATOM
      1 C         -28.0162   -0.8135   28.8779 C.ar    1  UNL1        0.0012
      2 C         -28.4690   -0.7850   29.8287 C.ar    1  UNL1        0.0000
      3 C         -27.1356    0.2359   28.5352 C.ar    1  UNL1        0.0136
      4 C         -26.3351    0.2900   27.2835 C.2     1  UNL1        0.0589
      5 C         -28.3692    0.1957   30.9236 C.ar    1  UNL1        0.0000
      6 C         -27.5158    1.2655   30.6540 C.ar    1  UNL1        0.0000
      7 C         -26.8411    1.2942   29.4761 C.ar    1  UNL1        0.0012
      8 N         -25.3574    0.4805   26.9830 N.2     1  UNL1       -0.2497
      9 C         -27.2900    0.2549   26.0023 C.3     1  UNL1        0.0458
     10 C         -24.3038    0.5422   27.9779 C.ar    1  UNL1        0.0809
     11 C         -23.1608    1.4240   27.8414 C.ar    1  UNL1        0.0191
     12 C         -21.9418    1.1294   28.5335 C.ar    1  UNL1        0.0015
     13 C         -24.1141   -0.2568   29.1703 C.ar    1  UNL1        0.0191
     14 C         -23.0246   -0.3026   29.9635 C.ar    1  UNL1        0.0015
     15 C         -21.9262    0.4811   29.6150 C.ar    1  UNL1        0.0001
     16 C         -26.6114    0.2266   24.8706 C.3     1  UNL1        0.0067
@<TRIPOS>BOND
     1     3     4    1
     2     4     8    2
     3     4     9    1
     4     8    10    1
     5     9    16    1
     6     1     2   ar
     7     2     5   ar
     8     5     6   ar
     9     6     7   ar
    10     7     3   ar
    11     3     1   ar
    12    10    11   ar
    13    11    12   ar
    14    12    15   ar
    15    15    14   ar
    16    14    13   ar
    17    13    10   ar
