@<TRIPOS>MOLECULE
No_12-gen_results/8p0m/2024-11-27-11-27-31/
 13 14 0 0 0
SMALL
GASTEIGER

@<TRIPOS>ATOM
      1 C         -28.0162   -0.8135   28.8779 C.2     1  UNL1        0.1727
      2 C         -27.0636   -0.1190   28.6079 C.ar    1  UNL1        0.0307
      3 C         -25.7923   -0.4302   29.0761 C.ar    1  UNL1       -0.0194
      4 C         -25.5314   -1.5876   29.6105 C.3     1  UNL1        0.0269
      5 C         -26.6366   -2.4336   29.9654 C.3     1  UNL1        0.0120
      6 C         -26.3845   -3.6983   30.5363 C.3     1  UNL1        0.0008
      7 C         -27.8983   -2.0811   29.5561 C.3     1  UNL1        0.0695
      8 C         -27.1887    1.2715   27.9623 C.ar    1  UNL1        0.0025
      9 C         -26.4043    1.5586   26.9792 C.ar    1  UNL1        0.0001
     10 C         -25.2352    0.8338   26.6654 C.ar    1  UNL1       -0.0003
     11 C         -24.7365   -0.0416   27.8136 C.ar    1  UNL1       -0.0042
     12 C         -26.1177   -4.7192   29.3940 C.3     1  UNL1        0.0000
     13 O         -29.2933   -0.4934   28.6871 O.2     1  UNL1       -0.2913
@<TRIPOS>BOND
     1     1     2    1
     2     4     5    1
     3     5     6    1
     4     1     7    1
     5     5     7    1
     6     6    12    1
     7     1    13    2
     8     3     4    1
     9     2     3   ar
    10     3    11   ar
    11    11    10   ar
    12    10     9   ar
    13     9     8   ar
    14     8     2   ar
