@<TRIPOS>MOLECULE
outputs/IAG933/test6/raw/output_120_IAG933_linker_design_.xyz
 43 48 0 0 0
SMALL
GASTEIGER

@<TRIPOS>ATOM
      1 C         -24.8550   -1.0120   30.1430 C.3     1  UNL1        0.0814
      2 C         -24.9730   -2.5050   29.7880 C.2     1  UNL1       -0.0174
      3 C         -23.9060   -3.1730   29.1460 C.2     1  UNL1       -0.0041
      4 C         -23.9890   -4.5490   28.8530 C.2     1  UNL1       -0.0003
      5 C         -25.1370   -5.2800   29.2050 C.2     1  UNL1       -0.0000
      6 C         -26.2320   -4.6110   29.7840 C.2     1  UNL1       -0.0003
      7 C         -26.1550   -3.2320   30.0650 C.2     1  UNL1       -0.0041
      8 C         -25.3870   -0.6790   31.5710 C.3     1  UNL1        0.0835
      9 C         -25.1890    0.7730   32.0280 C.3     1  UNL1        0.0531
     10 C         -25.3360    0.6840   33.5440 C.3     1  UNL1        0.0233
     11 C         -24.8290   -0.7150   33.9050 C.3     1  UNL1        0.0888
     12 N         -24.7580   -1.4810   32.6460 N.3     1  UNL1       -0.2189
     13 C         -25.6880    1.6140   26.4610 C.2     1  UNL1        0.0464
     14 C         -26.2500    2.9200   26.3950 C.2     1  UNL1        0.0750
     15 C         -25.6420    4.0930   27.1230 C.2     1  UNL1        0.2662
     16 N         -25.6140    5.2520   26.4490 N.am    1  UNL1       -0.1997
     17 C         -25.0260    6.4790   26.9630 C.3     1  UNL1        0.1388
     18 O         -25.1430    3.9660   28.2430 O.2     1  UNL1       -0.2683
     19 C         -27.4380    3.0910   25.6450 C.2     1  UNL1        0.1065
     20 N         -28.0750    2.0890   25.0030 N.2     1  UNL1       -0.2081
     21 C         -27.5430    0.8490   25.0790 C.2     1  UNL1        0.2530
     22 O         -28.1930   -0.2080   24.4770 O.2     1  UNL1       -0.4558
     23 C         -29.4600    0.0050   23.8660 C.3     1  UNL1        0.2426
     24 C         -30.0650   -1.3770   23.5730 C.3     1  UNL1        0.2292
     25 O         -30.7290   -1.8780   24.7210 O.3     1  UNL1       -0.2162
     26 C         -26.3540    0.5760   25.7770 C.2     1  UNL1        0.1915
     27 F         -25.8600   -0.6810   25.7950 F       1  UNL1       -0.1995
     28 C         -27.1981    5.1701   31.0414 C.3     1  UNL1        0.1538
     29 C         -27.5141    2.9175   30.4205 C.3     1  UNL1        0.2434
     30 C         -24.5200    1.0911   27.0233 C.3     1  UNL1        0.1841
     31 N         -26.2968    2.6270   31.2739 N.am    1  UNL1       -0.2408
     32 O         -27.2085    4.2751   29.9472 O.3     1  UNL1       -0.3338
     33 C         -22.7113    0.6695   28.9322 C.3     1  UNL1        0.1880
     34 C         -26.7797    4.7005   32.4547 C.3     1  UNL1        0.1174
     35 N         -24.8305    1.2811   29.6874 N.3     1  UNL1       -0.1741
     36 CL        -22.8068    2.3492   25.3535 Cl      1  UNL1       -0.0792
     37 C         -24.1494    0.0736   29.2393 C.3     1  UNL1        0.1865
     38 C         -25.9094    3.5015   32.2013 C.2     1  UNL1        0.2309
     39 O         -24.6374   -0.0154   27.9172 O.3     1  UNL1       -0.3347
     40 C         -25.3338    1.4535   30.7912 C.3     1  UNL1        0.1551
     41 C         -23.3430    1.5592   26.7158 C.3     1  UNL1        0.2257
     42 O         -22.3565    1.1606   27.6513 O.3     1  UNL1       -0.3342
     43 O         -24.8554    3.5257   32.7900 O.2     1  UNL1       -0.2747
@<TRIPOS>BOND
     1     1     2    1
     2     1     8    1
     3     2     7    1
     4     3     2    2
     5     4     3    1
     6     4     5    2
     7     5     6    1
     8     6     7    2
     9     8     9    1
    10     8    12    1
    11     9    10    1
    12    10    11    1
    13    12    11    1
    14    14    13    1
    15    14    15    1
    16    15    18    2
    17    16    17    1
    18    16    15    1
    19    19    14    2
    20    20    21    2
    21    20    19    1
    22    21    26    1
    23    22    21    1
    24    23    22    1
    25    24    23    1
    26    24    25    1
    27    26    27    1
    28    26    13    2
    29    28    34    1
    30    29    31    1
    31    30    13    1
    32    30    39    1
    33    31    38   am
    34    32    29    1
    35    32    28    1
    36    35    40    1
    37    37    33    1
    38    37    35    1
    39    37     1    1
    40    38    34    1
    41    38    43    2
    42    39    37    1
    43    40    31    1
    44    40     9    1
    45    41    36    1
    46    41    30    1
    47    41    42    1
    48    42    33    1
