@<TRIPOS>MOLECULE
outputs/IAG933/test6/raw/output_1204_IAG933_linker_design_.xyz
 45 49 0 0 0
SMALL
GASTEIGER

@<TRIPOS>ATOM
      1 C         -24.8550   -1.0120   30.1430 C.3     1  UNL1        0.0437
      2 C         -24.9730   -2.5050   29.7880 C.2     1  UNL1       -0.0208
      3 C         -23.9060   -3.1730   29.1460 C.2     1  UNL1       -0.0042
      4 C         -23.9890   -4.5490   28.8530 C.2     1  UNL1       -0.0003
      5 C         -25.1370   -5.2800   29.2050 C.2     1  UNL1       -0.0000
      6 C         -26.2320   -4.6110   29.7840 C.2     1  UNL1       -0.0003
      7 C         -26.1550   -3.2320   30.0650 C.2     1  UNL1       -0.0042
      8 C         -25.3870   -0.6790   31.5710 C.3     1  UNL1        0.0772
      9 C         -25.1890    0.7730   32.0280 C.3     1  UNL1        0.0192
     10 C         -25.3360    0.6840   33.5440 C.3     1  UNL1        0.0202
     11 C         -24.8290   -0.7150   33.9050 C.3     1  UNL1        0.0887
     12 N         -24.7580   -1.4810   32.6460 N.3     1  UNL1       -0.2191
     13 C         -25.6880    1.6140   26.4610 C.2     1  UNL1        0.0379
     14 C         -26.2500    2.9200   26.3950 C.2     1  UNL1        0.0765
     15 C         -25.6420    4.0930   27.1230 C.2     1  UNL1        0.2664
     16 N         -25.6140    5.2520   26.4490 N.am    1  UNL1       -0.1997
     17 C         -25.0260    6.4790   26.9630 C.3     1  UNL1        0.1388
     18 O         -25.1430    3.9660   28.2430 O.2     1  UNL1       -0.2683
     19 C         -27.4380    3.0910   25.6450 C.2     1  UNL1        0.1067
     20 N         -28.0750    2.0890   25.0030 N.2     1  UNL1       -0.2081
     21 C         -27.5430    0.8490   25.0790 C.2     1  UNL1        0.2533
     22 O         -28.1930   -0.2080   24.4770 O.2     1  UNL1       -0.4558
     23 C         -29.4600    0.0050   23.8660 C.3     1  UNL1        0.2426
     24 C         -30.0650   -1.3770   23.5730 C.3     1  UNL1        0.2292
     25 O         -30.7290   -1.8780   24.7210 O.3     1  UNL1       -0.2162
     26 C         -26.3540    0.5760   25.7770 C.2     1  UNL1        0.1930
     27 F         -25.8600   -0.6810   25.7950 F       1  UNL1       -0.1992
     28 S         -30.8188    0.1515   28.3543 S.O2    1  UNL1       -0.0072
     29 C         -22.7802    0.7588   28.6782 C.2     1  UNL1        0.0277
     30 F         -21.1102    2.0479   25.6483 F       1  UNL1       -0.2018
     31 C         -29.2560    0.8597   30.5022 C.3     1  UNL1        0.0977
     32 C         -23.3849    1.9345   26.1412 C.2     1  UNL1        0.0317
     33 C         -30.6711    0.7242   29.9134 C.3     1  UNL1        0.1681
     34 C         -28.3784   -0.8559   28.9021 C.3     1  UNL1        0.0977
     35 O         -31.4307   -1.2012   28.4904 O.2     1  UNL1       -0.1729
     36 C         -26.8420    0.9507   29.2985 C.3     1  UNL1        0.0769
     37 C         -24.1717    0.7634   28.2973 C.2     1  UNL1       -0.0183
     38 C         -21.8318    1.3085   27.8217 C.2     1  UNL1        0.1671
     39 C         -24.3645    1.4302   27.0972 C.2     1  UNL1        0.0010
     40 O         -31.4636    1.2114   27.5615 O.2     1  UNL1       -0.1729
     41 F         -20.5734    1.4865   28.1101 F       1  UNL1       -0.2018
     42 C         -22.1413    1.7605   26.5295 C.2     1  UNL1        0.1674
     43 C         -29.2009   -0.2786   27.6912 C.3     1  UNL1        0.1681
     44 N         -28.0297    0.1531   29.9683 N.3     1  UNL1       -0.2694
     45 C         -25.3823    0.0953   29.2055 C.3     1  UNL1        0.0437
@<TRIPOS>BOND
     1     1    45    1
     2     2     7    1
     3     2     1    1
     4     3     2    2
     5     4     3    1
     6     4     5    2
     7     5     6    1
     8     6     7    2
     9     8     1    1
    10     8     9    1
    11     8    12    1
    12     9    10    1
    13    10    11    1
    14    12    11    1
    15    13    39    1
    16    14    13    1
    17    14    15    1
    18    15    18    2
    19    16    17    1
    20    16    15    1
    21    19    14    2
    22    20    21    2
    23    20    19    1
    24    21    26    1
    25    22    21    1
    26    23    22    1
    27    24    23    1
    28    24    25    1
    29    26    27    1
    30    26    13    2
    31    28    35    2
    32    28    33    1
    33    30    42    1
    34    32    42    2
    35    32    39    1
    36    33    31    1
    37    34    44    1
    38    36    44    1
    39    37    29    1
    40    37    45    1
    41    38    41    1
    42    38    29    2
    43    39    37    2
    44    40    28    2
    45    42    38    1
    46    43    28    1
    47    43    34    1
    48    44    31    1
    49    45    36    1
