@<TRIPOS>MOLECULE
outputs/IAG933/test6/raw/output_1206_IAG933_linker_design_.xyz
 41 44 0 0 0
SMALL
GASTEIGER

@<TRIPOS>ATOM
      1 C         -24.8550   -1.0120   30.1430 C.3     1  UNL1        0.1096
      2 C         -24.9730   -2.5050   29.7880 C.2     1  UNL1       -0.0149
      3 C         -23.9060   -3.1730   29.1460 C.2     1  UNL1       -0.0040
      4 C         -23.9890   -4.5490   28.8530 C.2     1  UNL1       -0.0003
      5 C         -25.1370   -5.2800   29.2050 C.2     1  UNL1       -0.0000
      6 C         -26.2320   -4.6110   29.7840 C.2     1  UNL1       -0.0003
      7 C         -26.1550   -3.2320   30.0650 C.2     1  UNL1       -0.0040
      8 C         -25.3870   -0.6790   31.5710 C.3     1  UNL1        0.0831
      9 C         -25.1890    0.7730   32.0280 C.3     1  UNL1        0.0194
     10 C         -25.3360    0.6840   33.5440 C.3     1  UNL1        0.0202
     11 C         -24.8290   -0.7150   33.9050 C.3     1  UNL1        0.0887
     12 N         -24.7580   -1.4810   32.6460 N.3     1  UNL1       -0.2189
     13 C         -25.6880    1.6140   26.4610 C.3     1  UNL1        0.1020
     14 C         -26.2500    2.9200   26.3950 C.2     1  UNL1        0.0573
     15 C         -25.6420    4.0930   27.1230 C.2     1  UNL1        0.2625
     16 N         -25.6140    5.2520   26.4490 N.am    1  UNL1       -0.2000
     17 C         -25.0260    6.4790   26.9630 C.3     1  UNL1        0.1388
     18 O         -25.1430    3.9660   28.2430 O.2     1  UNL1       -0.2687
     19 C         -27.4380    3.0910   25.6450 C.2     1  UNL1        0.1022
     20 N         -28.0750    2.0890   25.0030 N.2     1  UNL1       -0.2119
     21 C         -27.5430    0.8490   25.0790 C.2     1  UNL1        0.2342
     22 O         -28.1930   -0.2080   24.4770 O.2     1  UNL1       -0.4585
     23 C         -29.4600    0.0050   23.8660 C.3     1  UNL1        0.2423
     24 C         -30.0650   -1.3770   23.5730 C.3     1  UNL1        0.2292
     25 O         -30.7290   -1.8780   24.7210 O.3     1  UNL1       -0.2162
     26 C         -26.3540    0.5760   25.7770 C.3     1  UNL1        0.2425
     27 F         -25.8600   -0.6810   25.7950 F       1  UNL1       -0.2268
     28 F         -22.6260    2.8170   25.2610 F       1  UNL1       -0.0146
     29 C         -22.2353    1.0429   27.7913 C.3     1  UNL1        0.0487
     30 O         -22.5528   -0.6695   29.2259 O.3     1  UNL1       -0.3192
     31 C         -21.6277    0.3142   28.5892 C.3     1  UNL1        0.1532
     32 C         -23.6583    1.2108   27.8180 C.3     1  UNL1        0.1107
     33 C         -21.5302    1.7922   26.8580 C.3     1  UNL1        0.0041
     34 C         -24.2931    1.5761   26.6352 C.3     1  UNL1        0.1786
     35 O         -19.6385    0.8683   28.3887 O.3     1  UNL1       -0.2177
     36 N         -24.3008    0.9213   28.9517 N.3     1  UNL1       -0.1666
     37 O         -23.4280    2.0742   25.7433 O.3     1  UNL1       -0.1881
     38 O         -22.2988    2.3319   25.7489 O.3     1  UNL1       -0.0220
     39 C         -23.5857   -0.0738   29.8042 C.3     1  UNL1        0.2892
     40 O         -22.8324    0.6218   30.8370 O.3     1  UNL1       -0.1755
     41 C         -20.4346   -0.0529   28.4270 C.3     1  UNL1        0.2116
@<TRIPOS>BOND
     1     1     2    1
     2     2     7    1
     3     3     2    2
     4     4     3    1
     5     4     5    2
     6     5     6    1
     7     6     7    2
     8     8     1    1
     9     8     9    1
    10     8    12    1
    11     9    10    1
    12    10    11    1
    13    12    11    1
    14    13    34    1
    15    14    13    1
    16    14    15    1
    17    15    18    2
    18    16    17    1
    19    16    15    1
    20    19    14    2
    21    20    21    2
    22    20    19    1
    23    21    26    1
    24    22    21    1
    25    23    22    1
    26    24    23    1
    27    24    25    1
    28    26    27    1
    29    26    13    1
    30    28    38    1
    31    29    33    1
    32    29    32    1
    33    29    31    1
    34    30    39    1
    35    31    41    1
    36    31    30    1
    37    32    34    1
    38    32    36    1
    39    34    37    1
    40    35    41    1
    41    36    39    1
    42    37    38    1
    43    39     1    1
    44    39    40    1
