@<TRIPOS>MOLECULE
outputs/IAG933/test6/raw/output_1214_IAG933_linker_design_.xyz
 43 47 0 0 0
SMALL
GASTEIGER

@<TRIPOS>ATOM
      1 C         -24.8550   -1.0120   30.1430 C.3     1  UNL1        0.0530
      2 C         -24.9730   -2.5050   29.7880 C.2     1  UNL1       -0.0198
      3 C         -23.9060   -3.1730   29.1460 C.2     1  UNL1       -0.0042
      4 C         -23.9890   -4.5490   28.8530 C.2     1  UNL1       -0.0003
      5 C         -25.1370   -5.2800   29.2050 C.2     1  UNL1       -0.0000
      6 C         -26.2320   -4.6110   29.7840 C.2     1  UNL1       -0.0003
      7 C         -26.1550   -3.2320   30.0650 C.2     1  UNL1       -0.0042
      8 C         -25.3870   -0.6790   31.5710 C.3     1  UNL1        0.0781
      9 C         -25.1890    0.7730   32.0280 C.3     1  UNL1        0.0192
     10 C         -25.3360    0.6840   33.5440 C.3     1  UNL1        0.0202
     11 C         -24.8290   -0.7150   33.9050 C.3     1  UNL1        0.0887
     12 N         -24.7580   -1.4810   32.6460 N.3     1  UNL1       -0.2191
     13 C         -25.6880    1.6140   26.4610 C.2     1  UNL1        0.0304
     14 C         -26.2500    2.9200   26.3950 C.2     1  UNL1        0.0738
     15 C         -25.6420    4.0930   27.1230 C.2     1  UNL1        0.2662
     16 N         -25.6140    5.2520   26.4490 N.am    1  UNL1       -0.1997
     17 C         -25.0260    6.4790   26.9630 C.3     1  UNL1        0.1388
     18 O         -25.1430    3.9660   28.2430 O.2     1  UNL1       -0.2683
     19 C         -27.4380    3.0910   25.6450 C.2     1  UNL1        0.1065
     20 N         -28.0750    2.0890   25.0030 N.2     1  UNL1       -0.2081
     21 C         -27.5430    0.8490   25.0790 C.2     1  UNL1        0.2530
     22 O         -28.1930   -0.2080   24.4770 O.2     1  UNL1       -0.4558
     23 C         -29.4600    0.0050   23.8660 C.3     1  UNL1        0.2426
     24 C         -30.0650   -1.3770   23.5730 C.3     1  UNL1        0.2292
     25 O         -30.7290   -1.8780   24.7210 O.3     1  UNL1       -0.2162
     26 C         -26.3540    0.5760   25.7770 C.2     1  UNL1        0.1904
     27 F         -25.8600   -0.6810   25.7950 F       1  UNL1       -0.1995
     28 C         -29.3537    0.3649   29.2860 C.2     1  UNL1        0.1532
     29 C         -30.2036   -0.7846   31.7735 C.3     1  UNL1        0.0334
     30 C         -27.9144    0.8173   29.3131 C.3     1  UNL1        0.0660
     31 C         -26.9259   -0.1512   28.6518 C.3     1  UNL1        0.0242
     32 C         -25.3963    0.0080   29.0290 C.3     1  UNL1        0.0657
     33 C         -22.1293    1.3580   27.3973 C.3     1  UNL1        0.0518
     34 C         -29.9032    0.8745   31.7935 C.3     1  UNL1        0.1337
     35 O         -29.7827   -0.6305   28.7202 O.2     1  UNL1       -0.2960
     36 C         -24.4609    1.4341   27.2518 C.3     1  UNL1        0.0847
     37 C         -22.8013    0.1579   28.1675 C.3     1  UNL1        0.2129
     38 C         -30.6545    0.1120   32.8309 C.3     1  UNL1        0.0334
     39 N         -24.2647    0.4051   28.0639 N.3     1  UNL1       -0.2468
     40 O         -22.4535    0.1653   29.5217 O.3     1  UNL1       -0.2049
     41 C         -23.0926    1.9328   26.5155 C.3     1  UNL1        0.0247
     42 O         -30.0563    2.3361   32.3199 O.3     1  UNL1       -0.2252
     43 C         -30.2453    1.2043   30.2708 C.3     1  UNL1        0.0948
@<TRIPOS>BOND
     1     1    32    1
     2     2     7    1
     3     2     1    1
     4     3     2    2
     5     4     3    1
     6     4     5    2
     7     5     6    1
     8     6     7    2
     9     8     1    1
    10     8     9    1
    11     8    12    1
    12     9    10    1
    13    10    11    1
    14    12    11    1
    15    14    13    1
    16    14    15    1
    17    15    18    2
    18    16    17    1
    19    16    15    1
    20    19    14    2
    21    20    21    2
    22    20    19    1
    23    21    26    1
    24    22    21    1
    25    23    22    1
    26    24    23    1
    27    24    25    1
    28    26    27    1
    29    26    13    2
    30    28    30    1
    31    28    43    1
    32    29    34    1
    33    29    38    1
    34    31    30    1
    35    32    31    1
    36    33    37    1
    37    34    42    1
    38    34    38    1
    39    35    28    2
    40    36    13    1
    41    36    39    1
    42    37    40    1
    43    39    37    1
    44    39    32    1
    45    41    36    1
    46    41    33    1
    47    43    34    1
