@<TRIPOS>MOLECULE
outputs/IAG933/test6/raw/output_1215_IAG933_linker_design_.xyz
 43 46 0 0 0
SMALL
GASTEIGER

@<TRIPOS>ATOM
      1 C         -24.8550   -1.0120   30.1430 C.3     1  UNL1        0.1222
      2 C         -24.9730   -2.5050   29.7880 C.2     1  UNL1       -0.0042
      3 C         -23.9060   -3.1730   29.1460 C.2     1  UNL1       -0.0029
      4 C         -23.9890   -4.5490   28.8530 C.2     1  UNL1       -0.0003
      5 C         -25.1370   -5.2800   29.2050 C.2     1  UNL1       -0.0000
      6 C         -26.2320   -4.6110   29.7840 C.2     1  UNL1       -0.0003
      7 C         -26.1550   -3.2320   30.0650 C.2     1  UNL1       -0.0029
      8 C         -25.3870   -0.6790   31.5710 C.3     1  UNL1        0.0938
      9 C         -25.1890    0.7730   32.0280 C.3     1  UNL1        0.0207
     10 C         -25.3360    0.6840   33.5440 C.3     1  UNL1        0.0203
     11 C         -24.8290   -0.7150   33.9050 C.3     1  UNL1        0.0888
     12 N         -24.7580   -1.4810   32.6460 N.3     1  UNL1       -0.2177
     13 C         -25.6880    1.6140   26.4610 C.2     1  UNL1        0.0458
     14 C         -26.2500    2.9200   26.3950 C.2     1  UNL1        0.0749
     15 C         -25.6420    4.0930   27.1230 C.2     1  UNL1        0.2662
     16 N         -25.6140    5.2520   26.4490 N.am    1  UNL1       -0.1997
     17 C         -25.0260    6.4790   26.9630 C.3     1  UNL1        0.1388
     18 O         -25.1430    3.9660   28.2430 O.2     1  UNL1       -0.2683
     19 C         -27.4380    3.0910   25.6450 C.2     1  UNL1        0.1065
     20 N         -28.0750    2.0890   25.0030 N.2     1  UNL1       -0.2081
     21 C         -27.5430    0.8490   25.0790 C.2     1  UNL1        0.2530
     22 O         -28.1930   -0.2080   24.4770 O.2     1  UNL1       -0.4558
     23 C         -29.4600    0.0050   23.8660 C.3     1  UNL1        0.2426
     24 C         -30.0650   -1.3770   23.5730 C.3     1  UNL1        0.2292
     25 O         -30.7290   -1.8780   24.7210 O.3     1  UNL1       -0.2162
     26 C         -26.3540    0.5760   25.7770 C.2     1  UNL1        0.1915
     27 F         -25.8600   -0.6810   25.7950 F       1  UNL1       -0.1995
     28 C         -29.6817   -2.9219   30.3976 C.2     1  UNL1        0.0417
     29 C         -31.3607   -1.7140   29.1541 C.2     1  UNL1        0.0484
     30 C         -29.0515   -0.9139   29.2213 C.2     1  UNL1       -0.0143
     31 C         -21.7863    1.4587   27.4588 C.3     1  UNL1        0.0205
     32 C         -24.3699    1.2593   27.1608 C.3     1  UNL1        0.1772
     33 C         -31.0043   -2.8388   29.9050 C.2     1  UNL1        0.1962
     34 O         -31.8694   -3.8789   30.1536 O.2     1  UNL1       -0.2866
     35 C         -26.5912    0.3344   29.0436 C.3     1  UNL1        0.1060
     36 N         -25.1749   -0.0974   28.9893 N.3     1  UNL1       -0.1612
     37 C         -28.0757   -0.0052   28.7432 C.3     1  UNL1        0.0467
     38 O         -24.1889    0.3263   28.2387 O.3     1  UNL1       -0.2787
     39 CL        -22.8846    2.5122   25.1628 Cl      1  UNL1       -0.1120
     40 C         -30.3761   -0.7454   28.8095 C.2     1  UNL1        0.0338
     41 C         -28.7210   -1.9613   30.0850 C.2     1  UNL1       -0.0005
     42 BR        -30.7327    0.7286   27.5966 Br      1  UNL1       -0.0492
     43 C         -22.9902    1.3443   26.5620 C.3     1  UNL1        0.1133
@<TRIPOS>BOND
     1     1    36    1
     2     2     7    1
     3     2     1    1
     4     3     2    2
     5     4     3    1
     6     4     5    2
     7     5     6    1
     8     6     7    2
     9     8     1    1
    10     8     9    1
    11     8    12    1
    12     9    10    1
    13    10    11    1
    14    12    11    1
    15    13    32    1
    16    14    13    1
    17    14    15    1
    18    15    18    2
    19    16    17    1
    20    16    15    1
    21    19    14    2
    22    20    21    2
    23    20    19    1
    24    21    26    1
    25    22    21    1
    26    23    22    1
    27    24    23    1
    28    24    25    1
    29    26    27    1
    30    26    13    2
    31    29    33    1
    32    30    41    2
    33    32    38    1
    34    33    34    1
    35    33    28    2
    36    36    35    1
    37    37    35    1
    38    37    30    1
    39    38    36    1
    40    39    43    1
    41    40    29    2
    42    40    30    1
    43    41    28    1
    44    42    40    1
    45    43    32    1
    46    43    31    1
