@<TRIPOS>MOLECULE
outputs/IAG933/test6/raw/output_1217_IAG933_linker_design_.xyz
 43 48 0 0 0
SMALL
GASTEIGER

@<TRIPOS>ATOM
      1 C         -24.8550   -1.0120   30.1430 C.3     1  UNL1        0.0567
      2 C         -24.9730   -2.5050   29.7880 C.2     1  UNL1       -0.0197
      3 C         -23.9060   -3.1730   29.1460 C.2     1  UNL1       -0.0042
      4 C         -23.9890   -4.5490   28.8530 C.2     1  UNL1       -0.0003
      5 C         -25.1370   -5.2800   29.2050 C.2     1  UNL1       -0.0000
      6 C         -26.2320   -4.6110   29.7840 C.2     1  UNL1       -0.0003
      7 C         -26.1550   -3.2320   30.0650 C.2     1  UNL1       -0.0042
      8 C         -25.3870   -0.6790   31.5710 C.3     1  UNL1        0.0782
      9 C         -25.1890    0.7730   32.0280 C.3     1  UNL1        0.0192
     10 C         -25.3360    0.6840   33.5440 C.3     1  UNL1        0.0202
     11 C         -24.8290   -0.7150   33.9050 C.3     1  UNL1        0.0887
     12 N         -24.7580   -1.4810   32.6460 N.3     1  UNL1       -0.2191
     13 C         -25.6880    1.6140   26.4610 C.2     1  UNL1        0.0211
     14 C         -26.2500    2.9200   26.3950 C.2     1  UNL1        0.0729
     15 C         -25.6420    4.0930   27.1230 C.2     1  UNL1        0.2661
     16 N         -25.6140    5.2520   26.4490 N.am    1  UNL1       -0.1997
     17 C         -25.0260    6.4790   26.9630 C.3     1  UNL1        0.1388
     18 O         -25.1430    3.9660   28.2430 O.2     1  UNL1       -0.2683
     19 C         -27.4380    3.0910   25.6450 C.2     1  UNL1        0.1064
     20 N         -28.0750    2.0890   25.0030 N.2     1  UNL1       -0.2081
     21 C         -27.5430    0.8490   25.0790 C.2     1  UNL1        0.2530
     22 O         -28.1930   -0.2080   24.4770 O.2     1  UNL1       -0.4558
     23 C         -29.4600    0.0050   23.8660 C.3     1  UNL1        0.2426
     24 C         -30.0650   -1.3770   23.5730 C.3     1  UNL1        0.2292
     25 O         -30.7290   -1.8780   24.7210 O.3     1  UNL1       -0.2162
     26 C         -26.3540    0.5760   25.7770 C.2     1  UNL1        0.1895
     27 F         -25.8600   -0.6810   25.7950 F       1  UNL1       -0.1996
     28 N         -25.5978    1.4973   29.3992 N.3     1  UNL1       -0.1662
     29 O         -29.2932    4.4740   30.7561 O.3     1  UNL1       -0.3536
     30 C         -25.4557    0.0247   29.1079 C.3     1  UNL1        0.1055
     31 O         -26.1829    2.5935   29.9904 O.3     1  UNL1       -0.2797
     32 C         -23.1740    0.6984   29.1561 C.3     1  UNL1        0.0261
     33 C         -24.5386    0.9384   28.5112 C.3     1  UNL1        0.0937
     34 C         -22.0790    1.5103   27.2916 C.2     1  UNL1        0.1138
     35 C         -24.5069    1.3971   27.1571 C.3     1  UNL1        0.0657
     36 C         -29.1751    5.3749   29.6462 C.3     1  UNL1        0.1422
     37 C         -26.9941    3.6101   30.5882 C.3     1  UNL1        0.1958
     38 C         -22.0231    0.8157   28.4709 C.3     1  UNL1        0.0577
     39 C         -28.4777    3.3436   30.4007 C.3     1  UNL1        0.1469
     40 F         -20.8948    2.0862   26.9804 F       1  UNL1       -0.2092
     41 C         -29.0232    4.5246   28.3943 C.3     1  UNL1        0.0346
     42 C         -28.7853    3.1385   28.9445 C.3     1  UNL1        0.0348
     43 C         -23.2636    1.7001   26.5607 C.2     1  UNL1        0.0046
@<TRIPOS>BOND
     1     1     2    1
     2     2     7    1
     3     3     2    2
     4     4     3    1
     5     4     5    2
     6     5     6    1
     7     6     7    2
     8     8     1    1
     9     8     9    1
    10     8    12    1
    11     9    10    1
    12    10    11    1
    13    12    11    1
    14    14    13    1
    15    14    15    1
    16    15    18    2
    17    16    17    1
    18    16    15    1
    19    19    14    2
    20    20    21    2
    21    20    19    1
    22    21    26    1
    23    22    21    1
    24    23    22    1
    25    24    23    1
    26    24    25    1
    27    26    27    1
    28    26    13    2
    29    28    31    1
    30    30    28    1
    31    30     1    1
    32    31    37    1
    33    33    30    1
    34    33    32    1
    35    33    28    1
    36    34    38    1
    37    35    13    1
    38    35    33    1
    39    36    29    1
    40    38    32    1
    41    39    37    1
    42    39    29    1
    43    40    34    1
    44    41    42    1
    45    41    36    1
    46    42    39    1
    47    43    35    1
    48    43    34    2
