@<TRIPOS>MOLECULE
outputs/IAG933/test6/raw/output_1224_IAG933_linker_design_.xyz
 44 49 0 0 0
SMALL
GASTEIGER

@<TRIPOS>ATOM
      1 C         -24.8550   -1.0120   30.1430 C.3     1  UNL1        0.0438
      2 C         -24.9730   -2.5050   29.7880 C.2     1  UNL1       -0.0208
      3 C         -23.9060   -3.1730   29.1460 C.2     1  UNL1       -0.0042
      4 C         -23.9890   -4.5490   28.8530 C.2     1  UNL1       -0.0003
      5 C         -25.1370   -5.2800   29.2050 C.2     1  UNL1       -0.0000
      6 C         -26.2320   -4.6110   29.7840 C.2     1  UNL1       -0.0003
      7 C         -26.1550   -3.2320   30.0650 C.2     1  UNL1       -0.0042
      8 C         -25.3870   -0.6790   31.5710 C.3     1  UNL1        0.0812
      9 C         -25.1890    0.7730   32.0280 C.3     1  UNL1        0.0673
     10 C         -25.3360    0.6840   33.5440 C.3     1  UNL1        0.0244
     11 C         -24.8290   -0.7150   33.9050 C.3     1  UNL1        0.0888
     12 N         -24.7580   -1.4810   32.6460 N.3     1  UNL1       -0.2190
     13 C         -25.6880    1.6140   26.4610 C.3     1  UNL1        0.1431
     14 C         -26.2500    2.9200   26.3950 C.2     1  UNL1        0.0709
     15 C         -25.6420    4.0930   27.1230 C.2     1  UNL1        0.2638
     16 N         -25.6140    5.2520   26.4490 N.am    1  UNL1       -0.2000
     17 C         -25.0260    6.4790   26.9630 C.3     1  UNL1        0.1388
     18 O         -25.1430    3.9660   28.2430 O.2     1  UNL1       -0.2686
     19 C         -27.4380    3.0910   25.6450 C.2     1  UNL1        0.1035
     20 N         -28.0750    2.0890   25.0030 N.2     1  UNL1       -0.2118
     21 C         -27.5430    0.8490   25.0790 C.2     1  UNL1        0.2356
     22 O         -28.1930   -0.2080   24.4770 O.2     1  UNL1       -0.4585
     23 C         -29.4600    0.0050   23.8660 C.3     1  UNL1        0.2423
     24 C         -30.0650   -1.3770   23.5730 C.3     1  UNL1        0.2292
     25 O         -30.7290   -1.8780   24.7210 O.3     1  UNL1       -0.2162
     26 C         -26.3540    0.5760   25.7770 C.3     1  UNL1        0.2559
     27 F         -25.8600   -0.6810   25.7950 F       1  UNL1       -0.2253
     28 N         -24.8387    6.8267   34.8413 N.2     1  UNL1       -0.2423
     29 C         -24.5953    3.0279   31.4523 C.3     1  UNL1        0.1933
     30 C         -25.6723    4.5669   33.4333 C.2     1  UNL1        0.0102
     31 C         -25.2299    5.7082   32.7661 C.2     1  UNL1        0.0188
     32 C         -22.8596    1.3285   28.6381 C.2     1  UNL1        0.3477
     33 C         -22.6641    1.7294   26.2822 C.3     1  UNL1        0.0877
     34 C         -21.4164    1.5951   26.8333 C.3     1  UNL1        0.2650
     35 C         -23.5192    1.4252   27.4290 C.3     1  UNL1        0.1862
     36 C         -24.3256    1.6335   31.2081 C.3     1  UNL1        0.2355
     37 N         -24.8785    1.2531   27.3438 N.3     1  UNL1       -0.2008
     38 O         -25.4996    3.7976   31.2693 O.3     1  UNL1       -0.3446
     39 N         -23.5777    1.3367   29.9703 N.pl3   1  UNL1       -0.0361
     40 N         -21.6065    1.2520   28.2504 N.2     1  UNL1       -0.0649
     41 C         -25.8335    3.3265   32.4079 C.3     1  UNL1        0.1688
     42 C         -25.3918    5.7955   35.5380 C.2     1  UNL1        0.0986
     43 C         -24.6907    6.7770   33.4974 C.2     1  UNL1        0.0986
     44 C         -25.8357    4.6535   34.8598 C.2     1  UNL1        0.0188
@<TRIPOS>BOND
     1     2     7    1
     2     2     1    1
     3     3     2    2
     4     4     3    1
     5     4     5    2
     6     5     6    1
     7     6     7    2
     8     8     1    1
     9     8     9    1
    10     8    12    1
    11     9    36    1
    12     9    10    1
    13    10    11    1
    14    12    11    1
    15    13    37    1
    16    14    13    1
    17    14    15    1
    18    15    18    2
    19    16    17    1
    20    16    15    1
    21    19    14    2
    22    20    21    2
    23    20    19    1
    24    21    26    1
    25    22    21    1
    26    23    22    1
    27    24    23    1
    28    24    25    1
    29    26    27    1
    30    26    13    1
    31    28    42    1
    32    29    36    1
    33    29    41    1
    34    30    44    1
    35    31    30    2
    36    31    43    1
    37    32    39    1
    38    33    34    1
    39    33    35    1
    40    34    40    1
    41    35    37    1
    42    35    32    1
    43    36    39    1
    44    38    29    1
    45    38    41    1
    46    40    32    2
    47    41    30    1
    48    43    28    2
    49    44    42    2
