@<TRIPOS>MOLECULE
No_1225-gen_results/8p0m/2024-11-27-11-27-31/
 10 10 0 0 0
SMALL
GASTEIGER

@<TRIPOS>ATOM
      1 C         -28.0162   -0.8135   28.8779 C.ar    1  UNL1       -0.0039
      2 C         -27.0636   -0.1189   28.6079 C.ar    1  UNL1       -0.0178
      3 C         -25.7923   -0.4302   29.0761 C.3     1  UNL1        0.0520
      4 C         -24.5456    0.3494   28.8225 C.2     1  UNL1       -0.0260
      5 C         -23.2409    0.0217   29.3323 C.2     1  UNL1       -0.0300
      6 C         -29.3456   -0.3422   28.7604 C.ar    1  UNL1       -0.0003
      7 C         -29.5393    0.7392   27.9261 C.ar    1  UNL1       -0.0000
      8 C         -28.4581    1.4661   27.4323 C.ar    1  UNL1       -0.0003
      9 C         -27.1533    1.0444   27.7781 C.ar    1  UNL1       -0.0039
     10 C         -23.1200   -1.2732   29.8795 C.3     1  UNL1        0.0304
@<TRIPOS>BOND
     1     3     4    1
     2     4     5    2
     3     5    10    1
     4     3     2    1
     5     1     2   ar
     6     2     9   ar
     7     9     8   ar
     8     8     7   ar
     9     7     6   ar
    10     6     1   ar
