@<TRIPOS>MOLECULE
No_1229-gen_results/8p0m/2024-11-27-11-27-31/
 15 16 0 0 0
SMALL
GASTEIGER

@<TRIPOS>ATOM
      1 C         -28.0162   -0.8135   28.8779 C.ar    1  UNL1        0.0046
      2 C         -28.4690   -0.7850   29.8287 C.ar    1  UNL1        0.0554
      3 C         -26.5042   -0.7777   28.8766 C.ar    1  UNL1        0.0001
      4 C         -25.8103   -0.8531   30.1028 C.ar    1  UNL1        0.0000
      5 C         -27.9906   -0.8916   31.2257 C.ar    1  UNL1        0.0046
      6 C         -26.6042   -0.8676   31.2652 C.ar    1  UNL1        0.0001
      7 C         -30.0417   -0.7687   29.6526 C.2     1  UNL1        0.2703
      8 N         -30.6973    0.2391   30.2017 N.am    1  UNL1       -0.1566
      9 C         -31.3554    1.0151   29.8089 C.ar    1  UNL1        0.1548
     10 C         -31.7446    1.9706   29.8082 C.ar    1  UNL1        0.0362
     11 N         -32.1508    0.3867   28.7127 N.ar    1  UNL1       -0.2273
     12 C         -32.7321    2.8654   29.1845 C.ar    1  UNL1        0.0045
     13 C         -33.0879    0.9758   27.9911 C.ar    1  UNL1        0.1004
     14 C         -33.4203    2.2385   28.2100 C.ar    1  UNL1        0.0208
     15 O         -30.5432   -1.6385   29.0506 O.2     1  UNL1       -0.2680
@<TRIPOS>BOND
     1     2     7    1
     2     7     8   am
     3     8     9    1
     4     7    15    2
     5     9    10   ar
     6    10    12   ar
     7    12    14   ar
     8    14    13   ar
     9    13    11   ar
    10    11     9   ar
    11     1     2   ar
    12     2     5   ar
    13     5     6   ar
    14     6     4   ar
    15     4     3   ar
    16     3     1   ar
