@<TRIPOS>MOLECULE
outputs/IAG933/test6/raw/output_1231_IAG933_linker_design_.xyz
 46 50 0 0 0
SMALL
GASTEIGER

@<TRIPOS>ATOM
      1 C         -24.8550   -1.0120   30.1430 C.3     1  UNL1        0.0438
      2 C         -24.9730   -2.5050   29.7880 C.2     1  UNL1       -0.0208
      3 C         -23.9060   -3.1730   29.1460 C.2     1  UNL1       -0.0042
      4 C         -23.9890   -4.5490   28.8530 C.2     1  UNL1       -0.0003
      5 C         -25.1370   -5.2800   29.2050 C.2     1  UNL1       -0.0000
      6 C         -26.2320   -4.6110   29.7840 C.2     1  UNL1       -0.0003
      7 C         -26.1550   -3.2320   30.0650 C.2     1  UNL1       -0.0042
      8 C         -25.3870   -0.6790   31.5710 C.3     1  UNL1        0.0813
      9 C         -25.1890    0.7730   32.0280 C.3     1  UNL1        0.0667
     10 C         -25.3360    0.6840   33.5440 C.3     1  UNL1        0.0245
     11 C         -24.8290   -0.7150   33.9050 C.3     1  UNL1        0.0888
     12 N         -24.7580   -1.4810   32.6460 N.3     1  UNL1       -0.2190
     13 C         -25.6880    1.6140   26.4610 C.2     1  UNL1        0.0318
     14 C         -26.2500    2.9200   26.3950 C.2     1  UNL1        0.0739
     15 C         -25.6420    4.0930   27.1230 C.2     1  UNL1        0.2662
     16 N         -25.6140    5.2520   26.4490 N.am    1  UNL1       -0.1997
     17 C         -25.0260    6.4790   26.9630 C.3     1  UNL1        0.1388
     18 O         -25.1430    3.9660   28.2430 O.2     1  UNL1       -0.2683
     19 C         -27.4380    3.0910   25.6450 C.2     1  UNL1        0.1065
     20 N         -28.0750    2.0890   25.0030 N.2     1  UNL1       -0.2081
     21 C         -27.5430    0.8490   25.0790 C.2     1  UNL1        0.2530
     22 O         -28.1930   -0.2080   24.4770 O.2     1  UNL1       -0.4558
     23 C         -29.4600    0.0050   23.8660 C.3     1  UNL1        0.2426
     24 C         -30.0650   -1.3770   23.5730 C.3     1  UNL1        0.2292
     25 O         -30.7290   -1.8780   24.7210 O.3     1  UNL1       -0.2162
     26 C         -26.3540    0.5760   25.7770 C.2     1  UNL1        0.1904
     27 F         -25.8600   -0.6810   25.7950 F       1  UNL1       -0.1995
     28 C         -24.5423    1.2714   27.2501 C.3     1  UNL1        0.1044
     29 O         -28.1497    4.5373   35.0073 O.3     1  UNL1       -0.2152
     30 N         -24.7467    1.5379   28.8148 N.3     1  UNL1       -0.1967
     31 C         -21.7625    1.3449   28.0393 C.2     1  UNL1        0.2592
     32 C         -28.5571    5.2188   33.8224 C.3     1  UNL1        0.2086
     33 O         -21.8586    0.4696   29.2704 O.2     1  UNL1       -0.2810
     34 C         -26.0361    5.3286   33.6041 C.2     1  UNL1       -0.0018
     35 C         -27.2611    4.7053   33.2443 C.2     1  UNL1        0.0104
     36 C         -24.3894    0.3349   28.0472 C.3     1  UNL1        0.1111
     37 N         -24.9226    2.1177   30.0350 N.3     1  UNL1       -0.1142
     38 F         -21.3579    2.0142   27.4749 F       1  UNL1       -0.2053
     39 C         -22.1861    1.7923   27.1170 C.2     1  UNL1        0.1613
     40 C         -23.2293    1.6768   26.2684 C.3     1  UNL1        0.0817
     41 C         -25.8308    1.7806   31.1141 C.3     1  UNL1        0.2200
     42 O         -26.9921    1.3898   30.5019 O.3     1  UNL1       -0.2017
     43 C         -26.0634    3.1401   31.8014 C.2     1  UNL1        0.0215
     44 C         -27.2743    3.6295   32.3010 C.2     1  UNL1       -0.0023
     45 C         -24.8603    3.8357   32.0759 C.2     1  UNL1       -0.0005
     46 C         -24.8277    4.8922   33.0100 C.2     1  UNL1       -0.0004
@<TRIPOS>BOND
     1     2     7    1
     2     2     1    1
     3     3     2    2
     4     4     3    1
     5     4     5    2
     6     5     6    1
     7     6     7    2
     8     8     1    1
     9     8     9    1
    10     8    12    1
    11     9    41    1
    12     9    10    1
    13    10    11    1
    14    12    11    1
    15    13    28    1
    16    14    13    1
    17    14    15    1
    18    15    18    2
    19    16    17    1
    20    16    15    1
    21    19    14    2
    22    20    21    2
    23    20    19    1
    24    21    26    1
    25    22    21    1
    26    23    22    1
    27    24    23    1
    28    24    25    1
    29    26    27    1
    30    26    13    2
    31    28    40    1
    32    28    36    1
    33    28    30    1
    34    30    37    1
    35    31    33    1
    36    32    29    1
    37    35    34    1
    38    35    32    1
    39    36    30    1
    40    37    41    1
    41    39    38    1
    42    39    31    2
    43    40    39    1
    44    41    42    1
    45    41    43    1
    46    43    45    2
    47    43    44    1
    48    44    35    2
    49    45    46    1
    50    46    34    2
