@<TRIPOS>MOLECULE
No_1232-gen_results/8p0m/2024-11-27-11-27-31/
 11 11 0 0 0
SMALL
GASTEIGER

@<TRIPOS>ATOM
      1 C         -28.0162   -0.8135   28.8779 C.ar    1  UNL1        0.0002
      2 C         -27.0636   -0.1189   28.6079 C.ar    1  UNL1        0.0067
      3 C         -26.9716    0.7139   27.5060 C.ar    1  UNL1        0.0343
      4 C         -28.1053    0.7744   26.6421 C.ar    1  UNL1        0.0038
      5 C         -29.2008    0.1044   27.0527 C.ar    1  UNL1       -0.0061
      6 C         -29.2096   -0.6029   28.1853 C.ar    1  UNL1       -0.0029
      7 C         -30.3749    0.2232   26.1670 C.3     1  UNL1        0.0958
      8 N         -30.2997    0.0795   24.9312 N.3     1  UNL1       -0.1299
      9 C         -31.4857   -0.7913   26.6562 C.3     1  UNL1        0.0236
     10 C         -31.0201    1.6924   26.4106 C.3     1  UNL1        0.0236
     11 BR        -25.3493    1.5827   26.9884 Br      1  UNL1       -0.0490
@<TRIPOS>BOND
     1     5     7    1
     2     7     8    1
     3     7     9    1
     4     7    10    1
     5     3    11    1
     6     1     2   ar
     7     2     3   ar
     8     3     4   ar
     9     4     5   ar
    10     5     6   ar
    11     6     1   ar
