@<TRIPOS>MOLECULE
outputs/IAG933/test6/raw/output_1234_IAG933_linker_design_.xyz
 44 47 0 0 0
SMALL
GASTEIGER

@<TRIPOS>ATOM
      1 C         -24.8550   -1.0120   30.1430 C.3     1  UNL1        0.1120
      2 C         -24.9730   -2.5050   29.7880 C.2     1  UNL1       -0.0030
      3 C         -23.9060   -3.1730   29.1460 C.2     1  UNL1       -0.0026
      4 C         -23.9890   -4.5490   28.8530 C.2     1  UNL1       -0.0003
      5 C         -25.1370   -5.2800   29.2050 C.2     1  UNL1       -0.0000
      6 C         -26.2320   -4.6110   29.7840 C.2     1  UNL1       -0.0003
      7 C         -26.1550   -3.2320   30.0650 C.2     1  UNL1       -0.0026
      8 C         -25.3870   -0.6790   31.5710 C.3     1  UNL1        0.0951
      9 C         -25.1890    0.7730   32.0280 C.3     1  UNL1        0.0209
     10 C         -25.3360    0.6840   33.5440 C.3     1  UNL1        0.0203
     11 C         -24.8290   -0.7150   33.9050 C.3     1  UNL1        0.0888
     12 N         -24.7580   -1.4810   32.6460 N.3     1  UNL1       -0.2174
     13 C         -25.6880    1.6140   26.4610 C.2     1  UNL1        0.0384
     14 C         -26.2500    2.9200   26.3950 C.2     1  UNL1        0.0764
     15 C         -25.6420    4.0930   27.1230 C.2     1  UNL1        0.2664
     16 N         -25.6140    5.2520   26.4490 N.am    1  UNL1       -0.1997
     17 C         -25.0260    6.4790   26.9630 C.3     1  UNL1        0.1388
     18 O         -25.1430    3.9660   28.2430 O.2     1  UNL1       -0.2683
     19 C         -27.4380    3.0910   25.6450 C.2     1  UNL1        0.1067
     20 N         -28.0750    2.0890   25.0030 N.2     1  UNL1       -0.2081
     21 C         -27.5430    0.8490   25.0790 C.2     1  UNL1        0.2533
     22 O         -28.1930   -0.2080   24.4770 O.2     1  UNL1       -0.4558
     23 C         -29.4600    0.0050   23.8660 C.3     1  UNL1        0.2426
     24 C         -30.0650   -1.3770   23.5730 C.3     1  UNL1        0.2292
     25 O         -30.7290   -1.8780   24.7210 O.3     1  UNL1       -0.2162
     26 C         -26.3540    0.5760   25.7770 C.2     1  UNL1        0.1929
     27 F         -25.8600   -0.6810   25.7950 F       1  UNL1       -0.1992
     28 C         -27.8762    3.4893   30.3632 C.3     1  UNL1        0.0199
     29 N         -27.7690    1.3269   29.7520 N.am    1  UNL1       -0.2779
     30 N         -24.2715   -0.0410   29.2309 N.pl3   1  UNL1       -0.2917
     31 C         -28.0748    2.6252   29.1632 C.3     1  UNL1        0.0934
     32 F         -21.2745    1.5806   27.6348 F       1  UNL1       -0.2005
     33 C         -25.2819    0.5564   28.4260 C.3     1  UNL1        0.1756
     34 C         -28.7813    0.7554   30.6003 C.3     1  UNL1        0.0935
     35 C         -23.4726    1.4825   27.0131 C.2     1  UNL1        0.1667
     36 C         -26.8741    0.3897   28.9526 C.2     1  UNL1        0.2481
     37 C         -27.7007    4.9224   29.8608 C.3     1  UNL1        0.0018
     38 C         -22.8959    0.2704   28.9340 C.2     1  UNL1        0.0945
     39 C         -29.1034    1.6282   31.8158 C.3     1  UNL1        0.0233
     40 O         -27.3626   -0.6546   28.5672 O.2     1  UNL1       -0.2727
     41 C         -24.7705    1.2062   27.2375 C.2     1  UNL1        0.0367
     42 F         -23.0664    2.2925   26.0285 F       1  UNL1       -0.2020
     43 C         -26.6924    3.1645   31.2086 C.3     1  UNL1        0.0018
     44 C         -22.4682    1.0939   27.8693 C.2     1  UNL1        0.1816
@<TRIPOS>BOND
     1     1     2    1
     2     2     7    1
     3     3     2    2
     4     4     3    1
     5     4     5    2
     6     5     6    1
     7     6     7    2
     8     8     1    1
     9     8     9    1
    10     8    12    1
    11     9    10    1
    12    10    11    1
    13    12    11    1
    14    13    41    1
    15    14    13    1
    16    14    15    1
    17    15    18    2
    18    16    17    1
    19    16    15    1
    20    19    14    2
    21    20    21    2
    22    20    19    1
    23    21    26    1
    24    22    21    1
    25    23    22    1
    26    24    23    1
    27    24    25    1
    28    26    27    1
    29    26    13    2
    30    28    43    1
    31    29    34    1
    32    30     1    1
    33    31    29    1
    34    31    28    1
    35    32    44    1
    36    33    36    1
    37    33    30    1
    38    34    39    1
    39    35    41    2
    40    35    44    1
    41    36    29   am
    42    37    28    1
    43    38    30    1
    44    40    36    2
    45    41    33    1
    46    42    35    1
    47    44    38    2
