@<TRIPOS>MOLECULE
No_1235-gen_results/8p0m/2024-11-27-11-27-31/
 16 18 0 0 0
SMALL
GASTEIGER

@<TRIPOS>ATOM
      1 C         -28.0162   -0.8135   28.8779 C.ar    1  UNL1        0.0000
      2 C         -27.0636   -0.1190   28.6079 C.ar    1  UNL1       -0.0036
      3 C         -27.0010    0.6913   27.4910 C.ar    1  UNL1       -0.0003
      4 C         -25.8548    1.4825   27.0830 C.ar    1  UNL1       -0.0000
      5 C         -24.6901    1.4526   27.8807 C.ar    1  UNL1       -0.0003
      6 C         -24.7379    0.6010   29.0416 C.ar    1  UNL1       -0.0039
      7 C         -25.8234   -0.1688   29.3887 C.ar    1  UNL1       -0.0171
      8 C         -29.2455   -0.0678   29.1937 C.ar    1  UNL1       -0.0000
      9 C         -30.3313   -0.8312   29.6878 C.ar    1  UNL1        0.0000
     10 C         -30.1233   -2.1444   30.1042 C.ar    1  UNL1        0.0000
     11 C         -28.8969   -2.7444   30.1226 C.ar    1  UNL1        0.0003
     12 C         -27.8154   -2.0612   29.6136 C.ar    1  UNL1        0.0049
     13 C         -26.4693   -2.5987   29.7365 C.2     1  UNL1        0.0368
     14 C         -26.1985   -3.8541   30.0489 C.1     1  UNL1        0.0168
     15 C         -25.3427   -1.5921   29.5589 C.3     1  UNL1        0.0620
     16 N         -25.0119   -4.3530   29.6546 N.2     1  UNL1       -0.0956
@<TRIPOS>BOND
     1     1     2    1
     2    12    13    1
     3    13    14    2
     4     7    15    1
     5    13    15    1
     6    14    16    2
     7     1     8   ar
     8     8     9   ar
     9     9    10   ar
    10    10    11   ar
    11    11    12   ar
    12    12     1   ar
    13     2     3   ar
    14     3     4   ar
    15     4     5   ar
    16     5     6   ar
    17     6     7   ar
    18     7     2   ar
