@<TRIPOS>MOLECULE
outputs/IAG933/test6/raw/output_1237_IAG933_linker_design_.xyz
 42 46 0 0 0
SMALL
GASTEIGER

@<TRIPOS>ATOM
      1 C         -24.8550   -1.0120   30.1430 C.3     1  UNL1        0.0420
      2 C         -24.9730   -2.5050   29.7880 C.2     1  UNL1       -0.0210
      3 C         -23.9060   -3.1730   29.1460 C.2     1  UNL1       -0.0042
      4 C         -23.9890   -4.5490   28.8530 C.2     1  UNL1       -0.0003
      5 C         -25.1370   -5.2800   29.2050 C.2     1  UNL1       -0.0000
      6 C         -26.2320   -4.6110   29.7840 C.2     1  UNL1       -0.0003
      7 C         -26.1550   -3.2320   30.0650 C.2     1  UNL1       -0.0042
      8 C         -25.3870   -0.6790   31.5710 C.3     1  UNL1        0.0769
      9 C         -25.1890    0.7730   32.0280 C.3     1  UNL1        0.0192
     10 C         -25.3360    0.6840   33.5440 C.3     1  UNL1        0.0202
     11 C         -24.8290   -0.7150   33.9050 C.3     1  UNL1        0.0887
     12 N         -24.7580   -1.4810   32.6460 N.3     1  UNL1       -0.2191
     13 C         -25.6880    1.6140   26.4610 C.2     1  UNL1        0.0863
     14 C         -26.2500    2.9200   26.3950 C.2     1  UNL1        0.0899
     15 C         -25.6420    4.0930   27.1230 C.2     1  UNL1        0.2676
     16 N         -25.6140    5.2520   26.4490 N.am    1  UNL1       -0.1997
     17 C         -25.0260    6.4790   26.9630 C.3     1  UNL1        0.1388
     18 O         -25.1430    3.9660   28.2430 O.2     1  UNL1       -0.2683
     19 C         -27.4380    3.0910   25.6450 C.2     1  UNL1        0.1080
     20 N         -28.0750    2.0890   25.0030 N.2     1  UNL1       -0.2080
     21 C         -27.5430    0.8490   25.0790 C.2     1  UNL1        0.2546
     22 O         -28.1930   -0.2080   24.4770 O.2     1  UNL1       -0.4558
     23 C         -29.4600    0.0050   23.8660 C.3     1  UNL1        0.2426
     24 C         -30.0650   -1.3770   23.5730 C.3     1  UNL1        0.2292
     25 O         -30.7290   -1.8780   24.7210 O.3     1  UNL1       -0.2162
     26 C         -26.3540    0.5760   25.7770 C.2     1  UNL1        0.2062
     27 F         -25.8600   -0.6810   25.7950 F       1  UNL1       -0.1979
     28 C         -30.5493    1.0254   27.2310 C.2     1  UNL1        0.0031
     29 C         -26.2078   -0.2513   28.3683 C.3     1  UNL1        0.2057
     30 C         -30.1003    2.8756   28.7613 C.2     1  UNL1        0.0031
     31 C         -23.5366    1.6608   27.7895 C.3     1  UNL1        0.0910
     32 O         -27.3688    0.2033   29.2034 O.2     1  UNL1       -0.4755
     33 C         -28.9791    2.1583   29.2548 C.2     1  UNL1        0.0369
     34 N         -24.5960    1.4853   27.0216 N.pl3   1  UNL1       -0.3055
     35 C         -30.8939    2.3012   27.7311 C.2     1  UNL1        0.0002
     36 C         -23.2863    0.1477   28.2774 C.3     1  UNL1        0.0255
     37 C         -20.9069    1.0968   27.3570 C.3     1  UNL1        0.0018
     38 C         -23.1520    1.8120   26.3585 C.3     1  UNL1        0.0908
     39 C         -24.7495   -0.0326   28.9528 C.3     1  UNL1        0.0508
     40 C         -28.6180    0.8908   28.7421 C.2     1  UNL1        0.1386
     41 C         -29.4298    0.3098   27.7197 C.2     1  UNL1        0.0369
     42 C         -21.6261    1.4826   26.1135 C.3     1  UNL1        0.0214
@<TRIPOS>BOND
     1     1    39    1
     2     2     7    1
     3     2     1    1
     4     3     2    2
     5     4     3    1
     6     4     5    2
     7     5     6    1
     8     6     7    2
     9     8     1    1
    10     8     9    1
    11     8    12    1
    12     9    10    1
    13    10    11    1
    14    12    11    1
    15    13    34    1
    16    14    13    1
    17    14    15    1
    18    15    18    2
    19    16    17    1
    20    16    15    1
    21    19    14    2
    22    20    21    2
    23    20    19    1
    24    21    26    1
    25    22    21    1
    26    23    22    1
    27    24    23    1
    28    24    25    1
    29    26    27    1
    30    26    13    2
    31    28    41    2
    32    28    35    1
    33    29    39    1
    34    29    32    1
    35    30    33    1
    36    31    36    1
    37    34    31    1
    38    35    30    2
    39    38    42    1
    40    38    34    1
    41    38    31    1
    42    39    36    1
    43    40    32    1
    44    40    33    2
    45    41    40    1
    46    42    37    1
