@<TRIPOS>MOLECULE
No_1238-gen_results/8p0m/2024-11-27-11-27-31/
 16 16 0 0 0
SMALL
GASTEIGER

@<TRIPOS>ATOM
      1 C         -28.0162   -0.8135   28.8779 C.3     1  UNL1        0.0523
      2 C         -27.0636   -0.1190   28.6079 C.ar    1  UNL1       -0.0178
      3 C         -26.8756    1.1325   28.9134 C.ar    1  UNL1       -0.0039
      4 C         -25.6883    1.9515   28.5672 C.ar    1  UNL1        0.0021
      5 C         -24.6394    1.2834   27.8753 C.ar    1  UNL1        0.0302
      6 C         -24.8068   -0.0513   27.6040 C.ar    1  UNL1        0.0021
      7 C         -25.9019   -0.7670   27.9511 C.ar    1  UNL1       -0.0039
      8 C         -28.6392   -0.5118   30.2403 C.2     1  UNL1       -0.0214
      9 C         -29.6536   -1.1144   30.6354 C.2     1  UNL1       -0.0042
     10 C         -23.4500    1.9911   27.4655 C.2     1  UNL1        0.1598
     11 N         -23.1429    2.6575   26.6254 N.2     1  UNL1       -0.1356
     12 CL        -22.0152    1.5824   28.5430 Cl      1  UNL1       -0.0594
     13 C         -30.2273   -2.1765   29.8783 C.2     1  UNL1       -0.0003
     14 C         -31.3458   -2.8911   30.4017 C.2     1  UNL1       -0.0000
     15 C         -31.8944   -2.5044   31.6005 C.2     1  UNL1       -0.0000
     16 C         -31.4278   -1.5262   32.3869 C.2     1  UNL1       -0.0000
@<TRIPOS>BOND
     1     1     8    1
     2     8     9    2
     3     5    10    1
     4    10    11    2
     5    10    12    1
     6     9    13    1
     7    13    14    2
     8    14    15    1
     9    15    16    2
    10     1     2    1
    11     2     3   ar
    12     3     4   ar
    13     4     5   ar
    14     5     6   ar
    15     6     7   ar
    16     7     2   ar
