@<TRIPOS>MOLECULE
outputs/IAG933/test6/raw/output_1239_IAG933_linker_design_.xyz
 41 45 0 0 0
SMALL
GASTEIGER

@<TRIPOS>ATOM
      1 C         -24.8550   -1.0120   30.1430 C.3     1  UNL1        0.2039
      2 C         -24.9730   -2.5050   29.7880 C.2     1  UNL1        0.0186
      3 C         -23.9060   -3.1730   29.1460 C.2     1  UNL1       -0.0008
      4 C         -23.9890   -4.5490   28.8530 C.2     1  UNL1       -0.0002
      5 C         -25.1370   -5.2800   29.2050 C.2     1  UNL1       -0.0000
      6 C         -26.2320   -4.6110   29.7840 C.2     1  UNL1       -0.0002
      7 C         -26.1550   -3.2320   30.0650 C.2     1  UNL1       -0.0008
      8 C         -25.3870   -0.6790   31.5710 C.3     1  UNL1        0.1170
      9 C         -25.1890    0.7730   32.0280 C.3     1  UNL1        0.0228
     10 C         -25.3360    0.6840   33.5440 C.3     1  UNL1        0.0204
     11 C         -24.8290   -0.7150   33.9050 C.3     1  UNL1        0.0888
     12 N         -24.7580   -1.4810   32.6460 N.3     1  UNL1       -0.2154
     13 C         -25.6880    1.6140   26.4610 C.2     1  UNL1        0.0413
     14 C         -26.2500    2.9200   26.3950 C.2     1  UNL1        0.0766
     15 C         -25.6420    4.0930   27.1230 C.2     1  UNL1        0.2664
     16 N         -25.6140    5.2520   26.4490 N.am    1  UNL1       -0.1997
     17 C         -25.0260    6.4790   26.9630 C.3     1  UNL1        0.1388
     18 O         -25.1430    3.9660   28.2430 O.2     1  UNL1       -0.2683
     19 C         -27.4380    3.0910   25.6450 C.2     1  UNL1        0.1067
     20 N         -28.0750    2.0890   25.0030 N.2     1  UNL1       -0.2081
     21 C         -27.5430    0.8490   25.0790 C.2     1  UNL1        0.2533
     22 O         -28.1930   -0.2080   24.4770 O.2     1  UNL1       -0.4558
     23 C         -29.4600    0.0050   23.8660 C.3     1  UNL1        0.2426
     24 C         -30.0650   -1.3770   23.5730 C.3     1  UNL1        0.2292
     25 O         -30.7290   -1.8780   24.7210 O.3     1  UNL1       -0.2162
     26 C         -26.3540    0.5760   25.7770 C.2     1  UNL1        0.1931
     27 F         -25.8600   -0.6810   25.7950 F       1  UNL1       -0.1992
     28 C         -24.3542    1.3735   27.0653 C.2     1  UNL1        0.0445
     29 C         -24.4144    0.5731   28.1604 C.2     1  UNL1        0.0402
     30 C         -22.0720    0.8704   28.4461 C.2     1  UNL1        0.0402
     31 C         -28.6865    3.5696   30.5579 C.3     1  UNL1        0.0189
     32 C         -25.1282    2.2101   31.6734 C.3     1  UNL1        0.0203
     33 C         -23.2919    0.3551   28.8751 C.2     1  UNL1        0.1391
     34 O         -23.5546   -0.3740   30.0357 O.2     1  UNL1       -0.4733
     35 N         -26.1439    3.7795   30.7094 N.3     1  UNL1       -0.2195
     36 O         -23.1468    2.7314   25.4617 O.2     1  UNL1       -0.2866
     37 C         -23.1692    1.9278   26.5735 C.2     1  UNL1        0.1959
     38 C         -27.2490    3.0115   30.3226 C.3     1  UNL1        0.0741
     39 C         -26.5280    2.8639   31.5102 C.3     1  UNL1        0.0874
     40 C         -22.0018    1.6664   27.2909 C.2     1  UNL1        0.0451
     41 C         -27.5616    1.6112   29.6368 C.3     1  UNL1        0.0189
@<TRIPOS>BOND
     1     1    34    1
     2     2     7    1
     3     2     1    1
     4     3     2    2
     5     4     3    1
     6     4     5    2
     7     5     6    1
     8     6     7    2
     9     8     1    1
    10     8     9    1
    11     8    12    1
    12     9    32    1
    13     9    10    1
    14    10    11    1
    15    12    11    1
    16    13    28    1
    17    14    13    1
    18    14    15    1
    19    15    18    2
    20    16    17    1
    21    16    15    1
    22    19    14    2
    23    20    21    2
    24    20    19    1
    25    21    26    1
    26    22    21    1
    27    23    22    1
    28    24    23    1
    29    24    25    1
    30    26    27    1
    31    26    13    2
    32    28    29    1
    33    29    33    2
    34    30    33    1
    35    33    34    1
    36    35    39    1
    37    36    37    1
    38    37    28    2
    39    37    40    1
    40    38    31    1
    41    38    35    1
    42    38    39    1
    43    39    32    1
    44    40    30    2
    45    41    38    1
