@<TRIPOS>MOLECULE
No_124-gen_results/8p0m/2024-11-27-11-27-31/
 34 37 0 0 0
SMALL
GASTEIGER

@<TRIPOS>ATOM
      1 C         -28.0162   -0.8135   28.8779 C.ar    1  UNL1        0.0161
      2 C         -27.0636   -0.1190   28.6079 C.ar    1  UNL1       -0.0026
      3 C         -26.9716    0.7139   27.5060 C.ar    1  UNL1       -0.0179
      4 C         -28.1053    0.7744   26.6421 C.ar    1  UNL1        0.0019
      5 C         -29.2008    0.1044   27.0527 C.ar    1  UNL1        0.0683
      6 C         -29.2096   -0.6029   28.1853 C.ar    1  UNL1        0.0740
      7 C         -30.3749    0.2232   26.1670 C.2     1  UNL1        0.2534
      8 N         -31.3501   -0.3934   26.4333 N.am    1  UNL1       -0.2306
      9 O         -30.1475    0.5540   24.9280 O.2     1  UNL1       -0.2697
     10 C         -31.6995   -0.9290   27.7304 C.3     1  UNL1        0.3386
     11 N         -30.4723   -1.1914   28.5222 N.pl3   1  UNL1       -0.1884
     12 F         -32.6728   -1.5640   28.0118 F       1  UNL1       -0.1891
     13 C         -32.6182   -0.4013   25.5539 C.3     1  UNL1        0.1194
     14 C         -25.6548    1.3864   27.1133 C.3     1  UNL1        0.0480
     15 C         -25.1999    2.3936   28.0344 C.2     1  UNL1       -0.0421
     16 C         -24.2169    2.8419   28.3763 C.2     1  UNL1       -0.0295
     17 C         -26.3906    3.3827   28.3773 C.3     1  UNL1        0.0439
     18 C         -26.1638    4.4928   29.1713 C.3     1  UNL1        0.1030
     19 C         -22.9678    1.9474   28.0901 C.3     1  UNL1        0.0517
     20 N         -26.9292    5.2544   29.4439 N.am    1  UNL1       -0.2511
     21 C         -26.7451    6.3127   30.2451 C.ar    1  UNL1        0.0543
     22 C         -22.7544    0.8819   29.0072 C.ar    1  UNL1       -0.0178
     23 C         -21.8803   -0.0822   28.7260 C.ar    1  UNL1       -0.0039
     24 C         -27.6632    7.2822   30.6896 C.ar    1  UNL1        0.0149
     25 C         -25.3812    6.8692   30.0395 C.ar    1  UNL1        0.0149
     26 C         -24.9856    7.9679   30.8858 C.ar    1  UNL1        0.0013
     27 C         -27.2706    8.3781   31.5123 C.ar    1  UNL1        0.0013
     28 C         -25.8580    8.8138   31.4637 C.ar    1  UNL1        0.0001
     29 C         -28.3460    5.0780   29.1091 C.2     1  UNL1        0.3069
     30 C         -23.1482    1.0267   30.3579 C.ar    1  UNL1       -0.0039
     31 C         -23.1317   -0.1679   31.1826 C.ar    1  UNL1       -0.0003
     32 C         -21.7614   -1.2371   29.5207 C.ar    1  UNL1       -0.0003
     33 C         -22.2940   -1.1729   30.7960 C.ar    1  UNL1       -0.0000
     34 O         -28.6419    4.1298   28.3430 O.2     1  UNL1       -0.2646
@<TRIPOS>BOND
     1     5     7    1
     2     7     8   am
     3     7     9    2
     4     8    10    1
     5     6    11    1
     6    10    11    1
     7    10    12    1
     8     8    13    1
     9     3    14    1
    10    14    15    1
    11    15    16    2
    12    15    17    1
    13    17    18    1
    14    16    19    1
    15    18    20    1
    16    20    21    1
    17    19    22    1
    18    20    29   am
    19    29    34    2
    20    21    24   ar
    21    24    27   ar
    22    27    28   ar
    23    28    26   ar
    24    26    25   ar
    25    25    21   ar
    26     1     2   ar
    27     2     3   ar
    28     3     4   ar
    29     4     5   ar
    30     5     6   ar
    31     6     1   ar
    32    22    23   ar
    33    23    32   ar
    34    32    33   ar
    35    33    31   ar
    36    31    30   ar
    37    30    22   ar
