@<TRIPOS>MOLECULE
No_1241-gen_results/8p0m/2024-11-27-11-27-31/
 18 20 0 0 0
SMALL
GASTEIGER

@<TRIPOS>ATOM
      1 C         -28.0162   -0.8135   28.8779 C.ar    1  UNL1       -0.0000
      2 C         -27.0636   -0.1189   28.6079 C.ar    1  UNL1       -0.0000
      3 C         -25.7647   -0.3897   29.0360 C.ar    1  UNL1       -0.0001
      4 C         -24.5516    0.4058   28.7646 C.ar    1  UNL1        0.0039
      5 C         -24.6957    1.4480   27.7988 C.ar    1  UNL1        0.0714
      6 C         -26.0010    1.6784   27.2965 C.ar    1  UNL1        0.0039
      7 C         -27.0736    0.9682   27.6500 C.ar    1  UNL1       -0.0000
      8 C         -27.9723   -1.6229   30.1490 C.ar    1  UNL1       -0.0000
      9 C         -26.6814   -2.1373   30.5176 C.ar    1  UNL1       -0.0000
     10 C         -25.5549   -1.4021   30.0997 C.ar    1  UNL1       -0.0000
     11 C         -28.3339    1.2821   26.9402 C.ar    1  UNL1       -0.0000
     12 C         -28.3810    1.8352   25.8039 C.ar    1  UNL1       -0.0000
     13 C         -27.2086    2.7329   25.4225 C.ar    1  UNL1       -0.0000
     14 C         -25.9971    2.6395   26.1611 C.ar    1  UNL1       -0.0001
     15 C         -23.4755    2.2077   27.4363 C.3     1  UNL1        0.4186
     16 F         -22.9274    2.7453   28.4186 F       1  UNL1       -0.1659
     17 F         -22.5400    1.4929   26.7027 F       1  UNL1       -0.1659
     18 F         -23.7634    3.3446   26.7006 F       1  UNL1       -0.1659
@<TRIPOS>BOND
     1     5    15    1
     2    15    16    1
     3    15    17    1
     4    15    18    1
     5     3     4   ar
     6     4     5   ar
     7     5     6   ar
     8     7     2   ar
     9     1     2   ar
    10     2     3   ar
    11     3    10   ar
    12    10     9   ar
    13     9     8   ar
    14     8     1   ar
    15     6     7   ar
    16     7    11   ar
    17    11    12   ar
    18    12    13   ar
    19    13    14   ar
    20    14     6   ar
