@<TRIPOS>MOLECULE
outputs/IAG933/test6/raw/output_1243_IAG933_linker_design_.xyz
 45 49 0 0 0
SMALL
GASTEIGER

@<TRIPOS>ATOM
      1 C         -24.8550   -1.0120   30.1430 C.3     1  UNL1        0.0604
      2 C         -24.9730   -2.5050   29.7880 C.2     1  UNL1       -0.0171
      3 C         -23.9060   -3.1730   29.1460 C.2     1  UNL1       -0.0039
      4 C         -23.9890   -4.5490   28.8530 C.2     1  UNL1       -0.0003
      5 C         -25.1370   -5.2800   29.2050 C.2     1  UNL1       -0.0000
      6 C         -26.2320   -4.6110   29.7840 C.2     1  UNL1       -0.0003
      7 C         -26.1550   -3.2320   30.0650 C.2     1  UNL1       -0.0039
      8 C         -25.3870   -0.6790   31.5710 C.3     1  UNL1        0.0808
      9 C         -25.1890    0.7730   32.0280 C.3     1  UNL1        0.0195
     10 C         -25.3360    0.6840   33.5440 C.3     1  UNL1        0.0203
     11 C         -24.8290   -0.7150   33.9050 C.3     1  UNL1        0.0887
     12 N         -24.7580   -1.4810   32.6460 N.3     1  UNL1       -0.2188
     13 C         -25.6880    1.6140   26.4610 C.2     1  UNL1        0.0407
     14 C         -26.2500    2.9200   26.3950 C.2     1  UNL1        0.0745
     15 C         -25.6420    4.0930   27.1230 C.2     1  UNL1        0.2243
     16 N         -25.6140    5.2520   26.4490 N.2     1  UNL1       -0.2356
     17 C         -25.0260    6.4790   26.9630 C.3     1  UNL1        0.1550
     18 O         -25.1430    3.9660   28.2430 O.2     1  UNL1       -0.4328
     19 C         -27.4380    3.0910   25.6450 C.2     1  UNL1        0.1068
     20 N         -28.0750    2.0890   25.0030 N.2     1  UNL1       -0.2081
     21 C         -27.5430    0.8490   25.0790 C.2     1  UNL1        0.2533
     22 O         -28.1930   -0.2080   24.4770 O.2     1  UNL1       -0.4558
     23 C         -29.4600    0.0050   23.8660 C.3     1  UNL1        0.2426
     24 C         -30.0650   -1.3770   23.5730 C.3     1  UNL1        0.2292
     25 O         -30.7290   -1.8780   24.7210 O.3     1  UNL1       -0.2162
     26 C         -26.3540    0.5760   25.7770 C.2     1  UNL1        0.1931
     27 F         -25.8600   -0.6810   25.7950 F       1  UNL1       -0.1992
     28 C         -29.0854    6.2712   28.8682 C.3     1  UNL1        0.0409
     29 C         -27.1555    3.0238   30.0695 C.3     1  UNL1        0.1734
     30 C         -21.7328    0.3225   28.6986 C.2     1  UNL1        0.0293
     31 C         -27.4607    4.5301   29.7189 C.2     1  UNL1        0.0159
     32 C         -24.1123    1.7473   29.1562 C.2     1  UNL1        0.0459
     33 C         -30.5197    5.5693   26.9494 C.3     1  UNL1        0.0218
     34 N         -29.4859    3.8587   28.3578 N.pl3   1  UNL1       -0.3093
     35 C         -22.1304    1.4007   27.9320 C.2     1  UNL1        0.1400
     36 C         -22.6418   -0.2242   29.5807 C.2     1  UNL1       -0.0017
     37 C         -29.8022    2.4374   28.6994 C.3     1  UNL1        0.1119
     38 O         -25.7686    3.1280   30.3078 O.3     1  UNL1       -0.3122
     39 C         -25.1242    3.0508   29.3010 C.3     1  UNL1        0.3139
     40 C         -30.4887    6.3125   28.2763 C.3     1  UNL1        0.0077
     41 C         -29.7573    4.2608   26.9448 C.3     1  UNL1        0.0905
     42 C         -23.8884    0.1400   29.6804 C.2     1  UNL1       -0.0150
     43 C         -23.2494    2.0948   28.2100 C.2     1  UNL1        0.0311
     44 F         -21.4023    1.8796   26.9269 F       1  UNL1       -0.2042
     45 C         -28.6772    4.8131   28.9356 C.2     1  UNL1        0.0230
@<TRIPOS>BOND
     1     1    42    1
     2     2     7    1
     3     2     1    1
     4     3     2    2
     5     4     3    1
     6     4     5    2
     7     5     6    1
     8     6     7    2
     9     8     1    1
    10     8     9    1
    11     8    12    1
    12     9    10    1
    13    10    11    1
    14    12    11    1
    15    14    13    1
    16    14    15    1
    17    15    18    1
    18    16    17    1
    19    16    15    2
    20    19    14    2
    21    20    21    2
    22    20    19    1
    23    21    26    1
    24    22    21    1
    25    23    22    1
    26    24    23    1
    27    24    25    1
    28    26    27    1
    29    26    13    2
    30    28    45    1
    31    29    38    1
    32    30    36    1
    33    31    29    1
    34    32    39    1
    35    32    42    1
    36    33    40    1
    37    34    37    1
    38    34    45    1
    39    35    43    1
    40    35    30    2
    41    36    42    2
    42    39    18    1
    43    39    38    1
    44    40    28    1
    45    41    33    1
    46    41    34    1
    47    43    32    2
    48    44    35    1
    49    45    31    2
