@<TRIPOS>MOLECULE
outputs/IAG933/test6/raw/output_1244_IAG933_linker_design_.xyz
 59 66 0 0 0
SMALL
GASTEIGER

@<TRIPOS>ATOM
      1 C         -24.8550   -1.0120   30.1430 C.3     1  UNL1        0.2055
      2 C         -24.9730   -2.5050   29.7880 C.2     1  UNL1        0.0186
      3 C         -23.9060   -3.1730   29.1460 C.2     1  UNL1       -0.0008
      4 C         -23.9890   -4.5490   28.8530 C.2     1  UNL1       -0.0002
      5 C         -25.1370   -5.2800   29.2050 C.2     1  UNL1       -0.0000
      6 C         -26.2320   -4.6110   29.7840 C.2     1  UNL1       -0.0002
      7 C         -26.1550   -3.2320   30.0650 C.2     1  UNL1       -0.0008
      8 C         -25.3870   -0.6790   31.5710 C.3     1  UNL1        0.1170
      9 C         -25.1890    0.7730   32.0280 C.3     1  UNL1        0.0229
     10 C         -25.3360    0.6840   33.5440 C.3     1  UNL1        0.0204
     11 C         -24.8290   -0.7150   33.9050 C.3     1  UNL1        0.0888
     12 N         -24.7580   -1.4810   32.6460 N.3     1  UNL1       -0.2154
     13 C         -25.6880    1.6140   26.4610 C.3     1  UNL1        0.0918
     14 C         -26.2500    2.9200   26.3950 C.2     1  UNL1        0.0567
     15 C         -25.6420    4.0930   27.1230 C.2     1  UNL1        0.2183
     16 N         -25.6140    5.2520   26.4490 N.2     1  UNL1       -0.2359
     17 C         -25.0260    6.4790   26.9630 C.3     1  UNL1        0.1550
     18 O         -25.1430    3.9660   28.2430 O.2     1  UNL1       -0.4598
     19 C         -27.4380    3.0910   25.6450 C.2     1  UNL1        0.1025
     20 N         -28.0750    2.0890   25.0030 N.2     1  UNL1       -0.2118
     21 C         -27.5430    0.8490   25.0790 C.2     1  UNL1        0.2344
     22 O         -28.1930   -0.2080   24.4770 O.2     1  UNL1       -0.4585
     23 C         -29.4600    0.0050   23.8660 C.3     1  UNL1        0.2423
     24 C         -30.0650   -1.3770   23.5730 C.3     1  UNL1        0.2292
     25 O         -30.7290   -1.8780   24.7210 O.3     1  UNL1       -0.2162
     26 C         -26.3540    0.5760   25.7770 C.3     1  UNL1        0.2440
     27 F         -25.8600   -0.6810   25.7950 F       1  UNL1       -0.2265
     28 C         -25.7420    3.7165   29.5270 C.3     1  UNL1        0.1898
     29 C         -32.2105    3.5572   32.2181 C.3     1  UNL1        0.1239
     30 C         -28.5236    5.2982   31.0190 C.3     1  UNL1        0.1778
     31 C         -33.8738    5.9219   31.4317 C.3     1  UNL1        0.0355
     32 N         -21.7967    0.5362   28.8569 N.2     1  UNL1       -0.2375
     33 N         -27.6706    6.1477   30.8380 N.3     1  UNL1       -0.2509
     34 C         -32.5992    5.8189   30.8195 C.3     1  UNL1        0.0340
     35 C         -31.6138    4.9453   31.1798 C.3     1  UNL1        0.1367
     36 C         -26.5377    3.9109   30.8176 C.3     1  UNL1        0.0513
     37 N         -32.3156    2.1996   31.5466 N.am    1  UNL1       -0.2158
     38 C         -28.0398    7.1362   29.7731 C.3     1  UNL1        0.0743
     39 O         -23.5464   -0.5008   30.0773 O.2     1  UNL1       -0.4582
     40 C         -21.2720    1.2747   27.8532 C.3     1  UNL1        0.1333
     41 C         -33.7741    3.8067   32.5974 C.3     1  UNL1        0.0570
     42 C         -33.7477    5.2868   32.9781 C.3     1  UNL1        0.1539
     43 C         -22.1205    1.7660   26.9219 C.3     1  UNL1        0.0526
     44 C         -28.9883    2.8524   30.5981 C.3     1  UNL1        0.1032
     45 O         -29.9679    5.5437   31.0023 O.3     1  UNL1       -0.3416
     46 C         -24.8005    2.3357   29.5747 C.2     1  UNL1        0.0209
     47 C         -23.4780    1.6373   27.2717 C.2     1  UNL1       -0.0197
     48 O         -30.5537    0.8347   31.0380 O.2     1  UNL1       -0.5250
     49 C         -28.8747    8.2486   30.4294 C.3     1  UNL1        0.0188
     50 C         -26.4685    6.0338   31.6118 C.3     1  UNL1        0.0744
     51 C         -23.8412    1.4447   28.6101 C.2     1  UNL1        0.0478
     52 N         -30.4153    2.8032   30.0173 N.am    1  UNL1       -0.2679
     53 O         -34.0126    6.1862   33.9174 O.3     1  UNL1       -0.2231
     54 C         -31.1985    1.9267   30.7839 C.2     1  UNL1        0.1659
     55 C         -24.2909    1.6282   26.2116 C.2     1  UNL1       -0.0227
     56 C         -27.9861    3.9970   30.8242 C.3     1  UNL1        0.0673
     57 C         -25.9874    4.7537   31.8293 C.3     1  UNL1        0.0215
     58 O         -30.6723    3.4233   28.8522 O.3     1  UNL1       -0.4187
     59 C         -23.1506    0.5024   29.2232 C.2     1  UNL1        0.2200
@<TRIPOS>BOND
     1     1    39    1
     2     2     7    1
     3     2     1    1
     4     3     2    2
     5     4     3    1
     6     4     5    2
     7     5     6    1
     8     6     7    2
     9     8     1    1
    10     8     9    1
    11     8    12    1
    12     9    10    1
    13    10    11    1
    14    12    11    1
    15    13    55    1
    16    14    13    1
    17    14    15    1
    18    15    18    1
    19    16    17    1
    20    16    15    2
    21    18    28    1
    22    19    14    2
    23    20    21    2
    24    20    19    1
    25    21    26    1
    26    22    21    1
    27    23    22    1
    28    24    23    1
    29    24    25    1
    30    26    27    1
    31    26    13    1
    32    28    46    1
    33    28    36    1
    34    29    41    1
    35    30    45    1
    36    31    42    1
    37    32    59    2
    38    33    30    1
    39    33    50    1
    40    34    31    1
    41    35    34    1
    42    35    29    1
    43    36    56    1
    44    36    57    1
    45    37    29    1
    46    38    49    1
    47    38    33    1
    48    40    32    1
    49    41    42    1
    50    42    53    1
    51    43    47    1
    52    43    40    1
    53    45    35    1
    54    47    51    1
    55    50    57    1
    56    51    59    1
    57    51    46    2
    58    52    44    1
    59    52    54   am
    60    54    48    2
    61    54    37    1
    62    55    47    2
    63    56    44    1
    64    56    30    1
    65    58    52    1
    66    59    39    1
