@<TRIPOS>MOLECULE
outputs/IAG933/test6/raw/output_1245_IAG933_linker_design_.xyz
 41 44 0 0 0
SMALL
GASTEIGER

@<TRIPOS>ATOM
      1 C         -24.8550   -1.0120   30.1430 C.3     1  UNL1        0.1214
      2 C         -24.9730   -2.5050   29.7880 C.2     1  UNL1       -0.0025
      3 C         -23.9060   -3.1730   29.1460 C.2     1  UNL1       -0.0026
      4 C         -23.9890   -4.5490   28.8530 C.2     1  UNL1       -0.0003
      5 C         -25.1370   -5.2800   29.2050 C.2     1  UNL1       -0.0000
      6 C         -26.2320   -4.6110   29.7840 C.2     1  UNL1       -0.0003
      7 C         -26.1550   -3.2320   30.0650 C.2     1  UNL1       -0.0026
      8 C         -25.3870   -0.6790   31.5710 C.3     1  UNL1        0.0956
      9 C         -25.1890    0.7730   32.0280 C.3     1  UNL1        0.0209
     10 C         -25.3360    0.6840   33.5440 C.3     1  UNL1        0.0203
     11 C         -24.8290   -0.7150   33.9050 C.3     1  UNL1        0.0888
     12 N         -24.7580   -1.4810   32.6460 N.3     1  UNL1       -0.2174
     13 C         -25.6880    1.6140   26.4610 C.2     1  UNL1        0.0425
     14 C         -26.2500    2.9200   26.3950 C.2     1  UNL1        0.0767
     15 C         -25.6420    4.0930   27.1230 C.2     1  UNL1        0.2664
     16 N         -25.6140    5.2520   26.4490 N.am    1  UNL1       -0.1997
     17 C         -25.0260    6.4790   26.9630 C.3     1  UNL1        0.1388
     18 O         -25.1430    3.9660   28.2430 O.2     1  UNL1       -0.2683
     19 C         -27.4380    3.0910   25.6450 C.2     1  UNL1        0.1067
     20 N         -28.0750    2.0890   25.0030 N.2     1  UNL1       -0.2081
     21 C         -27.5430    0.8490   25.0790 C.2     1  UNL1        0.2533
     22 O         -28.1930   -0.2080   24.4770 O.2     1  UNL1       -0.4558
     23 C         -29.4600    0.0050   23.8660 C.3     1  UNL1        0.2426
     24 C         -30.0650   -1.3770   23.5730 C.3     1  UNL1        0.2292
     25 O         -30.7290   -1.8780   24.7210 O.3     1  UNL1       -0.2162
     26 C         -26.3540    0.5760   25.7770 C.2     1  UNL1        0.1932
     27 F         -25.8600   -0.6810   25.7950 F       1  UNL1       -0.1992
     28 C         -23.4396    1.9654   26.2645 C.ar    1  UNL1        0.2265
     29 F         -21.1659    1.7590   25.5578 F       1  UNL1       -0.1983
     30 C         -24.4639    1.3642   27.0913 C.ar    1  UNL1        0.0599
     31 N         -25.2539   -0.0149   29.1153 N.am    1  UNL1       -0.2161
     32 O         -27.5620   -0.4887   28.8937 O.co2   1  UNL1       -0.2220
     33 C         -26.6517    0.3384   29.1388 C.2     1  UNL1        0.4512
     34 F         -22.4250   -0.4251   29.5325 F       1  UNL1       -0.2004
     35 F         -20.5349    1.0108   27.9331 F       1  UNL1       -0.1993
     36 C         -21.8482    0.9855   27.6858 C.ar    1  UNL1        0.1990
     37 O         -23.6471    2.7701   25.2007 O.3     1  UNL1       -0.2840
     38 C         -22.1366    1.6162   26.4709 C.ar    1  UNL1        0.2083
     39 C         -24.2416    0.5710   28.2396 C.ar    1  UNL1        0.0903
     40 O         -27.0248    1.4873   29.4606 O.co2   1  UNL1       -0.2220
     41 C         -22.8448    0.3772   28.4990 C.ar    1  UNL1        0.1835
@<TRIPOS>BOND
     1     1    31    1
     2     2     7    1
     3     2     1    1
     4     3     2    2
     5     4     3    1
     6     4     5    2
     7     5     6    1
     8     6     7    2
     9     8     1    1
    10     8     9    1
    11     8    12    1
    12     9    10    1
    13    10    11    1
    14    12    11    1
    15    13    30    1
    16    14    13    1
    17    14    15    1
    18    15    18    2
    19    16    17    1
    20    16    15    1
    21    19    14    2
    22    20    21    2
    23    20    19    1
    24    21    26    1
    25    22    21    1
    26    23    22    1
    27    24    23    1
    28    24    25    1
    29    26    27    1
    30    26    13    2
    31    28    38   ar
    32    28    30   ar
    33    29    38    1
    34    30    39   ar
    35    31    33   am
    36    32    33   ar
    37    33    40   ar
    38    36    35    1
    39    36    41   ar
    40    37    28    1
    41    38    36   ar
    42    39    41   ar
    43    39    31    1
    44    41    34    1
