@<TRIPOS>MOLECULE
No_1246-gen_results/8p0m/2024-11-27-11-27-31/
 35 39 0 0 0
SMALL
GASTEIGER

@<TRIPOS>ATOM
      1 C         -28.0162   -0.8135   28.8779 C.ar    1  UNL1        0.0067
      2 C         -27.0636   -0.1190   28.6079 C.ar    1  UNL1        0.0005
      3 C         -25.7923   -0.4302   29.0761 C.ar    1  UNL1        0.0001
      4 C         -24.5456    0.3494   28.8225 C.ar    1  UNL1        0.0027
      5 C         -23.2409    0.0217   29.3323 C.ar    1  UNL1        0.0001
      6 C         -23.1926   -1.2816   29.8967 C.ar    1  UNL1        0.0000
      7 C         -27.8703   -1.9138   29.8642 C.ar    1  UNL1        0.0346
      8 C         -26.6310   -2.3256   30.2990 C.ar    1  UNL1        0.0067
      9 C         -25.5115   -1.5728   29.9655 C.ar    1  UNL1        0.0005
     10 C         -24.2124   -1.9703   30.3280 C.ar    1  UNL1        0.0000
     11 C         -24.5933    1.5941   27.9969 C.ar    1  UNL1        0.0334
     12 C         -25.0566    1.5294   26.7501 C.ar    1  UNL1        0.0044
     13 C         -24.6781    2.6084   28.6919 C.ar    1  UNL1        0.1516
     14 N         -24.8742    3.8368   28.0620 N.ar    1  UNL1       -0.2274
     15 C         -25.1137    2.6781   25.9769 C.ar    1  UNL1        0.0208
     16 C         -25.0279    3.8764   26.7140 C.ar    1  UNL1        0.1004
     17 N         -24.4361    2.8291   30.0623 N.pl3   1  UNL1       -0.1941
     18 BR        -29.4338   -2.9024   30.2984 Br      1  UNL1       -0.0490
     19 C         -25.4918    2.9080   31.0446 C.ar    1  UNL1        0.0723
     20 C         -25.1754    2.6681   32.3165 C.ar    1  UNL1        0.0166
     21 C         -26.7918    3.0363   30.5861 C.ar    1  UNL1        0.0211
     22 C         -27.8346    2.9415   31.5249 C.ar    1  UNL1        0.0567
     23 C         -26.1850    2.6509   33.3341 C.ar    1  UNL1        0.0015
     24 C         -29.2356    3.0736   31.1494 C.2     1  UNL1        0.2691
     25 C         -27.5012    2.7356   32.8895 C.ar    1  UNL1        0.0047
     26 O         -29.9411    2.1433   31.4559 O.2     1  UNL1       -0.2680
     27 N         -29.6134    4.0603   30.3634 N.am    1  UNL1       -0.1741
     28 C         -28.8684    5.1961   29.9365 C.2     1  UNL1        0.0889
     29 C         -29.3376    6.0875   29.1382 C.2     1  UNL1        0.0179
     30 C         -30.3396    6.7637   29.5575 C.ar    1  UNL1        0.0013
     31 C         -30.9155    7.7410   28.7675 C.ar    1  UNL1        0.0000
     32 C         -32.0451    8.5320   29.1234 C.ar    1  UNL1        0.0000
     33 C         -32.6095    8.2167   30.3883 C.ar    1  UNL1        0.0000
     34 C         -32.1095    7.2606   31.1927 C.ar    1  UNL1        0.0000
     35 C         -31.0001    6.5566   30.8379 C.ar    1  UNL1        0.0000
@<TRIPOS>BOND
     1     4    11    1
     2    13    17    1
     3     7    18    1
     4    17    19    1
     5    22    24    1
     6    24    26    2
     7    24    27   am
     8    27    28    1
     9    28    29    2
    10    29    30    1
    11     1     2   ar
    12     2     3   ar
    13     9     8   ar
    14     8     7   ar
    15     7     1   ar
    16    19    20   ar
    17    20    23   ar
    18    23    25   ar
    19    25    22   ar
    20    22    21   ar
    21    21    19   ar
    22    30    31   ar
    23    31    32   ar
    24    32    33   ar
    25    33    34   ar
    26    34    35   ar
    27    35    30   ar
    28     3     4   ar
    29     4     5   ar
    30     5     6   ar
    31     6    10   ar
    32    10     9   ar
    33     9     3   ar
    34    11    12   ar
    35    12    15   ar
    36    15    16   ar
    37    16    14   ar
    38    14    13   ar
    39    13    11   ar
