@<TRIPOS>MOLECULE
outputs/IAG933/test6/raw/output_1248_IAG933_linker_design_.xyz
 42 45 0 0 0
SMALL
GASTEIGER

@<TRIPOS>ATOM
      1 C         -24.8550   -1.0120   30.1430 C.3     1  UNL1        0.0625
      2 C         -24.9730   -2.5050   29.7880 C.2     1  UNL1       -0.0191
      3 C         -23.9060   -3.1730   29.1460 C.2     1  UNL1       -0.0042
      4 C         -23.9890   -4.5490   28.8530 C.2     1  UNL1       -0.0003
      5 C         -25.1370   -5.2800   29.2050 C.2     1  UNL1       -0.0000
      6 C         -26.2320   -4.6110   29.7840 C.2     1  UNL1       -0.0003
      7 C         -26.1550   -3.2320   30.0650 C.2     1  UNL1       -0.0042
      8 C         -25.3870   -0.6790   31.5710 C.3     1  UNL1        0.0788
      9 C         -25.1890    0.7730   32.0280 C.3     1  UNL1        0.0193
     10 C         -25.3360    0.6840   33.5440 C.3     1  UNL1        0.0202
     11 C         -24.8290   -0.7150   33.9050 C.3     1  UNL1        0.0887
     12 N         -24.7580   -1.4810   32.6460 N.3     1  UNL1       -0.2191
     13 C         -25.6880    1.6140   26.4610 C.3     1  UNL1        0.0985
     14 C         -26.2500    2.9200   26.3950 C.2     1  UNL1        0.0591
     15 C         -25.6420    4.0930   27.1230 C.2     1  UNL1        0.2628
     16 N         -25.6140    5.2520   26.4490 N.am    1  UNL1       -0.2000
     17 C         -25.0260    6.4790   26.9630 C.3     1  UNL1        0.1388
     18 O         -25.1430    3.9660   28.2430 O.2     1  UNL1       -0.2686
     19 C         -27.4380    3.0910   25.6450 C.2     1  UNL1        0.1025
     20 N         -28.0750    2.0890   25.0030 N.2     1  UNL1       -0.2118
     21 C         -27.5430    0.8490   25.0790 C.2     1  UNL1        0.2344
     22 O         -28.1930   -0.2080   24.4770 O.2     1  UNL1       -0.4585
     23 C         -29.4600    0.0050   23.8660 C.3     1  UNL1        0.2423
     24 C         -30.0650   -1.3770   23.5730 C.3     1  UNL1        0.2292
     25 O         -30.7290   -1.8780   24.7210 O.3     1  UNL1       -0.2162
     26 C         -26.3540    0.5760   25.7770 C.3     1  UNL1        0.2442
     27 F         -25.8600   -0.6810   25.7950 F       1  UNL1       -0.2265
     28 O         -23.3940    3.0265   25.2965 O.2     1  UNL1       -0.2448
     29 C         -21.5417    1.3175   27.7986 C.2     1  UNL1        0.2122
     30 C         -29.4363   -0.1943   27.4741 C.3     1  UNL1        0.0096
     31 C         -24.9593   -0.0145   28.9668 C.3     1  UNL1        0.1249
     32 O         -21.8909    2.1068   26.6696 O.3     1  UNL1       -0.4157
     33 C         -27.6626   -0.0588   29.0686 C.2     1  UNL1        0.2411
     34 C         -22.5720    0.7186   28.5398 C.2     1  UNL1        0.1752
     35 F         -22.2176    0.0783   29.6548 F       1  UNL1       -0.2011
     36 C         -23.2420    2.1461   26.3265 C.2     1  UNL1        0.3421
     37 C         -24.2571    1.4743   26.9368 C.2     1  UNL1        0.0608
     38 C         -28.7461    0.6950   28.5486 C.3     1  UNL1        0.0782
     39 C         -29.1822    1.7626   29.6046 C.3     1  UNL1        0.0096
     40 C         -23.9355    0.7311   28.1270 C.2     1  UNL1        0.0311
     41 O         -27.9152   -1.2426   29.4978 O.2     1  UNL1       -0.2733
     42 N         -26.3181    0.5762   28.7817 N.am    1  UNL1       -0.2022
@<TRIPOS>BOND
     1     1    31    1
     2     2     7    1
     3     2     1    1
     4     3     2    2
     5     4     3    1
     6     4     5    2
     7     5     6    1
     8     6     7    2
     9     8     1    1
    10     8     9    1
    11     8    12    1
    12     9    10    1
    13    10    11    1
    14    12    11    1
    15    13    37    1
    16    14    13    1
    17    14    15    1
    18    15    18    2
    19    16    17    1
    20    16    15    1
    21    19    14    2
    22    20    21    2
    23    20    19    1
    24    21    26    1
    25    22    21    1
    26    23    22    1
    27    24    23    1
    28    24    25    1
    29    26    27    1
    30    26    13    1
    31    28    36    2
    32    29    34    2
    33    30    38    1
    34    31    42    1
    35    32    29    1
    36    33    41    2
    37    34    35    1
    38    36    32    1
    39    36    37    1
    40    37    40    2
    41    38    33    1
    42    38    39    1
    43    40    34    1
    44    40    31    1
    45    42    33    1
