@<TRIPOS>MOLECULE
outputs/IAG933/test6/raw/output_1250_IAG933_linker_design_.xyz
 45 49 0 0 0
SMALL
GASTEIGER

@<TRIPOS>ATOM
      1 C         -24.8550   -1.0120   30.1430 C.3     1  UNL1        0.1163
      2 C         -24.9730   -2.5050   29.7880 C.2     1  UNL1       -0.0125
      3 C         -23.9060   -3.1730   29.1460 C.2     1  UNL1       -0.0038
      4 C         -23.9890   -4.5490   28.8530 C.2     1  UNL1       -0.0003
      5 C         -25.1370   -5.2800   29.2050 C.2     1  UNL1       -0.0000
      6 C         -26.2320   -4.6110   29.7840 C.2     1  UNL1       -0.0003
      7 C         -26.1550   -3.2320   30.0650 C.2     1  UNL1       -0.0038
      8 C         -25.3870   -0.6790   31.5710 C.3     1  UNL1        0.0855
      9 C         -25.1890    0.7730   32.0280 C.3     1  UNL1        0.0197
     10 C         -25.3360    0.6840   33.5440 C.3     1  UNL1        0.0203
     11 C         -24.8290   -0.7150   33.9050 C.3     1  UNL1        0.0887
     12 N         -24.7580   -1.4810   32.6460 N.3     1  UNL1       -0.2186
     13 C         -25.6880    1.6140   26.4610 C.2     1  UNL1        0.0392
     14 C         -26.2500    2.9200   26.3950 C.2     1  UNL1        0.0721
     15 C         -25.6420    4.0930   27.1230 C.2     1  UNL1        0.2216
     16 N         -25.6140    5.2520   26.4490 N.2     1  UNL1       -0.2357
     17 C         -25.0260    6.4790   26.9630 C.3     1  UNL1        0.1550
     18 O         -25.1430    3.9660   28.2430 O.2     1  UNL1       -0.4616
     19 C         -27.4380    3.0910   25.6450 C.2     1  UNL1        0.1065
     20 N         -28.0750    2.0890   25.0030 N.2     1  UNL1       -0.2081
     21 C         -27.5430    0.8490   25.0790 C.2     1  UNL1        0.2530
     22 O         -28.1930   -0.2080   24.4770 O.2     1  UNL1       -0.4558
     23 C         -29.4600    0.0050   23.8660 C.3     1  UNL1        0.2426
     24 C         -30.0650   -1.3770   23.5730 C.3     1  UNL1        0.2292
     25 O         -30.7290   -1.8780   24.7210 O.3     1  UNL1       -0.2162
     26 C         -26.3540    0.5760   25.7770 C.2     1  UNL1        0.1908
     27 F         -25.8600   -0.6810   25.7950 F       1  UNL1       -0.1995
     28 O         -21.6940    2.0013   26.0755 O.3     1  UNL1       -0.2156
     29 C         -24.5651    1.4304   27.5254 C.3     1  UNL1        0.1626
     30 N         -25.2772    1.1441   28.7379 N.am    1  UNL1       -0.1985
     31 O         -26.6792   -0.5741   28.6242 O.2     1  UNL1       -0.2729
     32 C         -21.6081    0.0809   28.7736 C.2     1  UNL1        0.3528
     33 C         -25.8050    5.0209   30.3234 C.3     1  UNL1        0.0488
     34 O         -22.9698    0.2354   28.8341 O.3     1  UNL1       -0.4454
     35 C         -25.7084   -0.0863   29.1105 C.2     1  UNL1        0.2467
     36 C         -22.1007    1.4909   27.2160 C.3     1  UNL1        0.2371
     37 C         -23.2606    1.0650   27.7359 C.3     1  UNL1        0.2262
     38 O         -20.9591   -0.8920   29.1166 O.2     1  UNL1       -0.2470
     39 C         -26.8365    2.7832   29.8786 C.3     1  UNL1        0.1854
     40 C         -21.1279    1.0935   28.0294 C.3     1  UNL1        0.2921
     41 C         -25.5862    3.6731   29.6277 C.3     1  UNL1        0.1970
     42 C         -27.9136    4.5576   31.3212 C.3     1  UNL1        0.1424
     43 C         -27.2889    5.3456   30.1887 C.3     1  UNL1        0.0359
     44 O         -27.5251    3.1768   31.0659 O.3     1  UNL1       -0.3499
     45 F         -19.9243    1.6505   28.1147 F       1  UNL1       -0.2223
@<TRIPOS>BOND
     1     1    35    1
     2     2     7    1
     3     2     1    1
     4     3     2    2
     5     4     3    1
     6     4     5    2
     7     5     6    1
     8     6     7    2
     9     8     1    1
    10     8     9    1
    11     8    12    1
    12     9    10    1
    13    10    11    1
    14    12    11    1
    15    13    29    1
    16    14    13    1
    17    14    15    1
    18    15    18    1
    19    16    17    1
    20    16    15    2
    21    19    14    2
    22    20    21    2
    23    20    19    1
    24    21    26    1
    25    22    21    1
    26    23    22    1
    27    24    23    1
    28    24    25    1
    29    26    27    1
    30    26    13    2
    31    29    30    1
    32    30    35    1
    33    31    35    2
    34    32    34    1
    35    32    38    2
    36    36    28    1
    37    36    37    1
    38    36    40    1
    39    37    29    1
    40    37    34    1
    41    39    44    1
    42    40    45    1
    43    40    32    1
    44    41    18    1
    45    41    39    1
    46    41    33    1
    47    43    33    1
    48    43    42    1
    49    44    42    1
