@<TRIPOS>MOLECULE
No_1251-gen_results/8p0m/2024-11-27-11-27-31/
 35 38 0 0 0
SMALL
GASTEIGER

@<TRIPOS>ATOM
      1 F         -28.0727   -1.2542   28.5316 F       1  UNL1       -0.2042
      2 C         -27.0607   -0.6291   28.8721 C.ar    1  UNL1        0.1403
      3 C         -27.1759    0.6153   29.3693 C.ar    1  UNL1        0.0344
      4 C         -25.7305   -1.2692   28.7241 C.ar    1  UNL1        0.0298
      5 C         -24.5526   -0.5078   29.0132 C.ar    1  UNL1        0.0070
      6 C         -25.9465    1.3753   29.6814 C.ar    1  UNL1        0.0620
      7 C         -24.6746    0.8198   29.5066 C.ar    1  UNL1        0.0600
      8 C         -23.3848    1.3315   29.8426 C.2     1  UNL1        0.2691
      9 N         -22.4904    1.5272   29.0536 N.am    1  UNL1       -0.1754
     10 C         -22.7185    1.9542   27.8005 C.ar    1  UNL1        0.0737
     11 C         -23.0074    1.2389   26.9104 C.ar    1  UNL1        0.0166
     12 C         -23.4254    1.8848   25.6510 C.ar    1  UNL1        0.0013
     13 C         -24.0771    2.5957   25.3117 C.ar    1  UNL1        0.0001
     14 C         -24.2154    3.6966   26.4704 C.ar    1  UNL1        0.0013
     15 C         -23.5320    3.3034   27.7202 C.ar    1  UNL1        0.0166
     16 O         -23.3151    1.7735   31.1154 O.2     1  UNL1       -0.2680
     17 C         -26.0999    2.7884   30.1748 C.2     1  UNL1        0.2692
     18 O         -25.5640    3.3257   30.8872 O.2     1  UNL1       -0.2680
     19 N         -26.9852    3.5533   29.2812 N.am    1  UNL1       -0.1754
     20 C         -27.2210    4.9486   29.5417 C.ar    1  UNL1        0.0749
     21 C         -27.6395    5.5651   28.4666 C.ar    1  UNL1        0.0167
     22 C         -27.2619    6.8591   28.2408 C.ar    1  UNL1        0.0026
     23 C         -26.7036    7.7285   29.2928 C.ar    1  UNL1        0.0146
     24 C         -26.2723    6.9491   30.4465 C.ar    1  UNL1        0.0491
     25 C         -26.4133    5.6235   30.5104 C.ar    1  UNL1        0.0311
     26 N         -25.5635    7.6747   31.4166 N.pl3   1  UNL1       -0.3075
     27 C         -25.1255    8.8108   31.3767 C.3     1  UNL1        0.0908
     28 C         -25.2659    6.9423   32.6733 C.3     1  UNL1        0.0908
     29 C         -24.1285    7.0784   33.1622 C.3     1  UNL1        0.0215
     30 C         -23.8903    9.2331   32.1327 C.3     1  UNL1        0.0215
     31 C         -23.4397    8.3584   33.1441 C.3     1  UNL1        0.0034
     32 C         -22.2605    8.6515   33.9504 C.3     1  UNL1        0.0001
     33 C         -21.1019    8.6854   33.3281 C.3     1  UNL1        0.0000
     34 C         -20.4473    9.8476   33.3319 C.3     1  UNL1        0.0000
     35 C         -19.8129   10.2108   34.4300 C.3     1  UNL1        0.0000
@<TRIPOS>BOND
     1     1     2    1
     2     7     8    1
     3     8     9   am
     4     9    10    1
     5     8    16    2
     6     6    17    1
     7    17    18    2
     8    17    19   am
     9    19    20    1
    10    24    26    1
    11    26    27    1
    12    26    28    1
    13    29    31    1
    14    30    31    1
    15    31    32    1
    16    32    33    1
    17    33    34    1
    18    34    35    1
    19    27    30    1
    20    29    28    1
    21     2     3   ar
    22     3     6   ar
    23     6     7   ar
    24     7     5   ar
    25     5     4   ar
    26     4     2   ar
    27    10    11   ar
    28    11    12   ar
    29    12    13   ar
    30    13    14   ar
    31    14    15   ar
    32    15    10   ar
    33    20    21   ar
    34    21    22   ar
    35    22    23   ar
    36    23    24   ar
    37    24    25   ar
    38    25    20   ar
