@<TRIPOS>MOLECULE
No_1254-gen_results/8p0m/2024-11-27-11-27-31/
 17 19 0 0 0
SMALL
GASTEIGER

@<TRIPOS>ATOM
      1 C         -28.0162   -0.8135   28.8779 C.ar    1  UNL1        0.0114
      2 C         -27.0636   -0.1189   28.6079 C.ar    1  UNL1        0.0009
      3 C         -25.7923   -0.4302   29.0761 C.ar    1  UNL1        0.0013
      4 C         -24.5456    0.3494   28.8225 C.2     1  UNL1        0.0173
      5 C         -23.2409    0.0217   29.3323 C.2     1  UNL1        0.0011
      6 C         -27.8820   -1.8995   29.8633 C.ar    1  UNL1        0.0577
      7 C         -26.6526   -2.3142   30.3138 C.ar    1  UNL1        0.0114
      8 C         -25.5153   -1.5607   29.9787 C.ar    1  UNL1        0.0009
      9 C         -22.1588    0.7866   28.9507 C.2     1  UNL1       -0.0006
     10 C         -22.1309    1.7439   27.9818 C.2     1  UNL1        0.0228
     11 C         -24.6218    1.5666   28.0091 C.2     1  UNL1        0.1030
     12 C         -23.3878    2.1563   27.5546 C.3     1  UNL1        0.2278
     13 CL        -29.2348   -2.8521   30.3366 Cl      1  UNL1       -0.0822
     14 O         -23.6504    3.2292   26.7541 O.2     1  UNL1       -0.4640
     15 C         -24.9756    3.3133   26.2544 C.2     1  UNL1        0.1937
     16 N         -25.7070    1.9622   27.4751 N.2     1  UNL1       -0.2410
     17 C         -25.7607    2.7648   26.8496 C.2     1  UNL1        0.1386
@<TRIPOS>BOND
     1     1     2   ar
     2     2     3   ar
     3     3     4    1
     4     4     5    2
     5     1     6   ar
     6     6     7   ar
     7     3     8   ar
     8     7     8   ar
     9     5     9    1
    10     9    10    2
    11     4    11    1
    12    10    12    1
    13    11    12    1
    14     6    13    1
    15    12    14    1
    16    14    15    1
    17    11    16    2
    18    15    17    2
    19    16    17    1
