@<TRIPOS>MOLECULE
No_1255-gen_results/8p0m/2024-11-27-11-27-31/
 33 36 0 0 0
SMALL
GASTEIGER

@<TRIPOS>ATOM
      1 O         -28.1229   -1.3353   28.4874 O.2     1  UNL1       -0.2748
      2 C         -28.5208   -0.4363   29.0779 C.2     1  UNL1        0.2266
      3 C         -28.5894    0.5916   28.9464 C.3     1  UNL1        0.0893
      4 N         -29.3752   -0.9434   30.2659 N.am    1  UNL1       -0.2654
      5 C         -27.5822    1.2649   28.1478 C.3     1  UNL1        0.0272
      6 C         -26.2743    1.0474   28.5730 C.ar    1  UNL1       -0.0262
      7 C         -25.3998    1.7139   28.7990 C.ar    1  UNL1       -0.0253
      8 C         -24.1865    1.7209   28.8848 C.ar    1  UNL1        0.0068
      9 C         -23.5185    0.3923   28.8078 C.ar    1  UNL1        0.0573
     10 C         -24.4686   -0.6709   28.5678 C.ar    1  UNL1        0.0111
     11 C         -25.7842   -0.3931   28.3513 C.ar    1  UNL1       -0.0037
     12 C         -29.5166   -2.3658   30.6018 C.3     1  UNL1        0.2087
     13 CL        -21.9442   -0.0020   29.2061 Cl      1  UNL1       -0.0823
     14 C         -30.0544   -0.0851   31.1663 C.3     1  UNL1        0.1207
     15 C         -30.4229   -3.1002   29.8305 C.2     1  UNL1        0.3847
     16 O         -30.1850   -4.3850   29.8704 O.co2   1  UNL1       -0.2437
     17 O         -31.3458   -2.6688   29.2327 O.co2   1  UNL1       -0.2437
     18 C         -30.9632    0.6355   30.6349 C.ar    1  UNL1       -0.0021
     19 C         -31.7345    1.3522   31.6840 C.ar    1  UNL1       -0.0026
     20 C         -32.8119    2.2059   31.3011 C.ar    1  UNL1       -0.0001
     21 C         -33.0747    2.3309   29.9293 C.ar    1  UNL1        0.0066
     22 C         -32.3436    1.6728   28.9554 C.ar    1  UNL1        0.0795
     23 C         -31.3612    0.8820   29.3496 C.ar    1  UNL1        0.0040
     24 C         -32.6662    1.8796   27.5380 C.2     1  UNL1        0.3877
     25 O         -32.9684    1.1023   26.7865 O.co2   1  UNL1       -0.2406
     26 O         -32.7733    3.2483   27.1849 O.co2   1  UNL1       -0.2406
     27 C         -27.6927    2.8215   28.0312 C.3     1  UNL1        0.0045
     28 C         -27.8323    0.7987   26.6476 C.3     1  UNL1        0.0045
     29 C         -28.5514    3.3171   27.2616 C.3     1  UNL1        0.0003
     30 C         -28.7720    1.4589   25.8480 C.3     1  UNL1        0.0003
     31 C         -29.1518    2.5806   26.2208 C.3     1  UNL1        0.0000
     32 C         -26.9540    3.5602   29.0277 C.3     1  UNL1        0.0050
     33 C         -25.7617    3.2336   29.1129 C.3     1  UNL1        0.0261
@<TRIPOS>BOND
     1     1     2    2
     2     2     3    1
     3     2     4   am
     4     3     5    1
     5     5     6    1
     6     4    12    1
     7     9    13    1
     8     4    14    1
     9    12    15    1
    10    15    16   ar
    11    15    17   ar
    12    14    18    1
    13    22    24    1
    14    24    25   ar
    15    24    26   ar
    16     5    27    1
    17     5    28    1
    18    29    31    1
    19    30    31    1
    20    27    32    1
    21     7    33    1
    22    33    32    1
    23    27    29    1
    24    30    28    1
    25    18    19   ar
    26    19    20   ar
    27    20    21   ar
    28    21    22   ar
    29    22    23   ar
    30    23    18   ar
    31     6    11   ar
    32    11    10   ar
    33    10     9   ar
    34     9     8   ar
    35     8     7   ar
    36     7     6   ar
