@<TRIPOS>MOLECULE
outputs/IAG933/test6/raw/output_1262_IAG933_linker_design_.xyz
 43 46 0 0 0
SMALL
GASTEIGER

@<TRIPOS>ATOM
      1 C         -24.8550   -1.0120   30.1430 C.3     1  UNL1        0.0618
      2 C         -24.9730   -2.5050   29.7880 C.2     1  UNL1       -0.0170
      3 C         -23.9060   -3.1730   29.1460 C.2     1  UNL1       -0.0039
      4 C         -23.9890   -4.5490   28.8530 C.2     1  UNL1       -0.0003
      5 C         -25.1370   -5.2800   29.2050 C.2     1  UNL1       -0.0000
      6 C         -26.2320   -4.6110   29.7840 C.2     1  UNL1       -0.0003
      7 C         -26.1550   -3.2320   30.0650 C.2     1  UNL1       -0.0039
      8 C         -25.3870   -0.6790   31.5710 C.3     1  UNL1        0.0809
      9 C         -25.1890    0.7730   32.0280 C.3     1  UNL1        0.0195
     10 C         -25.3360    0.6840   33.5440 C.3     1  UNL1        0.0203
     11 C         -24.8290   -0.7150   33.9050 C.3     1  UNL1        0.0887
     12 N         -24.7580   -1.4810   32.6460 N.3     1  UNL1       -0.2188
     13 C         -25.6880    1.6140   26.4610 C.2     1  UNL1        0.0415
     14 C         -26.2500    2.9200   26.3950 C.2     1  UNL1        0.0767
     15 C         -25.6420    4.0930   27.1230 C.2     1  UNL1        0.2664
     16 N         -25.6140    5.2520   26.4490 N.am    1  UNL1       -0.1997
     17 C         -25.0260    6.4790   26.9630 C.3     1  UNL1        0.1388
     18 O         -25.1430    3.9660   28.2430 O.2     1  UNL1       -0.2683
     19 C         -27.4380    3.0910   25.6450 C.2     1  UNL1        0.1067
     20 N         -28.0750    2.0890   25.0030 N.2     1  UNL1       -0.2081
     21 C         -27.5430    0.8490   25.0790 C.2     1  UNL1        0.2533
     22 O         -28.1930   -0.2080   24.4770 O.2     1  UNL1       -0.4558
     23 C         -29.4600    0.0050   23.8660 C.3     1  UNL1        0.2426
     24 C         -30.0650   -1.3770   23.5730 C.3     1  UNL1        0.2292
     25 O         -30.7290   -1.8780   24.7210 O.3     1  UNL1       -0.2162
     26 C         -26.3540    0.5760   25.7770 C.2     1  UNL1        0.1932
     27 F         -25.8600   -0.6810   25.7950 F       1  UNL1       -0.1992
     28 C         -25.1951    0.6204   28.4417 C.2     1  UNL1        0.0639
     29 O         -27.1341    4.1231   30.4269 O.3     1  UNL1       -0.3519
     30 C         -22.8545    0.3540   29.3662 C.2     1  UNL1       -0.0020
     31 C         -22.3761    1.2449   28.3071 C.2     1  UNL1        0.0402
     32 N         -26.5959    0.3986   28.7675 N.pl3   1  UNL1       -0.2352
     33 F         -20.4651    2.4318   27.4418 F       1  UNL1       -0.2290
     34 C         -24.2289    0.0130   29.3801 C.2     1  UNL1       -0.0023
     35 C         -26.4614    4.1811   32.7976 C.3     1  UNL1        0.0321
     36 C         -27.2205    2.6033   30.4430 C.3     1  UNL1        0.1654
     37 C         -20.9790    1.5774   28.2785 C.3     1  UNL1        0.2220
     38 C         -27.4730    1.4561   29.3998 C.3     1  UNL1        0.1441
     39 C         -23.2664    1.5680   27.2848 C.2     1  UNL1        0.1400
     40 F         -22.8157    2.0795   26.0826 F       1  UNL1       -0.2044
     41 C         -25.1045    4.8870   32.4794 C.3     1  UNL1        0.0027
     42 C         -24.6259    1.2904   27.4245 C.2     1  UNL1        0.0443
     43 C         -27.5706    4.5344   31.7930 C.3     1  UNL1        0.1422
@<TRIPOS>BOND
     1     1    34    1
     2     2     7    1
     3     2     1    1
     4     3     2    2
     5     4     3    1
     6     4     5    2
     7     5     6    1
     8     6     7    2
     9     8     1    1
    10     8     9    1
    11     8    12    1
    12     9    10    1
    13    10    11    1
    14    12    11    1
    15    13    42    1
    16    14    13    1
    17    14    15    1
    18    15    18    2
    19    16    17    1
    20    16    15    1
    21    19    14    2
    22    20    21    2
    23    20    19    1
    24    21    26    1
    25    22    21    1
    26    23    22    1
    27    24    23    1
    28    24    25    1
    29    26    27    1
    30    26    13    2
    31    28    32    1
    32    28    34    1
    33    29    36    1
    34    29    43    1
    35    30    34    2
    36    31    30    1
    37    32    38    1
    38    33    37    1
    39    37    31    1
    40    38    36    1
    41    39    42    1
    42    39    31    2
    43    40    39    1
    44    41    35    1
    45    42    28    2
    46    43    35    1
