@<TRIPOS>MOLECULE
No_1263-gen_results/8p0m/2024-11-27-11-27-31/
 21 22 0 0 0
SMALL
GASTEIGER

@<TRIPOS>ATOM
      1 C         -28.0162   -0.8135   28.8779 C.ar    1  UNL1        0.0296
      2 C         -27.0636   -0.1189   28.6079 C.ar    1  UNL1        0.0022
      3 C         -25.7923   -0.4302   29.0761 C.ar    1  UNL1        0.0001
      4 C         -25.5756   -1.5654   29.9363 C.ar    1  UNL1        0.0023
      5 C         -26.7354   -2.3004   30.2173 C.ar    1  UNL1        0.0296
      6 C         -27.9184   -1.9537   29.7629 C.ar    1  UNL1        0.1401
      7 C         -27.1057    1.1023   27.7593 C.ar    1  UNL1        0.0002
      8 C         -27.8576    1.5309   27.2156 C.ar    1  UNL1        0.0000
      9 C         -27.8433    2.7213   26.2861 C.ar    1  UNL1        0.0001
     10 C         -26.6217    3.3253   26.0566 C.ar    1  UNL1        0.0046
     11 C         -25.4854    2.7960   26.6725 C.ar    1  UNL1        0.0555
     12 C         -25.6222    1.7365   27.5193 C.ar    1  UNL1        0.0046
     13 F         -28.9681   -2.6865   30.1136 F       1  UNL1       -0.2042
     14 C         -24.1926    3.4366   26.4631 C.2     1  UNL1        0.2716
     15 O         -24.0461    4.5860   26.3171 O.2     1  UNL1       -0.2679
     16 N         -23.0726    2.6002   26.4954 N.am    1  UNL1       -0.1371
     17 C         -22.8511    1.5678   27.3948 C.2     1  UNL1        0.2714
     18 C         -21.4278    1.0926   27.5742 C.2     1  UNL1        0.0553
     19 C         -21.2357    0.1819   28.5440 C.2     1  UNL1       -0.0211
     20 C         -22.3178   -0.5231   29.1234 C.3     1  UNL1        0.0309
     21 O         -23.6082    0.8423   28.0385 O.2     1  UNL1       -0.2679
@<TRIPOS>BOND
     1     2     7    1
     2     6    13    1
     3    11    14    1
     4    14    15    2
     5    14    16   am
     6    16    17   am
     7    17    18    1
     8    18    19    2
     9    19    20    1
    10    17    21    2
    11     1     2   ar
    12     2     3   ar
    13     3     4   ar
    14     4     5   ar
    15     5     6   ar
    16     6     1   ar
    17     7     8   ar
    18     8     9   ar
    19     9    10   ar
    20    10    11   ar
    21    11    12   ar
    22    12     7   ar
