@<TRIPOS>MOLECULE
outputs/IAG933/test6/raw/output_1264_IAG933_linker_design_.xyz
 44 48 0 0 0
SMALL
GASTEIGER

@<TRIPOS>ATOM
      1 C         -24.8550   -1.0120   30.1430 C.3     1  UNL1        0.0818
      2 C         -24.9730   -2.5050   29.7880 C.2     1  UNL1       -0.0152
      3 C         -23.9060   -3.1730   29.1460 C.2     1  UNL1       -0.0038
      4 C         -23.9890   -4.5490   28.8530 C.2     1  UNL1       -0.0003
      5 C         -25.1370   -5.2800   29.2050 C.2     1  UNL1       -0.0000
      6 C         -26.2320   -4.6110   29.7840 C.2     1  UNL1       -0.0003
      7 C         -26.1550   -3.2320   30.0650 C.2     1  UNL1       -0.0038
      8 C         -25.3870   -0.6790   31.5710 C.3     1  UNL1        0.0827
      9 C         -25.1890    0.7730   32.0280 C.3     1  UNL1        0.0196
     10 C         -25.3360    0.6840   33.5440 C.3     1  UNL1        0.0203
     11 C         -24.8290   -0.7150   33.9050 C.3     1  UNL1        0.0887
     12 N         -24.7580   -1.4810   32.6460 N.3     1  UNL1       -0.2187
     13 C         -25.6880    1.6140   26.4610 C.3     1  UNL1        0.0887
     14 C         -26.2500    2.9200   26.3950 C.2     1  UNL1        0.0564
     15 C         -25.6420    4.0930   27.1230 C.2     1  UNL1        0.2625
     16 N         -25.6140    5.2520   26.4490 N.am    1  UNL1       -0.2000
     17 C         -25.0260    6.4790   26.9630 C.3     1  UNL1        0.1388
     18 O         -25.1430    3.9660   28.2430 O.2     1  UNL1       -0.2687
     19 C         -27.4380    3.0910   25.6450 C.2     1  UNL1        0.1022
     20 N         -28.0750    2.0890   25.0030 N.2     1  UNL1       -0.2119
     21 C         -27.5430    0.8490   25.0790 C.2     1  UNL1        0.2341
     22 O         -28.1930   -0.2080   24.4770 O.2     1  UNL1       -0.4585
     23 C         -29.4600    0.0050   23.8660 C.3     1  UNL1        0.2423
     24 C         -30.0650   -1.3770   23.5730 C.3     1  UNL1        0.2292
     25 O         -30.7290   -1.8780   24.7210 O.3     1  UNL1       -0.2162
     26 C         -26.3540    0.5760   25.7770 C.3     1  UNL1        0.2416
     27 F         -25.8600   -0.6810   25.7950 F       1  UNL1       -0.2268
     28 C         -24.3461    1.5920   26.8355 C.3     1  UNL1        0.0879
     29 C         -23.0025    1.7216   26.5552 C.3     1  UNL1        0.0302
     30 C         -23.1079    0.6047   28.6119 C.2     1  UNL1        0.2295
     31 C         -29.5466    0.4862   29.0479 C.2     1  UNL1        0.0466
     32 C         -22.2423    1.1707   27.6597 C.3     1  UNL1        0.0873
     33 C         -28.2619   -0.0813   28.6805 C.2     1  UNL1        0.0455
     34 C         -30.8085   -0.2382   28.6613 C.2     1  UNL1        0.1959
     35 C         -32.0843    1.4914   29.8893 C.2     1  UNL1       -0.0187
     36 C         -27.0657   -0.1766   28.9226 C.1     1  UNL1       -0.0901
     37 C         -30.9175    2.2022   30.1787 C.2     1  UNL1       -0.0040
     38 O         -22.8091    0.3518   29.8051 O.2     1  UNL1       -0.2745
     39 C         -29.6660    1.6994   29.7542 C.2     1  UNL1        0.0035
     40 O         -30.7348   -1.3696   27.9807 O.2     1  UNL1       -0.2866
     41 C         -32.0404    0.3487   29.0687 C.2     1  UNL1        0.0378
     42 N         -24.4539    0.5954   28.1874 N.am    1  UNL1       -0.2569
     43 C         -33.4174    1.7877   30.4755 C.3     1  UNL1        0.0311
     44 C         -25.5048    0.0046   29.1002 C.2     1  UNL1        0.0709
@<TRIPOS>BOND
     1     1    44    1
     2     2     7    1
     3     2     1    1
     4     3     2    2
     5     4     3    1
     6     4     5    2
     7     5     6    1
     8     6     7    2
     9     8     1    1
    10     8     9    1
    11     8    12    1
    12     9    10    1
    13    10    11    1
    14    12    11    1
    15    13    14    1
    16    13    28    1
    17    14    15    1
    18    15    18    2
    19    16    17    1
    20    16    15    1
    21    19    14    2
    22    20    21    2
    23    20    19    1
    24    21    26    1
    25    22    21    1
    26    23    22    1
    27    24    23    1
    28    24    25    1
    29    26    27    1
    30    26    13    1
    31    28    29    1
    32    28    42    1
    33    29    32    1
    34    30    38    2
    35    31    39    1
    36    32    30    1
    37    33    36    2
    38    33    31    1
    39    34    31    2
    40    34    41    1
    41    35    37    1
    42    35    43    1
    43    36    44    2
    44    39    37    2
    45    40    34    1
    46    41    35    2
    47    42    30   am
    48    42    44    1
