@<TRIPOS>MOLECULE
No_1265-gen_results/8p0m/2024-11-27-11-27-31/
 20 21 0 0 0
SMALL
GASTEIGER

@<TRIPOS>ATOM
      1 C         -28.0162   -0.8135   28.8779 C.3     1  UNL1        0.0247
      2 C         -27.0636   -0.1190   28.6079 C.3     1  UNL1        0.0581
      3 N         -26.9849    0.5972   27.5218 N.3     1  UNL1       -0.2752
      4 C         -28.6850   -0.3903   30.0601 C.3     1  UNL1        0.1047
      5 C         -30.0052   -0.6713   30.2249 C.3     1  UNL1        0.3978
      6 C         -25.8350    1.0536   26.9322 C.3     1  UNL1        0.0578
      7 C         -25.7802    1.6135   25.7320 C.3     1  UNL1        0.0160
      8 C         -24.5653    0.8395   27.6874 C.3     1  UNL1        0.0200
      9 C         -24.6031    0.0077   28.7842 C.3     1  UNL1        0.0210
     10 C         -25.7466   -0.5043   29.2473 C.3     1  UNL1        0.0200
     11 C         -28.1498    0.8092   26.7630 C.3     1  UNL1        0.0720
     12 C         -28.1092    1.2924   25.4209 C.3     1  UNL1        0.0160
     13 C         -29.3456    1.5569   24.7927 C.3     1  UNL1        0.0014
     14 C         -26.8722    1.7364   24.9546 C.3     1  UNL1        0.0028
     15 F         -30.6996    0.1764   30.8815 F       1  UNL1       -0.1700
     16 F         -30.1050   -1.8726   30.9176 F       1  UNL1       -0.1700
     17 F         -30.7261   -0.9168   29.1006 F       1  UNL1       -0.1700
     18 C         -23.5685    0.2938   29.7410 C.2     1  UNL1       -0.0442
     19 C         -22.3844   -0.0298   29.8056 C.2     1  UNL1       -0.0091
     20 C         -24.0271    1.0325   30.9956 C.3     1  UNL1        0.0263
@<TRIPOS>BOND
     1     1     2    1
     2     2     3    1
     3     1     4    1
     4     4     5    1
     5     3     6    1
     6     6     8    1
     7     8     9    1
     8     2    10    1
     9     9    10    1
    10     3    11    1
    11    12    13    1
    12     7    14    1
    13    12    14    1
    14     5    15    1
    15     5    16    1
    16     5    17    1
    17     9    18    1
    18    18    19    2
    19    18    20    1
    20     6     7    1
    21    12    11    1
