@<TRIPOS>MOLECULE
No_1266-gen_results/8p0m/2024-11-27-11-27-31/
 13 13 0 0 0
SMALL
GASTEIGER

@<TRIPOS>ATOM
      1 C         -28.0162   -0.8135   28.8779 C.ar    1  UNL1        0.0001
      2 C         -27.0636   -0.1189   28.6079 C.ar    1  UNL1        0.0000
      3 C         -26.9716    0.7139   27.5060 C.ar    1  UNL1        0.0001
      4 C         -28.1053    0.7744   26.6421 C.ar    1  UNL1        0.0024
      5 C         -29.2008    0.1044   27.0527 C.ar    1  UNL1        0.0285
      6 C         -29.2096   -0.6029   28.1853 C.ar    1  UNL1        0.0024
      7 C         -30.3749    0.2232   26.1670 C.2     1  UNL1        0.1383
      8 CL        -30.5085    0.1759   24.5817 Cl      1  UNL1       -0.0613
      9 N         -31.6336    0.1374   26.8444 N.2     1  UNL1       -0.2324
     10 C         -31.7410    0.2091   28.1003 C.2     1  UNL1        0.0998
     11 C         -33.0290    0.1855   28.7220 C.2     1  UNL1        0.0207
     12 C         -34.1210    0.2937   27.9386 C.2     1  UNL1        0.0016
     13 C         -33.9274    0.2925   26.5343 C.2     1  UNL1        0.0001
@<TRIPOS>BOND
     1     5     7    1
     2     7     8    1
     3     7     9    2
     4     9    10    1
     5    10    11    2
     6    11    12    1
     7    12    13    2
     8     1     2   ar
     9     2     3   ar
    10     3     4   ar
    11     4     5   ar
    12     5     6   ar
    13     6     1   ar
