@<TRIPOS>MOLECULE
outputs/IAG933/test6/raw/output_1268_IAG933_linker_design_.xyz
 44 47 0 0 0
SMALL
GASTEIGER

@<TRIPOS>ATOM
      1 C         -24.8550   -1.0120   30.1430 C.3     1  UNL1        0.1111
      2 C         -24.9730   -2.5050   29.7880 C.2     1  UNL1       -0.0030
      3 C         -23.9060   -3.1730   29.1460 C.2     1  UNL1       -0.0026
      4 C         -23.9890   -4.5490   28.8530 C.2     1  UNL1       -0.0003
      5 C         -25.1370   -5.2800   29.2050 C.2     1  UNL1       -0.0000
      6 C         -26.2320   -4.6110   29.7840 C.2     1  UNL1       -0.0003
      7 C         -26.1550   -3.2320   30.0650 C.2     1  UNL1       -0.0026
      8 C         -25.3870   -0.6790   31.5710 C.3     1  UNL1        0.0950
      9 C         -25.1890    0.7730   32.0280 C.3     1  UNL1        0.0209
     10 C         -25.3360    0.6840   33.5440 C.3     1  UNL1        0.0203
     11 C         -24.8290   -0.7150   33.9050 C.3     1  UNL1        0.0888
     12 N         -24.7580   -1.4810   32.6460 N.3     1  UNL1       -0.2174
     13 C         -25.6880    1.6140   26.4610 C.2     1  UNL1        0.0390
     14 C         -26.2500    2.9200   26.3950 C.2     1  UNL1        0.0766
     15 C         -25.6420    4.0930   27.1230 C.2     1  UNL1        0.2664
     16 N         -25.6140    5.2520   26.4490 N.am    1  UNL1       -0.1997
     17 C         -25.0260    6.4790   26.9630 C.3     1  UNL1        0.1388
     18 O         -25.1430    3.9660   28.2430 O.2     1  UNL1       -0.2683
     19 C         -27.4380    3.0910   25.6450 C.2     1  UNL1        0.1067
     20 N         -28.0750    2.0890   25.0030 N.2     1  UNL1       -0.2081
     21 C         -27.5430    0.8490   25.0790 C.2     1  UNL1        0.2533
     22 O         -28.1930   -0.2080   24.4770 O.2     1  UNL1       -0.4558
     23 C         -29.4600    0.0050   23.8660 C.3     1  UNL1        0.2426
     24 C         -30.0650   -1.3770   23.5730 C.3     1  UNL1        0.2292
     25 O         -30.7290   -1.8780   24.7210 O.3     1  UNL1       -0.2162
     26 C         -26.3540    0.5760   25.7770 C.2     1  UNL1        0.1931
     27 F         -25.8600   -0.6810   25.7950 F       1  UNL1       -0.1992
     28 C         -28.7348    0.7935   29.9033 C.3     1  UNL1        0.0208
     29 F         -30.4508    3.7487   31.7351 F       1  UNL1       -0.1544
     30 C         -24.3272    0.4689   28.1692 C.2     1  UNL1        0.0295
     31 C         -23.1578    0.1299   28.8388 C.3     1  UNL1        0.0670
     32 C         -23.3845    1.7756   26.1705 C.2     1  UNL1        0.0010
     33 C         -22.0047    1.9561   26.4102 C.2     1  UNL1       -0.0003
     34 F         -30.6735    1.8854   32.7913 F       1  UNL1       -0.1544
     35 C         -29.1282    2.1251   30.3507 C.3     1  UNL1        0.0970
     36 N         -25.4094   -0.2449   28.9588 N.pl3   1  UNL1       -0.3071
     37 C         -27.7739    0.4844   29.0110 C.3     1  UNL1        0.0229
     38 C         -21.3315    1.3385   27.4944 C.2     1  UNL1       -0.0042
     39 C         -26.7775   -0.4654   28.4372 C.3     1  UNL1        0.0908
     40 N         -28.8383    2.2678   31.8003 N.3     1  UNL1       -0.1302
     41 F         -29.4837    3.5131   33.5885 F       1  UNL1       -0.1544
     42 C         -24.4791    1.2043   27.0123 C.2     1  UNL1        0.0121
     43 C         -29.8909    2.8894   32.5134 C.3     1  UNL1        0.4758
     44 C         -21.8561    0.5562   28.5079 C.2     1  UNL1       -0.0201
@<TRIPOS>BOND
     1     1    36    1
     2     2     7    1
     3     2     1    1
     4     3     2    2
     5     4     3    1
     6     4     5    2
     7     5     6    1
     8     6     7    2
     9     8     1    1
    10     8     9    1
    11     8    12    1
    12     9    10    1
    13    10    11    1
    14    12    11    1
    15    13    42    1
    16    14    13    1
    17    14    15    1
    18    15    18    2
    19    16    17    1
    20    16    15    1
    21    19    14    2
    22    20    21    2
    23    20    19    1
    24    21    26    1
    25    22    21    1
    26    23    22    1
    27    24    23    1
    28    24    25    1
    29    26    27    1
    30    26    13    2
    31    28    35    1
    32    29    43    1
    33    30    31    1
    34    30    36    1
    35    32    33    2
    36    32    42    1
    37    33    38    1
    38    35    40    1
    39    37    28    1
    40    38    44    2
    41    39    36    1
    42    39    37    1
    43    40    43    1
    44    42    30    2
    45    43    34    1
    46    43    41    1
    47    44    31    1
