@<TRIPOS>MOLECULE
outputs/IAG933/test6/raw/output_1269_IAG933_linker_design_.xyz
 42 45 0 0 0
SMALL
GASTEIGER

@<TRIPOS>ATOM
      1 C         -24.8550   -1.0120   30.1430 C.3     1  UNL1        0.1166
      2 C         -24.9730   -2.5050   29.7880 C.2     1  UNL1       -0.0028
      3 C         -23.9060   -3.1730   29.1460 C.2     1  UNL1       -0.0026
      4 C         -23.9890   -4.5490   28.8530 C.2     1  UNL1       -0.0003
      5 C         -25.1370   -5.2800   29.2050 C.2     1  UNL1       -0.0000
      6 C         -26.2320   -4.6110   29.7840 C.2     1  UNL1       -0.0003
      7 C         -26.1550   -3.2320   30.0650 C.2     1  UNL1       -0.0026
      8 C         -25.3870   -0.6790   31.5710 C.3     1  UNL1        0.0952
      9 C         -25.1890    0.7730   32.0280 C.3     1  UNL1        0.0209
     10 C         -25.3360    0.6840   33.5440 C.3     1  UNL1        0.0203
     11 C         -24.8290   -0.7150   33.9050 C.3     1  UNL1        0.0888
     12 N         -24.7580   -1.4810   32.6460 N.3     1  UNL1       -0.2174
     13 C         -25.6880    1.6140   26.4610 C.2     1  UNL1        0.0347
     14 C         -26.2500    2.9200   26.3950 C.2     1  UNL1        0.0740
     15 C         -25.6420    4.0930   27.1230 C.2     1  UNL1        0.2662
     16 N         -25.6140    5.2520   26.4490 N.am    1  UNL1       -0.1997
     17 C         -25.0260    6.4790   26.9630 C.3     1  UNL1        0.1388
     18 O         -25.1430    3.9660   28.2430 O.2     1  UNL1       -0.2683
     19 C         -27.4380    3.0910   25.6450 C.2     1  UNL1        0.1065
     20 N         -28.0750    2.0890   25.0030 N.2     1  UNL1       -0.2081
     21 C         -27.5430    0.8490   25.0790 C.2     1  UNL1        0.2530
     22 O         -28.1930   -0.2080   24.4770 O.2     1  UNL1       -0.4558
     23 C         -29.4600    0.0050   23.8660 C.3     1  UNL1        0.2426
     24 C         -30.0650   -1.3770   23.5730 C.3     1  UNL1        0.2292
     25 O         -30.7290   -1.8780   24.7210 O.3     1  UNL1       -0.2162
     26 C         -26.3540    0.5760   25.7770 C.2     1  UNL1        0.1905
     27 F         -25.8600   -0.6810   25.7950 F       1  UNL1       -0.1995
     28 N         -23.4189    1.5018   26.7708 N.3     1  UNL1       -0.1959
     29 C         -22.5866    1.5690   27.8188 C.3     1  UNL1        0.1473
     30 N         -23.2148    0.8807   28.8702 N.3     1  UNL1       -0.1824
     31 C         -24.4603    0.7003   28.4092 C.3     1  UNL1        0.1728
     32 C         -26.8387    0.3336   29.1042 C.2     1  UNL1        0.3245
     33 C         -24.5054    1.1603   27.2457 C.3     1  UNL1        0.1339
     34 C         -28.7605    1.9155   29.0779 C.3     1  UNL1        0.1341
     35 C         -28.4485    5.2188   29.5336 C.3     1  UNL1        0.0897
     36 C         -21.0620    1.3871   27.4046 C.3     1  UNL1        0.0383
     37 N         -25.4114   -0.0974   29.2245 N.am    1  UNL1       -0.2448
     38 C         -30.7153    5.0473   28.6317 C.3     1  UNL1        0.0897
     39 N         -27.2418    1.6499   29.1845 N.am    1  UNL1       -0.1869
     40 C         -29.1179    3.0996   28.1442 C.3     1  UNL1        0.0959
     41 N         -29.4408    4.3940   28.8245 N.3     1  UNL1       -0.2688
     42 O         -27.6314   -0.5365   28.7563 O.2     1  UNL1       -0.2507
@<TRIPOS>BOND
     1     1    37    1
     2     2     7    1
     3     2     1    1
     4     3     2    2
     5     4     3    1
     6     4     5    2
     7     5     6    1
     8     6     7    2
     9     8     1    1
    10     8     9    1
    11     8    12    1
    12     9    10    1
    13    10    11    1
    14    12    11    1
    15    14    13    1
    16    14    15    1
    17    15    18    2
    18    16    17    1
    19    16    15    1
    20    19    14    2
    21    20    21    2
    22    20    19    1
    23    21    26    1
    24    22    21    1
    25    23    22    1
    26    24    23    1
    27    24    25    1
    28    26    27    1
    29    26    13    2
    30    28    33    1
    31    28    29    1
    32    29    36    1
    33    29    30    1
    34    31    30    1
    35    31    37    1
    36    32    39    1
    37    32    37   am
    38    33    13    1
    39    33    31    1
    40    34    39    1
    41    38    41    1
    42    40    41    1
    43    40    34    1
    44    41    35    1
    45    42    32    2
