@<TRIPOS>MOLECULE
outputs/IAG933/test6/raw/output_1273_IAG933_linker_design_.xyz
 37 40 0 0 0
SMALL
GASTEIGER

@<TRIPOS>ATOM
      1 C         -24.8550   -1.0120   30.1430 C.3     1  UNL1        0.1865
      2 C         -24.9730   -2.5050   29.7880 C.2     1  UNL1        0.0052
      3 C         -23.9060   -3.1730   29.1460 C.2     1  UNL1       -0.0022
      4 C         -23.9890   -4.5490   28.8530 C.2     1  UNL1       -0.0003
      5 C         -25.1370   -5.2800   29.2050 C.2     1  UNL1       -0.0000
      6 C         -26.2320   -4.6110   29.7840 C.2     1  UNL1       -0.0003
      7 C         -26.1550   -3.2320   30.0650 C.2     1  UNL1       -0.0022
      8 C         -25.3870   -0.6790   31.5710 C.3     1  UNL1        0.1035
      9 C         -25.1890    0.7730   32.0280 C.3     1  UNL1        0.0213
     10 C         -25.3360    0.6840   33.5440 C.3     1  UNL1        0.0203
     11 C         -24.8290   -0.7150   33.9050 C.3     1  UNL1        0.0888
     12 N         -24.7580   -1.4810   32.6460 N.3     1  UNL1       -0.2170
     13 C         -25.6880    1.6140   26.4610 C.2     1  UNL1        0.1059
     14 C         -26.2500    2.9200   26.3950 C.2     1  UNL1        0.0824
     15 C         -25.6420    4.0930   27.1230 C.2     1  UNL1        0.2666
     16 N         -25.6140    5.2520   26.4490 N.am    1  UNL1       -0.1997
     17 C         -25.0260    6.4790   26.9630 C.3     1  UNL1        0.1388
     18 O         -25.1430    3.9660   28.2430 O.2     1  UNL1       -0.2683
     19 C         -27.4380    3.0910   25.6450 C.2     1  UNL1        0.1069
     20 N         -28.0750    2.0890   25.0030 N.2     1  UNL1       -0.2081
     21 C         -27.5430    0.8490   25.0790 C.2     1  UNL1        0.2535
     22 O         -28.1930   -0.2080   24.4770 O.2     1  UNL1       -0.4558
     23 C         -29.4600    0.0050   23.8660 C.3     1  UNL1        0.2426
     24 C         -30.0650   -1.3770   23.5730 C.3     1  UNL1        0.2292
     25 O         -30.7290   -1.8780   24.7210 O.3     1  UNL1       -0.2162
     26 C         -26.3540    0.5760   25.7770 C.2     1  UNL1        0.1989
     27 F         -25.8600   -0.6810   25.7950 F       1  UNL1       -0.1990
     28 C         -22.3256    1.1284   28.0266 C.ar    1  UNL1        0.0356
     29 O         -26.2612    0.1195   28.3098 O.co2   1  UNL1       -0.5968
     30 N         -21.9634    0.0536   30.1318 N.2     1  UNL1       -0.1237
     31 C         -22.7908    0.3220   29.2025 C.ar    1  UNL1        0.2174
     32 CL        -22.9074    2.6165   25.8322 Cl      1  UNL1       -0.0761
     33 C         -20.8701    1.4030   27.7555 C.3     1  UNL1        0.0355
     34 N         -24.9392    0.3254   28.3170 N.ar    1  UNL1       -0.0682
     35 C         -23.3019    1.6083   27.1160 C.ar    1  UNL1        0.1237
     36 C         -24.5430    1.2426   27.3000 C.ar    1  UNL1        0.2743
     37 N         -24.1183   -0.1262   29.3155 N.ar    1  UNL1       -0.1031
@<TRIPOS>UNITY_ATOM_ATTR
29 1
charge -1
34 1
charge 1
@<TRIPOS>BOND
     1     1     2    1
     2     2     7    1
     3     3     2    2
     4     4     3    1
     5     4     5    2
     6     5     6    1
     7     6     7    2
     8     8     1    1
     9     8     9    1
    10     8    12    1
    11     9    10    1
    12    10    11    1
    13    12    11    1
    14    13    36    1
    15    14    13    1
    16    14    15    1
    17    15    18    2
    18    16    17    1
    19    16    15    1
    20    19    14    2
    21    20    21    2
    22    20    19    1
    23    21    26    1
    24    22    21    1
    25    23    22    1
    26    24    23    1
    27    24    25    1
    28    26    27    1
    29    26    13    2
    30    28    31   ar
    31    29    34    1
    32    31    37   ar
    33    31    30    2
    34    32    35    1
    35    33    28    1
    36    34    37   ar
    37    35    36   ar
    38    35    28   ar
    39    36    34   ar
    40    37     1    1
