@<TRIPOS>MOLECULE
outputs/IAG933/test6/raw/output_1278_IAG933_linker_design_.xyz
 43 46 0 0 0
SMALL
GASTEIGER

@<TRIPOS>ATOM
      1 C         -24.8550   -1.0120   30.1430 C.3     1  UNL1        0.0592
      2 C         -24.9730   -2.5050   29.7880 C.2     1  UNL1       -0.0194
      3 C         -23.9060   -3.1730   29.1460 C.2     1  UNL1       -0.0042
      4 C         -23.9890   -4.5490   28.8530 C.2     1  UNL1       -0.0003
      5 C         -25.1370   -5.2800   29.2050 C.2     1  UNL1       -0.0000
      6 C         -26.2320   -4.6110   29.7840 C.2     1  UNL1       -0.0003
      7 C         -26.1550   -3.2320   30.0650 C.2     1  UNL1       -0.0042
      8 C         -25.3870   -0.6790   31.5710 C.3     1  UNL1        0.0785
      9 C         -25.1890    0.7730   32.0280 C.3     1  UNL1        0.0192
     10 C         -25.3360    0.6840   33.5440 C.3     1  UNL1        0.0202
     11 C         -24.8290   -0.7150   33.9050 C.3     1  UNL1        0.0887
     12 N         -24.7580   -1.4810   32.6460 N.3     1  UNL1       -0.2191
     13 C         -25.6880    1.6140   26.4610 C.2     1  UNL1        0.0375
     14 C         -26.2500    2.9200   26.3950 C.2     1  UNL1        0.0765
     15 C         -25.6420    4.0930   27.1230 C.2     1  UNL1        0.2664
     16 N         -25.6140    5.2520   26.4490 N.am    1  UNL1       -0.1997
     17 C         -25.0260    6.4790   26.9630 C.3     1  UNL1        0.1388
     18 O         -25.1430    3.9660   28.2430 O.2     1  UNL1       -0.2683
     19 C         -27.4380    3.0910   25.6450 C.2     1  UNL1        0.1067
     20 N         -28.0750    2.0890   25.0030 N.2     1  UNL1       -0.2081
     21 C         -27.5430    0.8490   25.0790 C.2     1  UNL1        0.2533
     22 O         -28.1930   -0.2080   24.4770 O.2     1  UNL1       -0.4558
     23 C         -29.4600    0.0050   23.8660 C.3     1  UNL1        0.2426
     24 C         -30.0650   -1.3770   23.5730 C.3     1  UNL1        0.2292
     25 O         -30.7290   -1.8780   24.7210 O.3     1  UNL1       -0.2162
     26 C         -26.3540    0.5760   25.7770 C.2     1  UNL1        0.1930
     27 F         -25.8600   -0.6810   25.7950 F       1  UNL1       -0.1992
     28 C         -28.4491    0.3749   30.5520 C.3     1  UNL1        0.0969
     29 C         -22.4940    2.3427   25.6966 C.3     1  UNL1        0.3429
     30 F         -21.2456    2.2684   25.4667 F       1  UNL1       -0.1932
     31 CL        -22.0824   -0.2234   29.9909 Cl      1  UNL1       -0.1032
     32 C         -24.2818    0.5903   28.4043 C.2     1  UNL1       -0.0062
     33 N         -26.3744    0.7331   29.3457 N.3     1  UNL1       -0.1519
     34 C         -24.4043    1.3263   27.2257 C.2     1  UNL1        0.0006
     35 C         -22.9591    0.3978   28.6619 C.3     1  UNL1        0.1491
     36 F         -23.2493    2.8225   24.8088 F       1  UNL1       -0.1932
     37 C         -23.0542    1.6636   26.8187 C.2     1  UNL1        0.0679
     38 C         -25.2325    0.0901   29.2071 C.3     1  UNL1        0.1106
     39 O         -27.8650   -0.8979   28.2696 O.3     1  UNL1       -0.1556
     40 F         -21.0032    1.5059   27.9259 F       1  UNL1       -0.2074
     41 S         -27.8252    0.2944   28.9707 S.3     1  UNL1       -0.0069
     42 C         -28.5993    1.5524   28.1840 C.3     1  UNL1        0.0969
     43 C         -22.1974    1.1805   27.7654 C.2     1  UNL1        0.1375
@<TRIPOS>BOND
     1     1    38    1
     2     2     7    1
     3     2     1    1
     4     3     2    2
     5     4     3    1
     6     4     5    2
     7     5     6    1
     8     6     7    2
     9     8     1    1
    10     8     9    1
    11     8    12    1
    12     9    10    1
    13    10    11    1
    14    12    11    1
    15    13    34    1
    16    14    13    1
    17    14    15    1
    18    15    18    2
    19    16    17    1
    20    16    15    1
    21    19    14    2
    22    20    21    2
    23    20    19    1
    24    21    26    1
    25    22    21    1
    26    23    22    1
    27    24    23    1
    28    24    25    1
    29    26    27    1
    30    26    13    2
    31    29    37    1
    32    30    29    1
    33    32    35    1
    34    32    38    1
    35    34    32    2
    36    35    31    1
    37    36    29    1
    38    37    34    1
    39    37    43    2
    40    38    33    1
    41    39    41    1
    42    41    33    1
    43    41    28    1
    44    42    41    1
    45    43    40    1
    46    43    35    1
