@<TRIPOS>MOLECULE
outputs/IAG933/test6/raw/output_128_IAG933_linker_design_.xyz
 46 50 0 0 0
SMALL
GASTEIGER

@<TRIPOS>ATOM
      1 C         -24.8550   -1.0120   30.1430 C.3     1  UNL1        0.0596
      2 C         -24.9730   -2.5050   29.7880 C.2     1  UNL1       -0.0194
      3 C         -23.9060   -3.1730   29.1460 C.2     1  UNL1       -0.0042
      4 C         -23.9890   -4.5490   28.8530 C.2     1  UNL1       -0.0003
      5 C         -25.1370   -5.2800   29.2050 C.2     1  UNL1       -0.0000
      6 C         -26.2320   -4.6110   29.7840 C.2     1  UNL1       -0.0003
      7 C         -26.1550   -3.2320   30.0650 C.2     1  UNL1       -0.0042
      8 C         -25.3870   -0.6790   31.5710 C.3     1  UNL1        0.0785
      9 C         -25.1890    0.7730   32.0280 C.3     1  UNL1        0.0192
     10 C         -25.3360    0.6840   33.5440 C.3     1  UNL1        0.0202
     11 C         -24.8290   -0.7150   33.9050 C.3     1  UNL1        0.0887
     12 N         -24.7580   -1.4810   32.6460 N.3     1  UNL1       -0.2191
     13 C         -25.6880    1.6140   26.4610 C.3     1  UNL1        0.0795
     14 C         -26.2500    2.9200   26.3950 C.2     1  UNL1        0.0555
     15 C         -25.6420    4.0930   27.1230 C.2     1  UNL1        0.2625
     16 N         -25.6140    5.2520   26.4490 N.am    1  UNL1       -0.2000
     17 C         -25.0260    6.4790   26.9630 C.3     1  UNL1        0.1388
     18 O         -25.1430    3.9660   28.2430 O.2     1  UNL1       -0.2687
     19 C         -27.4380    3.0910   25.6450 C.2     1  UNL1        0.1022
     20 N         -28.0750    2.0890   25.0030 N.2     1  UNL1       -0.2119
     21 C         -27.5430    0.8490   25.0790 C.2     1  UNL1        0.2341
     22 O         -28.1930   -0.2080   24.4770 O.2     1  UNL1       -0.4585
     23 C         -29.4600    0.0050   23.8660 C.3     1  UNL1        0.2423
     24 C         -30.0650   -1.3770   23.5730 C.3     1  UNL1        0.2292
     25 O         -30.7290   -1.8780   24.7210 O.3     1  UNL1       -0.2162
     26 C         -26.3540    0.5760   25.7770 C.3     1  UNL1        0.2407
     27 F         -25.8600   -0.6810   25.7950 F       1  UNL1       -0.2269
     28 O         -28.7965   -0.3287   32.1206 O.3     1  UNL1       -0.2023
     29 C         -29.9023    2.7059   32.3537 C.3     1  UNL1        0.0351
     30 C         -32.7373    0.4448   31.7371 C.3     1  UNL1        0.1742
     31 C         -23.4427    1.8202   25.5421 C.2     1  UNL1       -0.0203
     32 C         -24.3560    1.4803   26.6641 C.3     1  UNL1        0.0667
     33 C         -28.4137    2.6347   30.2622 C.3     1  UNL1        0.0745
     34 C         -28.4393    3.1063   31.7708 C.3     1  UNL1        0.0200
     35 C         -30.5181    1.5118   31.5650 C.3     1  UNL1        0.1613
     36 C         -23.0467    1.3624   28.8037 C.2     1  UNL1        0.0120
     37 O         -31.7002    1.2388   32.3395 O.3     1  UNL1       -0.3495
     38 C         -21.3452    1.9552   26.9762 C.2     1  UNL1       -0.0003
     39 N         -28.1612    1.1914   30.3725 N.3     1  UNL1       -0.2446
     40 C         -25.9721   -0.0735   29.3304 C.3     1  UNL1        0.1134
     41 N         -25.3410    0.5146   28.4052 N.pl3   1  UNL1       -0.2415
     42 C         -21.5844    1.6250   28.1274 C.2     1  UNL1        0.0010
     43 C         -27.5907    0.2934   29.3154 C.3     1  UNL1        0.0962
     44 C         -22.0138    1.9534   25.6962 C.2     1  UNL1       -0.0042
     45 C         -29.4114    0.4882   31.0570 C.3     1  UNL1        0.2398
     46 C         -24.1911    1.0311   28.1128 C.2     1  UNL1        0.0471
@<TRIPOS>BOND
     1     1    40    1
     2     2     7    1
     3     2     1    1
     4     3     2    2
     5     4     3    1
     6     4     5    2
     7     5     6    1
     8     6     7    2
     9     8     1    1
    10     8     9    1
    11     8    12    1
    12     9    10    1
    13    10    11    1
    14    12    11    1
    15    13    14    1
    16    13    32    1
    17    14    15    1
    18    15    18    2
    19    16    17    1
    20    16    15    1
    21    19    14    2
    22    20    21    2
    23    20    19    1
    24    21    26    1
    25    22    21    1
    26    23    22    1
    27    24    23    1
    28    24    25    1
    29    26    27    1
    30    26    13    1
    31    30    37    1
    32    31    44    2
    33    32    31    1
    34    32    46    1
    35    33    39    1
    36    33    34    1
    37    34    29    1
    38    35    37    1
    39    35    29    1
    40    38    42    2
    41    39    45    1
    42    40    43    1
    43    41    40    1
    44    42    36    1
    45    43    39    1
    46    44    38    1
    47    45    35    1
    48    45    28    1
    49    46    41    1
    50    46    36    2
