@<TRIPOS>MOLECULE
No_1281-gen_results/8p0m/2024-11-27-11-27-31/
 24 25 0 0 0
SMALL
GASTEIGER

@<TRIPOS>ATOM
      1 C         -28.0162   -0.8135   28.8779 C.ar    1  UNL1        0.0081
      2 C         -28.4690   -0.7850   29.8287 C.ar    1  UNL1        0.0798
      3 C         -27.0871    0.2903   28.6377 C.ar    1  UNL1        0.0182
      4 C         -26.2516    0.4114   27.4223 C.ar    1  UNL1        0.0908
      5 C         -28.3913    0.1041   30.9805 C.ar    1  UNL1        0.0066
      6 C         -27.5332    1.1666   30.7866 C.ar    1  UNL1        0.0003
      7 C         -26.8281    1.2557   29.6454 C.ar    1  UNL1        0.0015
      8 N         -25.0638    0.2673   27.5265 N.ar    1  UNL1       -0.2237
      9 C         -26.8721    0.6383   26.1615 C.ar    1  UNL1        0.1124
     10 C         -26.0048    0.5129   25.0700 C.ar    1  UNL1        0.1086
     11 C         -24.1417    0.3180   26.5125 C.ar    1  UNL1        0.1989
     12 N         -24.7058    0.4718   25.2740 N.ar    1  UNL1       -0.2222
     13 C         -28.2627    0.6285   25.9231 C.2     1  UNL1        0.3442
     14 O         -29.0004    1.2813   26.6335 O.2     1  UNL1       -0.2448
     15 O         -28.7991   -0.1883   25.0829 O.3     1  UNL1       -0.4454
     16 C         -30.1645   -0.2272   24.8922 C.3     1  UNL1        0.2093
     17 C         -30.5805   -1.5038   24.6756 C.3     1  UNL1        0.0592
     18 C         -32.0407   -1.7401   24.4640 C.3     1  UNL1        0.1179
     19 C         -32.6729   -2.6015   25.4417 C.2     1  UNL1        0.3650
     20 O         -33.8117   -2.8315   25.3566 O.co2   1  UNL1       -0.2457
     21 O         -31.9022   -3.4564   26.1192 O.co2   1  UNL1       -0.2457
     22 C         -29.5131   -1.9777   30.1574 C.2     1  UNL1        0.3878
     23 O         -30.5513   -2.0626   30.3426 O.co2   1  UNL1       -0.2406
     24 O         -28.8210   -3.1752   30.1555 O.co2   1  UNL1       -0.2406
@<TRIPOS>BOND
     1     3     4    1
     2     9    13    1
     3    13    14    2
     4    13    15    1
     5    15    16    1
     6    16    17    1
     7    17    18    1
     8    18    19    1
     9    19    20   ar
    10    19    21   ar
    11     2    22    1
    12    22    23   ar
    13    22    24   ar
    14     4     8   ar
    15     8    11   ar
    16    11    12   ar
    17    12    10   ar
    18    10     9   ar
    19     9     4   ar
    20     1     2   ar
    21     2     5   ar
    22     5     6   ar
    23     6     7   ar
    24     7     3   ar
    25     3     1   ar
