@<TRIPOS>MOLECULE
No_1282-gen_results/8p0m/2024-11-27-11-27-31/
 31 31 0 0 0
SMALL
GASTEIGER

@<TRIPOS>ATOM
      1 C         -28.0162   -0.8135   28.8779 C.3     1  UNL1        0.1018
      2 C         -27.0636   -0.1189   28.6079 C.ar    1  UNL1       -0.0162
      3 C         -26.8756    1.1325   28.9134 C.ar    1  UNL1        0.0026
      4 C         -25.6883    1.9515   28.5672 C.ar    1  UNL1        0.0817
      5 C         -24.6394    1.2834   27.8753 C.ar    1  UNL1        0.0860
      6 C         -24.8181   -0.0802   27.6166 C.ar    1  UNL1        0.0065
      7 C         -25.9311   -0.7717   27.9696 C.ar    1  UNL1       -0.0039
      8 C         -28.6501   -0.5385   30.2330 C.3     1  UNL1        0.3530
      9 C         -29.7142   -1.2183   30.6194 C.3     1  UNL1        0.4548
     10 C         -23.4428    1.9731   27.4688 C.2     1  UNL1        0.3880
     11 O         -23.4399    2.6504   26.5190 O.co2   1  UNL1       -0.2405
     12 O         -22.1996    1.4517   27.9307 O.co2   1  UNL1       -0.2405
     13 F         -29.9973   -1.8945   29.8938 F       1  UNL1       -0.1649
     14 F         -29.4212   -1.8599   31.8256 F       1  UNL1       -0.1649
     15 F         -30.6860   -0.3510   30.9203 F       1  UNL1       -0.1649
     16 F         -27.5356   -0.7114   31.1370 F       1  UNL1       -0.1948
     17 F         -28.8088    0.8330   30.3975 F       1  UNL1       -0.1948
     18 C         -25.4893    3.3668   28.8571 C.2     1  UNL1        0.3419
     19 O         -25.8332    4.1771   28.0796 O.2     1  UNL1       -0.2449
     20 O         -24.9162    3.6058   30.1250 O.3     1  UNL1       -0.4352
     21 C         -25.7043    4.3950   30.9314 C.3     1  UNL1        0.2945
     22 C         -25.1396    4.2942   32.2122 C.2     1  UNL1        0.2863
     23 O         -24.0885    4.2645   32.4085 O.2     1  UNL1       -0.2693
     24 N         -26.0909    4.2775   33.2962 N.am    1  UNL1       -0.1974
     25 C         -27.5304    4.2684   33.1584 C.3     1  UNL1        0.1413
     26 C         -28.0754    3.1288   33.5867 C.2     1  UNL1       -0.0029
     27 C         -27.6216    2.2041   34.1476 C.2     1  UNL1       -0.0028
     28 C         -28.3515    1.0983   34.6212 C.2     1  UNL1       -0.0003
     29 C         -27.8116   -0.0642   35.2859 C.2     1  UNL1       -0.0000
     30 C         -26.4089   -0.1271   35.3072 C.2     1  UNL1       -0.0000
     31 C         -25.6174    0.7447   34.5631 C.2     1  UNL1       -0.0000
@<TRIPOS>BOND
     1     1     8    1
     2     8     9    1
     3     5    10    1
     4    10    11   ar
     5    10    12   ar
     6     9    13    1
     7     9    14    1
     8     9    15    1
     9     8    16    1
    10     8    17    1
    11     4    18    1
    12    18    19    2
    13    18    20    1
    14    20    21    1
    15    21    22    1
    16    22    23    2
    17    22    24   am
    18    24    25    1
    19    25    26    1
    20    26    27    2
    21    27    28    1
    22    28    29    2
    23    29    30    1
    24    30    31    2
    25     1     2    1
    26     2     3   ar
    27     3     4   ar
    28     4     5   ar
    29     5     6   ar
    30     6     7   ar
    31     7     2   ar
