@<TRIPOS>MOLECULE
outputs/IAG933/test6/raw/output_1283_IAG933_linker_design_.xyz
 50 54 0 0 0
SMALL
GASTEIGER

@<TRIPOS>ATOM
      1 C         -24.8550   -1.0120   30.1430 C.3     1  UNL1        0.0963
      2 C         -24.9730   -2.5050   29.7880 C.2     1  UNL1       -0.0064
      3 C         -23.9060   -3.1730   29.1460 C.2     1  UNL1       -0.0029
      4 C         -23.9890   -4.5490   28.8530 C.2     1  UNL1       -0.0003
      5 C         -25.1370   -5.2800   29.2050 C.2     1  UNL1       -0.0000
      6 C         -26.2320   -4.6110   29.7840 C.2     1  UNL1       -0.0003
      7 C         -26.1550   -3.2320   30.0650 C.2     1  UNL1       -0.0029
      8 C         -25.3870   -0.6790   31.5710 C.3     1  UNL1        0.0916
      9 C         -25.1890    0.7730   32.0280 C.3     1  UNL1        0.0206
     10 C         -25.3360    0.6840   33.5440 C.3     1  UNL1        0.0203
     11 C         -24.8290   -0.7150   33.9050 C.3     1  UNL1        0.0888
     12 N         -24.7580   -1.4810   32.6460 N.3     1  UNL1       -0.2178
     13 C         -25.6880    1.6140   26.4610 C.2     1  UNL1        0.0257
     14 C         -26.2500    2.9200   26.3950 C.2     1  UNL1        0.0731
     15 C         -25.6420    4.0930   27.1230 C.2     1  UNL1        0.2661
     16 N         -25.6140    5.2520   26.4490 N.am    1  UNL1       -0.1997
     17 C         -25.0260    6.4790   26.9630 C.3     1  UNL1        0.1388
     18 O         -25.1430    3.9660   28.2430 O.2     1  UNL1       -0.2683
     19 C         -27.4380    3.0910   25.6450 C.2     1  UNL1        0.1064
     20 N         -28.0750    2.0890   25.0030 N.2     1  UNL1       -0.2081
     21 C         -27.5430    0.8490   25.0790 C.2     1  UNL1        0.2530
     22 O         -28.1930   -0.2080   24.4770 O.2     1  UNL1       -0.4558
     23 C         -29.4600    0.0050   23.8660 C.3     1  UNL1        0.2426
     24 C         -30.0650   -1.3770   23.5730 C.3     1  UNL1        0.2292
     25 O         -30.7290   -1.8780   24.7210 O.3     1  UNL1       -0.2162
     26 C         -26.3540    0.5760   25.7770 C.2     1  UNL1        0.1896
     27 F         -25.8600   -0.6810   25.7950 F       1  UNL1       -0.1996
     28 C         -26.6274   -0.7259   28.2970 C.3     1  UNL1        0.0730
     29 O         -29.9027   -4.0007   30.9277 O.3     1  UNL1       -0.4485
     30 C         -30.0159   -2.6435   31.3096 C.3     1  UNL1        0.2084
     31 C         -32.2358   -3.0784   31.7323 C.3     1  UNL1        0.0155
     32 C         -32.2516   -4.3060   30.9545 C.3     1  UNL1        0.1097
     33 C         -27.9696   -0.2142   27.9707 C.3     1  UNL1        0.0290
     34 C         -30.3079    0.0566   28.4325 C.2     1  UNL1        0.3170
     35 N         -22.3779    1.0196   27.5774 N.am    1  UNL1       -0.1251
     36 O         -30.9296   -4.8467   28.9719 O.2     1  UNL1       -0.2501
     37 O         -22.4110    1.9066   25.6051 O.2     1  UNL1       -0.2722
     38 O         -30.4245    1.2326   28.3213 O.2     1  UNL1       -0.2501
     39 C         -23.1370    1.3791   26.7336 C.2     1  UNL1        0.2567
     40 C         -24.4878    1.2662   27.2678 C.3     1  UNL1        0.1200
     41 F         -21.1257    1.0711   27.5083 F       1  UNL1       -0.1056
     42 C         -29.0395   -0.5246   29.0088 C.3     1  UNL1        0.1110
     43 C         -30.9876   -4.4347   30.2360 C.2     1  UNL1        0.3170
     44 N         -25.5336   -0.1583   29.1771 N.3     1  UNL1       -0.2681
     45 C         -31.2546   -2.1045   31.2230 C.3     1  UNL1        0.0481
     46 C         -24.5928    0.8065   28.6609 C.3     1  UNL1        0.0934
     47 C         -32.2849   -0.9769   28.9238 C.3     1  UNL1        0.2086
     48 C         -31.6771   -0.7738   30.4021 C.3     1  UNL1        0.0512
     49 O         -31.2239   -0.8997   27.9547 O.3     1  UNL1       -0.4485
     50 C         -23.1204    0.4517   28.6010 C.3     1  UNL1        0.1460
@<TRIPOS>BOND
     1     1    44    1
     2     2     7    1
     3     2     1    1
     4     3     2    2
     5     4     3    1
     6     4     5    2
     7     5     6    1
     8     6     7    2
     9     8     1    1
    10     8     9    1
    11     8    12    1
    12     9    10    1
    13    10    11    1
    14    12    11    1
    15    14    13    1
    16    14    15    1
    17    15    18    2
    18    16    17    1
    19    16    15    1
    20    19    14    2
    21    20    21    2
    22    20    19    1
    23    21    26    1
    24    22    21    1
    25    23    22    1
    26    24    23    1
    27    24    25    1
    28    26    27    1
    29    26    13    2
    30    28    44    1
    31    29    30    1
    32    32    31    1
    33    33    28    1
    34    33    42    1
    35    34    42    1
    36    35    50    1
    37    36    43    2
    38    37    39    2
    39    38    34    2
    40    39    40    1
    41    39    35   am
    42    40    13    1
    43    40    46    1
    44    41    35    1
    45    43    29    1
    46    43    32    1
    47    45    48    1
    48    45    30    1
    49    45    31    1
    50    46    44    1
    51    47    48    1
    52    49    34    1
    53    49    47    1
    54    50    46    1
