@<TRIPOS>MOLECULE
outputs/IAG933/test6/raw/output_1284_IAG933_linker_design_.xyz
 41 44 0 0 0
SMALL
GASTEIGER

@<TRIPOS>ATOM
      1 C         -24.8550   -1.0120   30.1430 C.3     1  UNL1        0.1131
      2 C         -24.9730   -2.5050   29.7880 C.2     1  UNL1       -0.0029
      3 C         -23.9060   -3.1730   29.1460 C.2     1  UNL1       -0.0026
      4 C         -23.9890   -4.5490   28.8530 C.2     1  UNL1       -0.0003
      5 C         -25.1370   -5.2800   29.2050 C.2     1  UNL1       -0.0000
      6 C         -26.2320   -4.6110   29.7840 C.2     1  UNL1       -0.0003
      7 C         -26.1550   -3.2320   30.0650 C.2     1  UNL1       -0.0026
      8 C         -25.3870   -0.6790   31.5710 C.3     1  UNL1        0.0951
      9 C         -25.1890    0.7730   32.0280 C.3     1  UNL1        0.0209
     10 C         -25.3360    0.6840   33.5440 C.3     1  UNL1        0.0203
     11 C         -24.8290   -0.7150   33.9050 C.3     1  UNL1        0.0888
     12 N         -24.7580   -1.4810   32.6460 N.3     1  UNL1       -0.2174
     13 C         -25.6880    1.6140   26.4610 C.2     1  UNL1        0.0376
     14 C         -26.2500    2.9200   26.3950 C.2     1  UNL1        0.0763
     15 C         -25.6420    4.0930   27.1230 C.2     1  UNL1        0.2664
     16 N         -25.6140    5.2520   26.4490 N.am    1  UNL1       -0.1997
     17 C         -25.0260    6.4790   26.9630 C.3     1  UNL1        0.1388
     18 O         -25.1430    3.9660   28.2430 O.2     1  UNL1       -0.2683
     19 C         -27.4380    3.0910   25.6450 C.2     1  UNL1        0.1067
     20 N         -28.0750    2.0890   25.0030 N.2     1  UNL1       -0.2081
     21 C         -27.5430    0.8490   25.0790 C.2     1  UNL1        0.2533
     22 O         -28.1930   -0.2080   24.4770 O.2     1  UNL1       -0.4558
     23 C         -29.4600    0.0050   23.8660 C.3     1  UNL1        0.2426
     24 C         -30.0650   -1.3770   23.5730 C.3     1  UNL1        0.2292
     25 O         -30.7290   -1.8780   24.7210 O.3     1  UNL1       -0.2162
     26 C         -26.3540    0.5760   25.7770 C.2     1  UNL1        0.1929
     27 F         -25.8600   -0.6810   25.7950 F       1  UNL1       -0.1992
     28 C         -24.5876    1.3080   27.3816 C.2     1  UNL1        0.0284
     29 O         -21.0833    1.3434   28.1936 O.2     1  UNL1       -0.2850
     30 C         -25.1290    0.8838   28.7004 C.3     1  UNL1        0.1941
     31 C         -27.4568    0.7292   29.3879 C.2     1  UNL1        0.2436
     32 O         -27.4637   -0.4780   29.1351 O.2     1  UNL1       -0.2733
     33 N         -24.2775    0.0801   29.3276 N.pl3   1  UNL1       -0.2815
     34 O         -21.2274    2.1855   25.6412 O.co2   1  UNL1       -0.2404
     35 C         -23.1605    1.3875   27.1331 C.2     1  UNL1        0.1192
     36 C         -22.3685    0.9069   28.2179 C.2     1  UNL1        0.2163
     37 C         -28.7196    1.3314   29.9067 C.3     1  UNL1        0.0965
     38 N         -26.3205    1.4566   29.2060 N.am    1  UNL1       -0.1824
     39 C         -22.9020    0.0987   29.2053 C.2     1  UNL1        0.1058
     40 O         -23.2283    1.9664   24.8252 O.co2   1  UNL1       -0.2404
     41 C         -22.4588    1.8913   25.8380 C.2     1  UNL1        0.3907
@<TRIPOS>BOND
     1     1     2    1
     2     2     7    1
     3     3     2    2
     4     4     3    1
     5     4     5    2
     6     5     6    1
     7     6     7    2
     8     8     1    1
     9     8     9    1
    10     8    12    1
    11     9    10    1
    12    10    11    1
    13    12    11    1
    14    13    28    1
    15    14    13    1
    16    14    15    1
    17    15    18    2
    18    16    17    1
    19    16    15    1
    20    19    14    2
    21    20    21    2
    22    20    19    1
    23    21    26    1
    24    22    21    1
    25    23    22    1
    26    24    23    1
    27    24    25    1
    28    26    27    1
    29    26    13    2
    30    28    30    1
    31    29    36    1
    32    30    38    1
    33    30    33    1
    34    31    37    1
    35    32    31    2
    36    33     1    1
    37    34    41   ar
    38    35    28    2
    39    35    36    1
    40    36    39    2
    41    38    31    1
    42    39    33    1
    43    40    41   ar
    44    41    35    1
