@<TRIPOS>MOLECULE
outputs/IAG933/test6/raw/output_1285_IAG933_linker_design_.xyz
 42 45 0 0 0
SMALL
GASTEIGER

@<TRIPOS>ATOM
      1 C         -24.8550   -1.0120   30.1430 C.3     1  UNL1        0.0601
      2 C         -24.9730   -2.5050   29.7880 C.2     1  UNL1       -0.0194
      3 C         -23.9060   -3.1730   29.1460 C.2     1  UNL1       -0.0042
      4 C         -23.9890   -4.5490   28.8530 C.2     1  UNL1       -0.0003
      5 C         -25.1370   -5.2800   29.2050 C.2     1  UNL1       -0.0000
      6 C         -26.2320   -4.6110   29.7840 C.2     1  UNL1       -0.0003
      7 C         -26.1550   -3.2320   30.0650 C.2     1  UNL1       -0.0042
      8 C         -25.3870   -0.6790   31.5710 C.3     1  UNL1        0.0785
      9 C         -25.1890    0.7730   32.0280 C.3     1  UNL1        0.0192
     10 C         -25.3360    0.6840   33.5440 C.3     1  UNL1        0.0202
     11 C         -24.8290   -0.7150   33.9050 C.3     1  UNL1        0.0887
     12 N         -24.7580   -1.4810   32.6460 N.3     1  UNL1       -0.2191
     13 C         -25.6880    1.6140   26.4610 C.2     1  UNL1        0.0463
     14 C         -26.2500    2.9200   26.3950 C.2     1  UNL1        0.0772
     15 C         -25.6420    4.0930   27.1230 C.2     1  UNL1        0.2664
     16 N         -25.6140    5.2520   26.4490 N.am    1  UNL1       -0.1997
     17 C         -25.0260    6.4790   26.9630 C.3     1  UNL1        0.1388
     18 O         -25.1430    3.9660   28.2430 O.2     1  UNL1       -0.2683
     19 C         -27.4380    3.0910   25.6450 C.2     1  UNL1        0.1067
     20 N         -28.0750    2.0890   25.0030 N.2     1  UNL1       -0.2081
     21 C         -27.5430    0.8490   25.0790 C.2     1  UNL1        0.2533
     22 O         -28.1930   -0.2080   24.4770 O.2     1  UNL1       -0.4558
     23 C         -29.4600    0.0050   23.8660 C.3     1  UNL1        0.2426
     24 C         -30.0650   -1.3770   23.5730 C.3     1  UNL1        0.2292
     25 O         -30.7290   -1.8780   24.7210 O.3     1  UNL1       -0.2162
     26 C         -26.3540    0.5760   25.7770 C.2     1  UNL1        0.1937
     27 F         -25.8600   -0.6810   25.7950 F       1  UNL1       -0.1992
     28 N         -23.3145    0.3504   28.8361 N.2     1  UNL1       -0.2723
     29 C         -21.9371    0.5317   28.7874 C.3     1  UNL1        0.1314
     30 C         -21.3907    1.1709   27.7215 C.3     1  UNL1        0.0721
     31 N         -26.6922    0.4100   29.0944 N.3     1  UNL1       -0.1869
     32 C         -25.4136   -0.0201   29.1567 C.3     1  UNL1        0.1205
     33 CL        -22.4383    2.3299   25.5945 Cl      1  UNL1       -0.0786
     34 C         -23.3618    1.4712   26.8768 C.1     1  UNL1       -0.0933
     35 C         -29.9295   -0.7672   28.9078 C.3     1  UNL1        0.1439
     36 C         -24.6241    0.4996   28.3197 C.2     1  UNL1        0.0770
     37 C         -22.3210    1.5802   26.8876 C.2     1  UNL1        0.0714
     38 C         -27.7490   -0.2351   29.7247 C.3     1  UNL1        0.1896
     39 C         -30.3848    0.5097   28.2795 C.3     1  UNL1        0.0347
     40 C         -24.6631    1.2092   27.2325 C.2     1  UNL1        0.0518
     41 C         -28.6015    0.5592   30.7528 C.3     1  UNL1        0.0521
     42 O         -28.5284   -0.9269   28.7389 O.3     1  UNL1       -0.3396
@<TRIPOS>BOND
     1     1    32    1
     2     2     7    1
     3     2     1    1
     4     3     2    2
     5     4     3    1
     6     4     5    2
     7     5     6    1
     8     6     7    2
     9     8     1    1
    10     8     9    1
    11     8    12    1
    12     9    10    1
    13    10    11    1
    14    12    11    1
    15    13    40    1
    16    14    13    1
    17    14    15    1
    18    15    18    2
    19    16    17    1
    20    16    15    1
    21    19    14    2
    22    20    21    2
    23    20    19    1
    24    21    26    1
    25    22    21    1
    26    23    22    1
    27    24    23    1
    28    24    25    1
    29    26    27    1
    30    26    13    2
    31    29    28    1
    32    30    29    1
    33    31    38    1
    34    32    31    1
    35    33    37    1
    36    34    37    2
    37    34    40    2
    38    36    28    2
    39    36    32    1
    40    37    30    1
    41    38    41    1
    42    39    35    1
    43    40    36    1
    44    42    35    1
    45    42    38    1
