@<TRIPOS>MOLECULE
outputs/IAG933/test6/raw/output_1286_IAG933_linker_design_.xyz
 43 46 0 0 0
SMALL
GASTEIGER

@<TRIPOS>ATOM
      1 C         -24.8550   -1.0120   30.1430 C.3     1  UNL1        0.0437
      2 C         -24.9730   -2.5050   29.7880 C.2     1  UNL1       -0.0208
      3 C         -23.9060   -3.1730   29.1460 C.2     1  UNL1       -0.0042
      4 C         -23.9890   -4.5490   28.8530 C.2     1  UNL1       -0.0003
      5 C         -25.1370   -5.2800   29.2050 C.2     1  UNL1       -0.0000
      6 C         -26.2320   -4.6110   29.7840 C.2     1  UNL1       -0.0003
      7 C         -26.1550   -3.2320   30.0650 C.2     1  UNL1       -0.0042
      8 C         -25.3870   -0.6790   31.5710 C.3     1  UNL1        0.0771
      9 C         -25.1890    0.7730   32.0280 C.3     1  UNL1        0.0184
     10 C         -25.3360    0.6840   33.5440 C.3     1  UNL1        0.0202
     11 C         -24.8290   -0.7150   33.9050 C.3     1  UNL1        0.0887
     12 N         -24.7580   -1.4810   32.6460 N.3     1  UNL1       -0.2191
     13 C         -25.6880    1.6140   26.4610 C.2     1  UNL1        0.0175
     14 C         -26.2500    2.9200   26.3950 C.2     1  UNL1        0.0726
     15 C         -25.6420    4.0930   27.1230 C.2     1  UNL1        0.2661
     16 N         -25.6140    5.2520   26.4490 N.am    1  UNL1       -0.1997
     17 C         -25.0260    6.4790   26.9630 C.3     1  UNL1        0.1388
     18 O         -25.1430    3.9660   28.2430 O.2     1  UNL1       -0.2683
     19 C         -27.4380    3.0910   25.6450 C.2     1  UNL1        0.1064
     20 N         -28.0750    2.0890   25.0030 N.2     1  UNL1       -0.2081
     21 C         -27.5430    0.8490   25.0790 C.2     1  UNL1        0.2530
     22 O         -28.1930   -0.2080   24.4770 O.2     1  UNL1       -0.4558
     23 C         -29.4600    0.0050   23.8660 C.3     1  UNL1        0.2426
     24 C         -30.0650   -1.3770   23.5730 C.3     1  UNL1        0.2292
     25 O         -30.7290   -1.8780   24.7210 O.3     1  UNL1       -0.2162
     26 C         -26.3540    0.5760   25.7770 C.2     1  UNL1        0.1892
     27 F         -25.8600   -0.6810   25.7950 F       1  UNL1       -0.1996
     28 C         -26.1152    1.8985   31.4871 C.3     1  UNL1        0.0153
     29 C         -22.7932    1.1763   29.9774 C.3     1  UNL1        0.1453
     30 C         -25.5590    3.4100   31.5895 C.3     1  UNL1        0.1329
     31 C         -22.2062    0.8472   27.7791 C.3     1  UNL1        0.1838
     32 C         -23.4314    0.6009   26.6397 C.3     1  UNL1        0.1325
     33 C         -24.5470    1.1842   27.5152 C.3     1  UNL1        0.0527
     34 F         -20.9476    1.1752   27.8799 F       1  UNL1       -0.2353
     35 N         -23.3735    1.5202   25.4772 N.am    1  UNL1       -0.1964
     36 O         -21.1868    2.1462   25.3322 O.2     1  UNL1       -0.2633
     37 O         -24.8299    5.2825   33.1044 O.co2   1  UNL1       -0.2456
     38 O         -26.4647    4.0165   33.6975 O.co2   1  UNL1       -0.2456
     39 C         -22.2477    1.5744   24.9034 C.2     1  UNL1        0.3202
     40 C         -25.6420    4.3448   32.8962 C.2     1  UNL1        0.3668
     41 C         -23.9954    3.2419   31.4803 C.3     1  UNL1        0.1533
     42 C         -23.2243    1.6429   28.5717 C.3     1  UNL1        0.0698
     43 O         -23.3984    2.1076   30.9052 O.3     1  UNL1       -0.3531
@<TRIPOS>BOND
     1     2     7    1
     2     2     1    1
     3     3     2    2
     4     4     3    1
     5     4     5    2
     6     5     6    1
     7     6     7    2
     8     8     1    1
     9     8     9    1
    10     8    12    1
    11     9    28    1
    12     9    10    1
    13    10    11    1
    14    12    11    1
    15    14    13    1
    16    14    15    1
    17    15    18    2
    18    16    17    1
    19    16    15    1
    20    19    14    2
    21    20    21    2
    22    20    19    1
    23    21    26    1
    24    22    21    1
    25    23    22    1
    26    24    23    1
    27    24    25    1
    28    26    27    1
    29    26    13    2
    30    28    30    1
    31    29    43    1
    32    30    41    1
    33    30    40    1
    34    31    34    1
    35    31    42    1
    36    32    35    1
    37    32    33    1
    38    32    31    1
    39    33    13    1
    40    33    42    1
    41    39    36    2
    42    39    35    1
    43    40    37   ar
    44    40    38   ar
    45    42    29    1
    46    43    41    1
