@<TRIPOS>MOLECULE
No_1289-gen_results/8p0m/2024-11-27-11-27-31/
 20 21 0 0 0
SMALL
GASTEIGER

@<TRIPOS>ATOM
      1 C         -28.0162   -0.8135   28.8779 C.ar    1  UNL1        0.0116
      2 C         -27.0636   -0.1189   28.6079 C.ar    1  UNL1        0.0072
      3 C         -25.7923   -0.4302   29.0761 C.ar    1  UNL1        0.0003
      4 C         -25.5756   -1.5654   29.9363 C.ar    1  UNL1        0.0009
      5 C         -26.7354   -2.3004   30.2173 C.ar    1  UNL1        0.0114
      6 C         -27.9184   -1.9537   29.7629 C.ar    1  UNL1        0.0577
      7 C         -27.1057    1.1023   27.7593 C.ar    1  UNL1        0.0798
      8 C         -26.1219    1.4820   27.0232 C.ar    1  UNL1        0.0077
      9 C         -24.7142    1.1299   27.4889 C.ar    1  UNL1        0.0137
     10 C         -24.5718    0.0966   28.4066 C.ar    1  UNL1        0.0012
     11 C         -23.5495    1.7790   26.9027 C.2     1  UNL1        0.0598
     12 N         -22.4536    1.9030   27.6175 N.2     1  UNL1       -0.2722
     13 C         -23.5345    2.2077   25.5484 C.3     1  UNL1        0.0942
     14 CL        -29.2774   -2.8229   30.3220 Cl      1  UNL1       -0.0822
     15 C         -22.2766    2.6980   25.1285 C.2     1  UNL1        0.1020
     16 C         -22.4326    1.5782   28.9382 C.3     1  UNL1        0.1513
     17 C         -28.4823    1.5930   27.4596 C.2     1  UNL1        0.3878
     18 O         -28.7844    2.5476   28.1178 O.co2   1  UNL1       -0.2406
     19 O         -29.1961    0.9753   26.6108 O.co2   1  UNL1       -0.2406
     20 N         -21.2083    2.4170   25.8081 N.2     1  UNL1       -0.1510
@<TRIPOS>BOND
     1     9    11    1
     2    11    12    2
     3    11    13    1
     4     6    14    1
     5    13    15    1
     6    12    16    1
     7     7    17    1
     8    17    18   ar
     9    17    19   ar
    10    15    20    2
    11     1     2   ar
    12     3     4   ar
    13     4     5   ar
    14     5     6   ar
    15     6     1   ar
    16     2     3   ar
    17     3    10   ar
    18    10     9   ar
    19     9     8   ar
    20     8     7   ar
    21     7     2   ar
