@<TRIPOS>MOLECULE
No_129-gen_results/8p0m/2024-11-27-11-27-31/
 11 11 0 0 0
SMALL
GASTEIGER

@<TRIPOS>ATOM
      1 C         -28.0162   -0.8135   28.8779 C.ar    1  UNL1       -0.0029
      2 C         -28.4690   -0.7850   29.8287 C.ar    1  UNL1       -0.0045
      3 C         -26.5042   -0.7777   28.8766 C.ar    1  UNL1       -0.0003
      4 C         -25.8103   -0.8531   30.1028 C.ar    1  UNL1       -0.0000
      5 C         -27.9906   -0.8916   31.2257 C.ar    1  UNL1       -0.0029
      6 C         -26.6042   -0.8676   31.2652 C.ar    1  UNL1       -0.0003
      7 C         -30.0739   -0.8360   29.8615 C.3     1  UNL1        0.1200
      8 N         -30.6529   -1.7943   30.2676 N.3     1  UNL1       -0.1277
      9 C         -30.5853   -0.3977   28.4869 C.3     1  UNL1        0.0724
     10 C         -31.7235    0.3771   28.5662 C.2     1  UNL1        0.0975
     11 N         -32.2974    0.6540   27.5853 N.2     1  UNL1       -0.1514
@<TRIPOS>BOND
     1     2     7    1
     2     7     8    1
     3     7     9    1
     4     9    10    1
     5    10    11    2
     6     1     2   ar
     7     2     5   ar
     8     5     6   ar
     9     6     4   ar
    10     4     3   ar
    11     3     1   ar
