@<TRIPOS>MOLECULE
outputs/IAG933/test6/raw/output_1290_IAG933_linker_design_.xyz
 39 43 0 0 0
SMALL
GASTEIGER

@<TRIPOS>ATOM
      1 C         -24.8550   -1.0120   30.1430 C.3     1  UNL1        0.2031
      2 C         -24.9730   -2.5050   29.7880 C.2     1  UNL1        0.0217
      3 C         -23.9060   -3.1730   29.1460 C.2     1  UNL1       -0.0004
      4 C         -23.9890   -4.5490   28.8530 C.2     1  UNL1       -0.0002
      5 C         -25.1370   -5.2800   29.2050 C.2     1  UNL1       -0.0000
      6 C         -26.2320   -4.6110   29.7840 C.2     1  UNL1       -0.0002
      7 C         -26.1550   -3.2320   30.0650 C.2     1  UNL1       -0.0004
      8 C         -25.3870   -0.6790   31.5710 C.3     1  UNL1        0.1201
      9 C         -25.1890    0.7730   32.0280 C.3     1  UNL1        0.0233
     10 C         -25.3360    0.6840   33.5440 C.3     1  UNL1        0.0204
     11 C         -24.8290   -0.7150   33.9050 C.3     1  UNL1        0.0889
     12 N         -24.7580   -1.4810   32.6460 N.3     1  UNL1       -0.2150
     13 C         -25.6880    1.6140   26.4610 C.2     1  UNL1        0.0795
     14 C         -26.2500    2.9200   26.3950 C.2     1  UNL1        0.0800
     15 C         -25.6420    4.0930   27.1230 C.2     1  UNL1        0.2665
     16 N         -25.6140    5.2520   26.4490 N.am    1  UNL1       -0.1997
     17 C         -25.0260    6.4790   26.9630 C.3     1  UNL1        0.1388
     18 O         -25.1430    3.9660   28.2430 O.2     1  UNL1       -0.2683
     19 C         -27.4380    3.0910   25.6450 C.2     1  UNL1        0.1068
     20 N         -28.0750    2.0890   25.0030 N.2     1  UNL1       -0.2081
     21 C         -27.5430    0.8490   25.0790 C.2     1  UNL1        0.2534
     22 O         -28.1930   -0.2080   24.4770 O.2     1  UNL1       -0.4558
     23 C         -29.4600    0.0050   23.8660 C.3     1  UNL1        0.2426
     24 C         -30.0650   -1.3770   23.5730 C.3     1  UNL1        0.2292
     25 O         -30.7290   -1.8780   24.7210 O.3     1  UNL1       -0.2162
     26 C         -26.3540    0.5760   25.7770 C.2     1  UNL1        0.1965
     27 F         -25.8600   -0.6810   25.7950 F       1  UNL1       -0.1991
     28 N         -23.5591   -0.5130   29.8654 N.pl3   1  UNL1       -0.1676
     29 C         -24.4581    1.3647   27.1426 C.2     1  UNL1        0.1939
     30 C         -22.8090    2.3059   25.5032 C.1     1  UNL1        0.1027
     31 C         -22.0412    1.4026   27.4330 C.3     1  UNL1        0.2256
     32 C         -23.5599    0.2976   28.8452 C.2     1  UNL1        0.3176
     33 F         -20.8370    1.9420   27.2916 F       1  UNL1       -0.2264
     34 C         -22.4435   -0.7548   30.2319 C.2     1  UNL1        0.1759
     35 C         -21.4270   -0.1574   29.3625 C.2     1  UNL1        0.0498
     36 C         -22.2560    0.5592   28.4060 C.2     1  UNL1        0.0989
     37 N         -22.4846    2.8087   24.5904 N.1     1  UNL1       -0.1909
     38 N         -24.6595    0.8358   28.3456 N.pl3   1  UNL1       -0.0104
     39 C         -23.1553    1.7138   26.6705 C.2     1  UNL1        0.1237
@<TRIPOS>BOND
     1     1     2    1
     2     2     7    1
     3     3     2    2
     4     4     3    1
     5     4     5    2
     6     5     6    1
     7     6     7    2
     8     8     1    1
     9     8     9    1
    10     8    12    1
    11     9    10    1
    12    10    11    1
    13    12    11    1
    14    13    29    1
    15    14    13    1
    16    14    15    1
    17    15    18    2
    18    16    17    1
    19    16    15    1
    20    19    14    2
    21    20    21    2
    22    20    19    1
    23    21    26    1
    24    22    21    1
    25    23    22    1
    26    24    23    1
    27    24    25    1
    28    26    27    1
    29    26    13    2
    30    28     1    1
    31    28    34    1
    32    29    38    1
    33    30    39    1
    34    31    33    1
    35    31    36    1
    36    32    28    1
    37    35    34    2
    38    36    32    2
    39    36    35    1
    40    37    30    3
    41    38    32    1
    42    39    29    2
    43    39    31    1
