@<TRIPOS>MOLECULE
No_1292-gen_results/8p0m/2024-11-27-11-27-31/
 12 12 0 0 0
SMALL
GASTEIGER

@<TRIPOS>ATOM
      1 C         -28.0162   -0.8135   28.8779 C.ar    1  UNL1        0.0017
      2 C         -28.4690   -0.7850   29.8287 C.ar    1  UNL1        0.0240
      3 C         -26.5042   -0.7777   28.8766 C.ar    1  UNL1        0.0001
      4 C         -25.8103   -0.8531   30.1028 C.ar    1  UNL1        0.0000
      5 C         -27.9906   -0.8916   31.2257 C.ar    1  UNL1        0.0017
      6 C         -26.6042   -0.8676   31.2652 C.ar    1  UNL1        0.0001
      7 C         -30.0739   -0.8360   29.8615 C.2     1  UNL1        0.1576
      8 N         -30.6529   -1.7943   30.2676 N.2     1  UNL1       -0.1432
      9 C         -30.7371    0.2483   29.2293 C.2     1  UNL1        0.2843
     10 N         -30.1364    1.3379   28.7855 N.am    1  UNL1       -0.1984
     11 O         -31.9593    0.1057   28.8543 O.2     1  UNL1       -0.2666
     12 C         -30.7807    2.4100   28.1051 C.3     1  UNL1        0.1389
@<TRIPOS>BOND
     1     2     7    1
     2     7     8    2
     3     7     9    1
     4     9    10   am
     5     9    11    2
     6    10    12    1
     7     1     2   ar
     8     2     5   ar
     9     5     6   ar
    10     6     4   ar
    11     4     3   ar
    12     3     1   ar
