@<TRIPOS>MOLECULE
No_1294-gen_results/8p0m/2024-11-27-11-27-31/
 14 15 0 0 0
SMALL
GASTEIGER

@<TRIPOS>ATOM
      1 C         -28.0162   -0.8135   28.8779 C.ar    1  UNL1       -0.0039
      2 C         -28.4690   -0.7850   29.8287 C.ar    1  UNL1       -0.0003
      3 C         -26.5455   -0.8762   28.8500 C.ar    1  UNL1       -0.0177
      4 C         -25.6825   -0.7773   27.6829 C.3     1  UNL1        0.0549
      5 C         -27.9181   -1.0034   31.1877 C.ar    1  UNL1       -0.0000
      6 C         -26.5308   -1.0794   31.2463 C.ar    1  UNL1       -0.0003
      7 C         -25.7798   -1.0462   30.0905 C.ar    1  UNL1       -0.0039
      8 C         -25.2322    0.5793   27.3292 C.ar    1  UNL1        0.0097
      9 C         -25.5211    1.0301   26.0784 C.ar    1  UNL1        0.1365
     10 C         -25.0743    2.3434   25.7059 C.ar    1  UNL1        0.0293
     11 C         -24.2837    3.0961   26.6370 C.ar    1  UNL1        0.0023
     12 C         -24.5001    1.4013   28.1731 C.ar    1  UNL1       -0.0017
     13 C         -24.0025    2.5735   27.8382 C.ar    1  UNL1       -0.0002
     14 F         -26.1765    0.4207   25.2058 F       1  UNL1       -0.2045
@<TRIPOS>BOND
     1     3     4    1
     2     4     8    1
     3     9    14    1
     4     1     2   ar
     5     2     5   ar
     6     5     6   ar
     7     6     7   ar
     8     7     3   ar
     9     3     1   ar
    10     8     9   ar
    11     9    10   ar
    12    10    11   ar
    13    11    13   ar
    14    13    12   ar
    15    12     8   ar
