@<TRIPOS>MOLECULE
outputs/IAG933/test6/raw/output_1295_IAG933_linker_design_.xyz
 59 64 0 0 0
SMALL
GASTEIGER

@<TRIPOS>ATOM
      1 C         -24.8550   -1.0120   30.1430 C.3     1  UNL1        0.0383
      2 C         -24.9730   -2.5050   29.7880 C.2     1  UNL1       -0.0212
      3 C         -23.9060   -3.1730   29.1460 C.2     1  UNL1       -0.0042
      4 C         -23.9890   -4.5490   28.8530 C.2     1  UNL1       -0.0003
      5 C         -25.1370   -5.2800   29.2050 C.2     1  UNL1       -0.0000
      6 C         -26.2320   -4.6110   29.7840 C.2     1  UNL1       -0.0003
      7 C         -26.1550   -3.2320   30.0650 C.2     1  UNL1       -0.0042
      8 C         -25.3870   -0.6790   31.5710 C.3     1  UNL1        0.0768
      9 C         -25.1890    0.7730   32.0280 C.3     1  UNL1        0.0178
     10 C         -25.3360    0.6840   33.5440 C.3     1  UNL1        0.0202
     11 C         -24.8290   -0.7150   33.9050 C.3     1  UNL1        0.0887
     12 N         -24.7580   -1.4810   32.6460 N.3     1  UNL1       -0.2191
     13 C         -25.6880    1.6140   26.4610 C.2     1  UNL1        0.0159
     14 C         -26.2500    2.9200   26.3950 C.2     1  UNL1        0.0726
     15 C         -25.6420    4.0930   27.1230 C.2     1  UNL1        0.2661
     16 N         -25.6140    5.2520   26.4490 N.am    1  UNL1       -0.1997
     17 C         -25.0260    6.4790   26.9630 C.3     1  UNL1        0.1388
     18 O         -25.1430    3.9660   28.2430 O.2     1  UNL1       -0.2683
     19 C         -27.4380    3.0910   25.6450 C.2     1  UNL1        0.1064
     20 N         -28.0750    2.0890   25.0030 N.2     1  UNL1       -0.2081
     21 C         -27.5430    0.8490   25.0790 C.2     1  UNL1        0.2530
     22 O         -28.1930   -0.2080   24.4770 O.2     1  UNL1       -0.4558
     23 C         -29.4600    0.0050   23.8660 C.3     1  UNL1        0.2426
     24 C         -30.0650   -1.3770   23.5730 C.3     1  UNL1        0.2292
     25 O         -30.7290   -1.8780   24.7210 O.3     1  UNL1       -0.2162
     26 C         -26.3540    0.5760   25.7770 C.2     1  UNL1        0.1891
     27 F         -25.8600   -0.6810   25.7950 F       1  UNL1       -0.1996
     28 C         -27.1906    2.7393   30.6132 C.3     1  UNL1        0.0001
     29 C         -29.7163    1.1850   30.6417 C.2     1  UNL1        0.0685
     30 C         -29.7190   -2.1355   35.2276 C.3     1  UNL1        0.0346
     31 O         -31.0439    3.0922   31.4280 O.3     1  UNL1       -0.4197
     32 C         -28.3397    1.8228   32.5925 C.3     1  UNL1        0.0087
     33 C         -29.6704   -2.6981   33.1187 C.3     1  UNL1        0.0057
     34 C         -25.8962    2.0998   31.3003 C.3     1  UNL1        0.0014
     35 O         -30.6151   -4.2530   35.5964 O.3     1  UNL1       -0.3538
     36 C         -29.1570    0.7523   31.9126 C.3     1  UNL1        0.0597
     37 C         -24.6308    0.5659   28.2174 C.3     1  UNL1        0.0048
     38 C         -29.7873   -0.2077   32.6241 C.3     1  UNL1        0.0802
     39 S         -31.3732   -3.3146   30.2790 S.O2    1  UNL1       -0.0099
     40 C         -29.0593   -3.1466   34.2964 C.3     1  UNL1        0.0323
     41 C         -30.3499   -3.0187   36.2782 C.3     1  UNL1        0.1422
     42 C         -28.0816    2.9991   31.6707 C.3     1  UNL1        0.0005
     43 C         -23.5953    0.5022   28.6320 C.3     1  UNL1        0.0007
     44 N         -30.7731    1.9100   30.6408 N.am    1  UNL1       -0.2827
     45 C         -23.6791   -0.1449   29.8594 C.3     1  UNL1        0.0058
     46 C         -31.9989    1.2884   30.2232 C.3     1  UNL1        0.1196
     47 C         -24.6320    1.4565   27.2124 C.3     1  UNL1        0.0290
     48 C         -29.1459    2.3901   33.7632 C.3     1  UNL1        0.0192
     49 C         -29.6821   -1.6243   32.3044 C.3     1  UNL1        0.0385
     50 C         -28.8499   -3.4781   30.5682 C.3     1  UNL1        0.0254
     51 C         -30.0631   -2.4429   30.9772 C.3     1  UNL1        0.1338
     52 N         -30.5800    0.3122   33.5419 N.3     1  UNL1       -0.2190
     53 O         -29.2582    0.9009   29.5330 O.2     1  UNL1       -0.5413
     54 O         -31.6204   -2.9378   29.0046 O.2     1  UNL1       -0.1730
     55 O         -31.2812   -4.7220   30.4208 O.2     1  UNL1       -0.1730
     56 C         -22.1576    0.9426   28.2094 C.3     1  UNL1        0.0000
     57 C         -31.6381   -2.6957   31.4606 C.3     1  UNL1        0.1725
     58 C         -30.4273    1.6431   34.0115 C.3     1  UNL1        0.0887
     59 C         -29.5223   -4.5156   34.6111 C.3     1  UNL1        0.1422
@<TRIPOS>BOND
     1     1    45    1
     2     2     7    1
     3     2     1    1
     4     3     2    2
     5     4     3    1
     6     4     5    2
     7     5     6    1
     8     6     7    2
     9     8     1    1
    10     8     9    1
    11     8    12    1
    12     9    34    1
    13     9    10    1
    14    10    11    1
    15    12    11    1
    16    13    47    1
    17    14    13    1
    18    14    15    1
    19    15    18    2
    20    16    17    1
    21    16    15    1
    22    19    14    2
    23    20    21    2
    24    20    19    1
    25    21    26    1
    26    22    21    1
    27    23    22    1
    28    24    23    1
    29    24    25    1
    30    26    27    1
    31    26    13    2
    32    28    34    1
    33    28    42    1
    34    30    41    1
    35    32    42    1
    36    32    48    1
    37    35    41    1
    38    36    29    1
    39    36    32    1
    40    36    38    1
    41    37    43    1
    42    38    49    1
    43    38    52    1
    44    39    55    2
    45    39    51    1
    46    39    57    1
    47    40    33    1
    48    40    59    1
    49    40    30    1
    50    43    56    1
    51    43    45    1
    52    44    29   am
    53    44    31    1
    54    46    44    1
    55    47    37    1
    56    48    58    1
    57    49    33    1
    58    51    50    1
    59    51    57    1
    60    51    49    1
    61    52    58    1
    62    53    29    2
    63    54    39    2
    64    59    35    1
