@<TRIPOS>MOLECULE
No_1297-gen_results/8p0m/2024-11-27-11-27-31/
 5 4 0 0 0
SMALL
GASTEIGER

@<TRIPOS>ATOM
      1 F         -28.0727   -1.2542   28.5316 F       1  UNL1       -0.1984
      2 C         -27.3591   -0.3792   28.7224 C.3     1  UNL1        0.3186
      3 F         -27.7576    0.4972   29.4008 F       1  UNL1       -0.1984
      4 C         -26.0810   -0.3916   28.0774 C.3     1  UNL1        0.0723
      5 C         -24.9200   -0.9492   28.7616 C.3     1  UNL1        0.0060
@<TRIPOS>BOND
     1     1     2    1
     2     2     3    1
     3     2     4    1
     4     4     5    1
