@<TRIPOS>MOLECULE
No_1298-gen_results/8p0m/2024-11-27-11-27-31/
 35 38 0 0 0
SMALL
GASTEIGER

@<TRIPOS>ATOM
      1 C         -28.0162   -0.8135   28.8779 C.ar    1  UNL1        0.0084
      2 C         -28.4690   -0.7850   29.8287 C.ar    1  UNL1        0.0554
      3 C         -27.0871    0.2903   28.6377 C.ar    1  UNL1        0.0716
      4 C         -26.2516    0.4114   27.4223 C.3     1  UNL1        0.4186
      5 C         -28.3913    0.1041   30.9805 C.ar    1  UNL1        0.0046
      6 C         -27.5332    1.1666   30.7866 C.ar    1  UNL1        0.0001
      7 C         -26.8281    1.2557   29.6454 C.ar    1  UNL1        0.0039
      8 F         -26.2894   -0.3208   26.7008 F       1  UNL1       -0.1659
      9 F         -24.9065    0.6298   27.8498 F       1  UNL1       -0.1659
     10 F         -26.5253    1.7003   26.8049 F       1  UNL1       -0.1659
     11 C         -29.4614   -2.0180   30.2134 C.2     1  UNL1        0.2713
     12 O         -30.4920   -1.8765   29.8137 O.2     1  UNL1       -0.2679
     13 N         -28.9889   -3.0995   30.8924 N.am    1  UNL1       -0.1404
     14 C         -29.8347   -4.2992   31.0967 C.2     1  UNL1        0.2559
     15 C         -31.0058   -4.0776   31.7034 C.3     1  UNL1        0.1230
     16 C         -31.3190   -3.0762   32.3376 C.ar    1  UNL1       -0.0100
     17 C         -30.6075   -2.8553   33.4570 C.ar    1  UNL1       -0.0078
     18 C         -30.8171   -1.6735   34.3372 C.ar    1  UNL1       -0.0225
     19 C         -31.8362   -0.8096   33.9315 C.ar    1  UNL1       -0.0040
     20 C         -32.5835   -1.0901   32.8130 C.ar    1  UNL1       -0.0006
     21 C         -32.3087   -2.1644   32.0392 C.ar    1  UNL1       -0.0035
     22 O         -29.2171   -5.2864   30.6753 O.2     1  UNL1       -0.2722
     23 C         -33.6434   -0.1023   32.4260 C.ar    1  UNL1       -0.0000
     24 C         -33.6974    0.9240   32.6518 C.ar    1  UNL1       -0.0000
     25 C         -32.8503    1.4052   33.8847 C.ar    1  UNL1       -0.0000
     26 C         -31.9660    0.5559   34.4978 C.ar    1  UNL1       -0.0003
     27 C         -31.9242   -5.1704   31.4453 C.ar    1  UNL1       -0.0097
     28 C         -32.4403   -5.8772   32.4837 C.ar    1  UNL1       -0.0026
     29 C         -32.3986   -5.4590   30.1176 C.ar    1  UNL1       -0.0026
     30 C         -33.4012   -6.8270   32.3736 C.ar    1  UNL1        0.0111
     31 C         -33.3267   -6.4768   29.9474 C.ar    1  UNL1        0.0111
     32 C         -33.8162   -7.1461   31.0395 C.ar    1  UNL1        0.0577
     33 CL        -34.9624   -8.3823   30.7584 Cl      1  UNL1       -0.0822
     34 C         -29.9942   -1.3644   35.5028 C.3     1  UNL1        0.0264
     35 C         -28.8583   -0.7322   35.4413 C.3     1  UNL1        0.0050
@<TRIPOS>BOND
     1     3     4    1
     2     4     8    1
     3     4     9    1
     4     4    10    1
     5     2    11    1
     6    11    12    2
     7    11    13   am
     8    13    14   am
     9    14    15    1
    10    15    16    1
    11    14    22    2
    12    15    27    1
    13    32    33    1
    14    18    34    1
    15    34    35    1
    16    27    28   ar
    17    28    30   ar
    18    30    32   ar
    19    32    31   ar
    20    31    29   ar
    21    29    27   ar
    22    20    23   ar
    23    23    24   ar
    24    24    25   ar
    25    25    26   ar
    26    26    19   ar
    27     1     2   ar
    28     2     5   ar
    29     5     6   ar
    30     6     7   ar
    31     7     3   ar
    32     3     1   ar
    33    16    17   ar
    34    17    18   ar
    35    18    19   ar
    36    19    20   ar
    37    20    21   ar
    38    21    16   ar
