@<TRIPOS>MOLECULE
outputs/IAG933/test6/raw/output_1299_IAG933_linker_design_.xyz
 47 50 0 0 0
SMALL
GASTEIGER

@<TRIPOS>ATOM
      1 C         -24.8550   -1.0120   30.1430 C.3     1  UNL1        0.2186
      2 C         -24.9730   -2.5050   29.7880 C.2     1  UNL1        0.0184
      3 C         -23.9060   -3.1730   29.1460 C.2     1  UNL1       -0.0009
      4 C         -23.9890   -4.5490   28.8530 C.2     1  UNL1       -0.0002
      5 C         -25.1370   -5.2800   29.2050 C.2     1  UNL1       -0.0000
      6 C         -26.2320   -4.6110   29.7840 C.2     1  UNL1       -0.0002
      7 C         -26.1550   -3.2320   30.0650 C.2     1  UNL1       -0.0009
      8 C         -25.3870   -0.6790   31.5710 C.3     1  UNL1        0.1168
      9 C         -25.1890    0.7730   32.0280 C.3     1  UNL1        0.0228
     10 C         -25.3360    0.6840   33.5440 C.3     1  UNL1        0.0204
     11 C         -24.8290   -0.7150   33.9050 C.3     1  UNL1        0.0888
     12 N         -24.7580   -1.4810   32.6460 N.3     1  UNL1       -0.2156
     13 C         -25.6880    1.6140   26.4610 C.2     1  UNL1        0.0407
     14 C         -26.2500    2.9200   26.3950 C.2     1  UNL1        0.0745
     15 C         -25.6420    4.0930   27.1230 C.2     1  UNL1        0.2248
     16 N         -25.6140    5.2520   26.4490 N.2     1  UNL1       -0.2356
     17 C         -25.0260    6.4790   26.9630 C.3     1  UNL1        0.1550
     18 O         -25.1430    3.9660   28.2430 O.2     1  UNL1       -0.4269
     19 C         -27.4380    3.0910   25.6450 C.2     1  UNL1        0.1068
     20 N         -28.0750    2.0890   25.0030 N.2     1  UNL1       -0.2081
     21 C         -27.5430    0.8490   25.0790 C.2     1  UNL1        0.2533
     22 O         -28.1930   -0.2080   24.4770 O.2     1  UNL1       -0.4558
     23 C         -29.4600    0.0050   23.8660 C.3     1  UNL1        0.2426
     24 C         -30.0650   -1.3770   23.5730 C.3     1  UNL1        0.2292
     25 O         -30.7290   -1.8780   24.7210 O.3     1  UNL1       -0.2162
     26 C         -26.3540    0.5760   25.7770 C.2     1  UNL1        0.1931
     27 F         -25.8600   -0.6810   25.7950 F       1  UNL1       -0.1992
     28 N         -23.6632    2.0177   28.5503 N.am    1  UNL1        0.0016
     29 C         -27.5798    4.0512   31.0980 C.3     1  UNL1        0.0464
     30 C         -25.4285    3.7155   29.6546 C.3     1  UNL1        0.3587
     31 C         -29.3794    6.2573   27.8850 C.2     1  UNL1        0.0033
     32 C         -28.3502    6.0262   29.9921 C.2     1  UNL1        0.1917
     33 C         -25.2683    4.6747   32.2802 C.2     1  UNL1        0.2679
     34 O         -22.2032    0.2502   28.6679 O.2     1  UNL1       -0.2534
     35 C         -29.5809    4.8611   27.9573 C.2     1  UNL1       -0.0001
     36 C         -28.7331    6.8604   28.9541 C.2     1  UNL1        0.0417
     37 C         -21.5669    1.9232   27.1513 C.3     1  UNL1        0.1176
     38 C         -26.0418    4.2102   31.0732 C.3     1  UNL1        0.1672
     39 C         -28.3221    4.7489   30.0302 C.2     1  UNL1        0.0175
     40 N         -25.1272   -0.0646   29.0649 N.pl3   1  UNL1       -0.0914
     41 C         -24.8133    1.4255   29.0392 C.2     1  UNL1        0.4550
     42 C         -22.5058    1.3906   28.2066 C.2     1  UNL1        0.3194
     43 O         -24.8091    3.8877   33.0600 O.2     1  UNL1       -0.2714
     44 C         -29.1167    4.1003   29.0391 C.2     1  UNL1       -0.0011
     45 N         -25.7492    2.2862   29.5427 N.pl3   1  UNL1       -0.0522
     46 N         -25.1380    5.9452   32.3816 N.am    1  UNL1       -0.0876
     47 O         -27.9108    6.3274   31.3053 O.2     1  UNL1       -0.2869
@<TRIPOS>BOND
     1     1    40    1
     2     2     7    1
     3     2     1    1
     4     3     2    2
     5     4     3    1
     6     4     5    2
     7     5     6    1
     8     6     7    2
     9     8     1    1
    10     8     9    1
    11     8    12    1
    12     9    10    1
    13    10    11    1
    14    12    11    1
    15    14    13    1
    16    14    15    1
    17    15    18    1
    18    16    17    1
    19    16    15    2
    20    19    14    2
    21    20    21    2
    22    20    19    1
    23    21    26    1
    24    22    21    1
    25    23    22    1
    26    24    23    1
    27    24    25    1
    28    26    27    1
    29    26    13    2
    30    28    41    1
    31    30    18    1
    32    30    38    1
    33    31    35    2
    34    31    36    1
    35    32    39    1
    36    32    47    1
    37    33    46    1
    38    33    43    2
    39    35    44    1
    40    36    32    2
    41    37    42    1
    42    38    29    1
    43    38    33    1
    44    39    29    1
    45    41    40    1
    46    41    45    2
    47    42    28    1
    48    42    34    2
    49    44    39    2
    50    45    30    1
