@<TRIPOS>MOLECULE
No_130-gen_results/8p0m/2024-11-27-11-27-31/
 14 15 0 0 0
SMALL
GASTEIGER

@<TRIPOS>ATOM
      1 C         -28.0162   -0.8135   28.8779 C.ar    1  UNL1       -0.0073
      2 C         -28.4690   -0.7850   29.8287 C.ar    1  UNL1       -0.0062
      3 C         -26.5042   -0.7777   28.8766 C.ar    1  UNL1       -0.0217
      4 C         -25.7622   -0.0022   27.9705 C.3     1  UNL1        0.0520
      5 C         -25.2031    1.1747   28.5115 C.2     1  UNL1       -0.0214
      6 C         -23.8565    1.2491   28.4361 C.2     1  UNL1       -0.0046
      7 C         -29.9980   -0.7270   29.9299 C.3     1  UNL1        0.1211
      8 CL        -30.8102   -0.2960   28.6230 Cl      1  UNL1       -0.1085
      9 C         -23.0113    0.3956   29.1627 C.2     1  UNL1       -0.0046
     10 C         -23.4279   -0.0656   30.3168 C.2     1  UNL1       -0.0214
     11 C         -27.7381   -1.4600   31.0337 C.ar    1  UNL1       -0.0034
     12 C         -26.4329   -1.5720   31.0757 C.ar    1  UNL1       -0.0045
     13 C         -25.7629   -1.3284   29.9316 C.ar    1  UNL1       -0.0214
     14 C         -24.6153   -0.3491   30.5394 C.3     1  UNL1        0.0520
@<TRIPOS>BOND
     1     3     4    1
     2     4     5    1
     3     5     6    2
     4     2     7    1
     5     7     8    1
     6     6     9    1
     7     9    10    2
     8    10    14    1
     9    13    14    1
    10     1     2   ar
    11     2    11   ar
    12    11    12   ar
    13    12    13   ar
    14    13     3   ar
    15     3     1   ar
