@<TRIPOS>MOLECULE
No_1300-gen_results/8p0m/2024-11-27-11-27-31/
 15 16 0 0 0
SMALL
GASTEIGER

@<TRIPOS>ATOM
      1 C         -28.0162   -0.8135   28.8779 C.ar    1  UNL1        0.0020
      2 C         -28.4690   -0.7850   29.8287 C.ar    1  UNL1        0.0001
      3 C         -27.1356    0.2359   28.5352 C.ar    1  UNL1        0.0240
      4 C         -26.8745    1.2825   29.3982 C.ar    1  UNL1        0.0020
      5 C         -28.3613    0.1987   30.9244 C.ar    1  UNL1        0.0000
      6 C         -27.5277    1.2234   30.6356 C.ar    1  UNL1        0.0001
      7 C         -26.3879    0.2914   27.2334 C.2     1  UNL1        0.1153
      8 N         -26.5292    0.7116   26.2887 N.2     1  UNL1       -0.2387
      9 BR        -24.5183   -0.1698   27.5872 Br      1  UNL1       -0.0280
     10 C         -27.7874    1.2483   26.0707 C.ar    1  UNL1        0.0819
     11 C         -28.2898    1.2069   24.7258 C.ar    1  UNL1        0.0191
     12 C         -29.5138    1.7976   24.4781 C.ar    1  UNL1        0.0015
     13 C         -30.2115    2.5027   25.4547 C.ar    1  UNL1        0.0001
     14 C         -29.6406    2.6564   26.7119 C.ar    1  UNL1        0.0015
     15 C         -28.4639    2.0848   27.0070 C.ar    1  UNL1        0.0191
@<TRIPOS>BOND
     1     3     7    1
     2     7     8    2
     3     7     9    1
     4     8    10    1
     5     1     2   ar
     6     2     5   ar
     7     5     6   ar
     8     6     4   ar
     9     4     3   ar
    10     3     1   ar
    11    10    11   ar
    12    11    12   ar
    13    12    13   ar
    14    13    14   ar
    15    14    15   ar
    16    15    10   ar
