@<TRIPOS>MOLECULE
outputs/IAG933/test6/raw/output_1301_IAG933_linker_design_.xyz
 42 46 0 0 0
SMALL
GASTEIGER

@<TRIPOS>ATOM
      1 C         -24.8550   -1.0120   30.1430 C.3     1  UNL1        0.1534
      2 C         -24.9730   -2.5050   29.7880 C.2     1  UNL1        0.0059
      3 C         -23.9060   -3.1730   29.1460 C.2     1  UNL1       -0.0019
      4 C         -23.9890   -4.5490   28.8530 C.2     1  UNL1       -0.0002
      5 C         -25.1370   -5.2800   29.2050 C.2     1  UNL1       -0.0000
      6 C         -26.2320   -4.6110   29.7840 C.2     1  UNL1       -0.0002
      7 C         -26.1550   -3.2320   30.0650 C.2     1  UNL1       -0.0019
      8 C         -25.3870   -0.6790   31.5710 C.3     1  UNL1        0.1041
      9 C         -25.1890    0.7730   32.0280 C.3     1  UNL1        0.0217
     10 C         -25.3360    0.6840   33.5440 C.3     1  UNL1        0.0203
     11 C         -24.8290   -0.7150   33.9050 C.3     1  UNL1        0.0888
     12 N         -24.7580   -1.4810   32.6460 N.3     1  UNL1       -0.2166
     13 C         -25.6880    1.6140   26.4610 C.2     1  UNL1        0.0223
     14 C         -26.2500    2.9200   26.3950 C.2     1  UNL1        0.0730
     15 C         -25.6420    4.0930   27.1230 C.2     1  UNL1        0.2661
     16 N         -25.6140    5.2520   26.4490 N.am    1  UNL1       -0.1997
     17 C         -25.0260    6.4790   26.9630 C.3     1  UNL1        0.1388
     18 O         -25.1430    3.9660   28.2430 O.2     1  UNL1       -0.2683
     19 C         -27.4380    3.0910   25.6450 C.2     1  UNL1        0.1064
     20 N         -28.0750    2.0890   25.0030 N.2     1  UNL1       -0.2081
     21 C         -27.5430    0.8490   25.0790 C.2     1  UNL1        0.2530
     22 O         -28.1930   -0.2080   24.4770 O.2     1  UNL1       -0.4558
     23 C         -29.4600    0.0050   23.8660 C.3     1  UNL1        0.2426
     24 C         -30.0650   -1.3770   23.5730 C.3     1  UNL1        0.2292
     25 O         -30.7290   -1.8780   24.7210 O.3     1  UNL1       -0.2162
     26 C         -26.3540    0.5760   25.7770 C.2     1  UNL1        0.1895
     27 F         -25.8600   -0.6810   25.7950 F       1  UNL1       -0.1996
     28 O         -22.5163   -0.9799   29.2578 O.3     1  UNL1       -0.1853
     29 F         -23.0103    0.9349   30.5595 F       1  UNL1       -0.2021
     30 C         -22.1904    1.6429   26.9762 C.2     1  UNL1        0.1405
     31 C         -23.3186    2.0914   25.1621 C.2     1  UNL1        0.0395
     32 C         -24.5025    0.5279   28.4258 C.3     1  UNL1        0.1842
     33 C         -21.9234    1.0824   28.3971 C.3     1  UNL1        0.1933
     34 N         -20.7579    0.4267   28.7462 N.3     1  UNL1       -0.1718
     35 C         -22.9090    0.3629   29.2703 C.3     1  UNL1        0.3029
     36 C         -19.9808    0.5319   28.2581 C.3     1  UNL1        0.2851
     37 C         -23.3767    1.5836   26.4555 C.2     1  UNL1        0.0192
     38 F         -19.5589    1.8063   27.7572 F       1  UNL1       -0.2130
     39 C         -21.9803    2.4754   24.9428 C.2     1  UNL1        0.1789
     40 O         -25.3199   -0.1867   29.0651 O.3     1  UNL1       -0.3468
     41 O         -21.2488    2.2320   26.0839 O.2     1  UNL1       -0.4534
     42 C         -24.5899    1.3174   27.1129 C.3     1  UNL1        0.0824
@<TRIPOS>BOND
     1     1    40    1
     2     2     7    1
     3     2     1    1
     4     3     2    2
     5     4     3    1
     6     4     5    2
     7     5     6    1
     8     6     7    2
     9     8     1    1
    10     8     9    1
    11     8    12    1
    12     9    10    1
    13    10    11    1
    14    12    11    1
    15    14    13    1
    16    14    15    1
    17    15    18    2
    18    16    17    1
    19    16    15    1
    20    19    14    2
    21    20    21    2
    22    20    19    1
    23    21    26    1
    24    22    21    1
    25    23    22    1
    26    24    23    1
    27    24    25    1
    28    26    27    1
    29    26    13    2
    30    30    33    1
    31    31    37    1
    32    32    40    1
    33    32    35    1
    34    33    34    1
    35    33    35    1
    36    35    28    1
    37    35    29    1
    38    36    34    1
    39    37    30    2
    40    37    42    1
    41    38    36    1
    42    39    31    2
    43    39    41    1
    44    41    30    1
    45    42    13    1
    46    42    32    1
