@<TRIPOS>MOLECULE
outputs/IAG933/test6/raw/output_1304_IAG933_linker_design_.xyz
 43 46 0 0 0
SMALL
GASTEIGER

@<TRIPOS>ATOM
      1 C         -24.8550   -1.0120   30.1430 C.3     1  UNL1        0.1123
      2 C         -24.9730   -2.5050   29.7880 C.2     1  UNL1       -0.0030
      3 C         -23.9060   -3.1730   29.1460 C.2     1  UNL1       -0.0026
      4 C         -23.9890   -4.5490   28.8530 C.2     1  UNL1       -0.0003
      5 C         -25.1370   -5.2800   29.2050 C.2     1  UNL1       -0.0000
      6 C         -26.2320   -4.6110   29.7840 C.2     1  UNL1       -0.0003
      7 C         -26.1550   -3.2320   30.0650 C.2     1  UNL1       -0.0026
      8 C         -25.3870   -0.6790   31.5710 C.3     1  UNL1        0.0951
      9 C         -25.1890    0.7730   32.0280 C.3     1  UNL1        0.0209
     10 C         -25.3360    0.6840   33.5440 C.3     1  UNL1        0.0203
     11 C         -24.8290   -0.7150   33.9050 C.3     1  UNL1        0.0888
     12 N         -24.7580   -1.4810   32.6460 N.3     1  UNL1       -0.2174
     13 C         -25.6880    1.6140   26.4610 C.3     1  UNL1        0.0916
     14 C         -26.2500    2.9200   26.3950 C.2     1  UNL1        0.0587
     15 C         -25.6420    4.0930   27.1230 C.2     1  UNL1        0.2627
     16 N         -25.6140    5.2520   26.4490 N.am    1  UNL1       -0.2000
     17 C         -25.0260    6.4790   26.9630 C.3     1  UNL1        0.1388
     18 O         -25.1430    3.9660   28.2430 O.2     1  UNL1       -0.2686
     19 C         -27.4380    3.0910   25.6450 C.2     1  UNL1        0.1025
     20 N         -28.0750    2.0890   25.0030 N.2     1  UNL1       -0.2118
     21 C         -27.5430    0.8490   25.0790 C.2     1  UNL1        0.2344
     22 O         -28.1930   -0.2080   24.4770 O.2     1  UNL1       -0.4585
     23 C         -29.4600    0.0050   23.8660 C.3     1  UNL1        0.2423
     24 C         -30.0650   -1.3770   23.5730 C.3     1  UNL1        0.2292
     25 O         -30.7290   -1.8780   24.7210 O.3     1  UNL1       -0.2162
     26 C         -26.3540    0.5760   25.7770 C.3     1  UNL1        0.2438
     27 F         -25.8600   -0.6810   25.7950 F       1  UNL1       -0.2265
     28 C         -30.1075    0.8218   27.9496 C.2     1  UNL1        0.2816
     29 O         -29.7143    1.3813   31.0091 O.co2   1  UNL1       -0.2442
     30 C         -23.4463    1.3535   27.3099 C.2     1  UNL1        0.0705
     31 C         -28.8816    1.0317   28.8213 C.3     1  UNL1        0.2316
     32 C         -22.4340    1.0217   28.2131 C.2     1  UNL1        0.1136
     33 C         -25.3754    0.4852   28.5776 C.3     1  UNL1        0.1429
     34 CL        -22.7274    2.0818   25.8594 Cl      1  UNL1       -0.0814
     35 C         -28.7932    1.6768   30.2489 C.2     1  UNL1        0.3832
     36 O         -27.7942    2.3659   30.5064 O.co2   1  UNL1       -0.2442
     37 N         -24.6305    0.0237   29.3520 N.pl3   1  UNL1       -0.2915
     38 N         -21.0342    1.2621   28.0502 N.pl3   1  UNL1       -0.1259
     39 C         -24.8072    1.2585   27.4638 C.2     1  UNL1        0.0029
     40 C         -23.0410    0.2381   29.3612 C.2     1  UNL1        0.0815
     41 N         -31.0125    1.7267   28.1014 N.am    1  UNL1       -0.0866
     42 S         -27.2161    0.2131   28.5733 S.3     1  UNL1       -0.0974
     43 O         -30.1531   -0.1629   27.1672 O.2     1  UNL1       -0.2701
@<TRIPOS>BOND
     1     1     2    1
     2     2     7    1
     3     3     2    2
     4     4     3    1
     5     4     5    2
     6     5     6    1
     7     6     7    2
     8     8     1    1
     9     8     9    1
    10     8    12    1
    11     9    10    1
    12    10    11    1
    13    12    11    1
    14    13    39    1
    15    14    13    1
    16    14    15    1
    17    15    18    2
    18    16    17    1
    19    16    15    1
    20    19    14    2
    21    20    21    2
    22    20    19    1
    23    21    26    1
    24    22    21    1
    25    23    22    1
    26    24    23    1
    27    24    25    1
    28    26    27    1
    29    26    13    1
    30    28    41    1
    31    30    39    2
    32    30    32    1
    33    31    28    1
    34    31    35    1
    35    32    40    2
    36    33    42    1
    37    33    37    1
    38    34    30    1
    39    35    36   ar
    40    35    29   ar
    41    37    40    1
    42    37     1    1
    43    38    32    1
    44    39    33    1
    45    42    31    1
    46    43    28    2
