@<TRIPOS>MOLECULE
No_1305-gen_results/8p0m/2024-11-27-11-27-31/
 14 14 0 0 0
SMALL
GASTEIGER

@<TRIPOS>ATOM
      1 C         -28.0162   -0.8135   28.8779 C.3     1  UNL1        0.4186
      2 C         -27.0636   -0.1189   28.6079 C.ar    1  UNL1        0.0714
      3 C         -27.0010    0.6913   27.4910 C.ar    1  UNL1        0.0038
      4 C         -25.8548    1.4825   27.0830 C.ar    1  UNL1        0.0038
      5 C         -24.6901    1.4526   27.8807 C.ar    1  UNL1        0.0714
      6 C         -24.7379    0.6010   29.0416 C.ar    1  UNL1        0.0038
      7 C         -25.8234   -0.1688   29.3887 C.ar    1  UNL1        0.0038
      8 F         -28.9516   -0.6391   28.1654 F       1  UNL1       -0.1659
      9 F         -27.7450   -2.1685   29.0408 F       1  UNL1       -0.1659
     10 C         -23.5190    2.2147   27.5982 C.3     1  UNL1        0.4186
     11 F         -23.7160    3.3414   27.1459 F       1  UNL1       -0.1659
     12 F         -22.7228    2.4177   28.7097 F       1  UNL1       -0.1659
     13 F         -22.6644    1.4975   26.7427 F       1  UNL1       -0.1659
     14 F         -28.4211   -0.4644   30.1801 F       1  UNL1       -0.1659
@<TRIPOS>BOND
     1     1     2    1
     2     1     8    1
     3     1     9    1
     4     5    10    1
     5    10    11    1
     6    10    12    1
     7    10    13    1
     8     1    14    1
     9     2     3   ar
    10     3     4   ar
    11     4     5   ar
    12     5     6   ar
    13     6     7   ar
    14     7     2   ar
