@<TRIPOS>MOLECULE
outputs/IAG933/test6/raw/output_1307_IAG933_linker_design_.xyz
 43 46 0 0 0
SMALL
GASTEIGER

@<TRIPOS>ATOM
      1 C         -24.8550   -1.0120   30.1430 C.3     1  UNL1        0.0649
      2 C         -24.9730   -2.5050   29.7880 C.2     1  UNL1       -0.0191
      3 C         -23.9060   -3.1730   29.1460 C.2     1  UNL1       -0.0042
      4 C         -23.9890   -4.5490   28.8530 C.2     1  UNL1       -0.0003
      5 C         -25.1370   -5.2800   29.2050 C.2     1  UNL1       -0.0000
      6 C         -26.2320   -4.6110   29.7840 C.2     1  UNL1       -0.0003
      7 C         -26.1550   -3.2320   30.0650 C.2     1  UNL1       -0.0042
      8 C         -25.3870   -0.6790   31.5710 C.3     1  UNL1        0.0789
      9 C         -25.1890    0.7730   32.0280 C.3     1  UNL1        0.0193
     10 C         -25.3360    0.6840   33.5440 C.3     1  UNL1        0.0202
     11 C         -24.8290   -0.7150   33.9050 C.3     1  UNL1        0.0887
     12 N         -24.7580   -1.4810   32.6460 N.3     1  UNL1       -0.2191
     13 C         -25.6880    1.6140   26.4610 C.2     1  UNL1        0.0595
     14 C         -26.2500    2.9200   26.3950 C.2     1  UNL1        0.0803
     15 C         -25.6420    4.0930   27.1230 C.2     1  UNL1        0.2667
     16 N         -25.6140    5.2520   26.4490 N.am    1  UNL1       -0.1997
     17 C         -25.0260    6.4790   26.9630 C.3     1  UNL1        0.1388
     18 O         -25.1430    3.9660   28.2430 O.2     1  UNL1       -0.2683
     19 C         -27.4380    3.0910   25.6450 C.2     1  UNL1        0.1067
     20 N         -28.0750    2.0890   25.0030 N.2     1  UNL1       -0.2112
     21 C         -27.5430    0.8490   25.0790 C.2     1  UNL1        0.2389
     22 O         -28.1930   -0.2080   24.4770 O.2     1  UNL1       -0.4583
     23 C         -29.4600    0.0050   23.8660 C.3     1  UNL1        0.2423
     24 C         -30.0650   -1.3770   23.5730 C.3     1  UNL1        0.2292
     25 O         -30.7290   -1.8780   24.7210 O.3     1  UNL1       -0.2162
     26 C         -26.3540    0.5760   25.7770 C.3     1  UNL1        0.2653
     27 F         -25.8600   -0.6810   25.7950 F       1  UNL1       -0.2217
     28 C         -23.1401    0.1682   28.8027 C.2     1  UNL1        0.1752
     29 O         -21.1271    1.1126   27.2429 O.2     1  UNL1       -0.3485
     30 C         -29.7631    0.3579   28.7878 C.3     1  UNL1        0.0590
     31 C         -27.2389   -0.0189   28.5497 C.2     1  UNL1        0.2805
     32 C         -22.6173    2.1578   26.1264 C.ar    1  UNL1        0.2686
     33 N         -28.1325    1.8424   29.7679 N.2     1  UNL1       -0.1479
     34 N         -25.8801    0.3247   28.6552 N.am    1  UNL1       -0.1950
     35 C         -24.3793    1.4540   26.9319 C.1     1  UNL1       -0.0956
     36 C         -24.6287   -0.1103   28.9735 C.3     1  UNL1        0.1538
     37 N         -21.2957    1.9819   26.1453 N.ar    1  UNL1       -0.0460
     38 O         -27.5702   -1.0000   27.9487 O.2     1  UNL1       -0.2670
     39 C         -22.4576    0.8742   27.7206 C.ar    1  UNL1        0.2109
     40 C         -28.3498    0.7607   29.0454 C.2     1  UNL1        0.1356
     41 F         -23.2251    2.8823   25.1627 F       1  UNL1       -0.1792
     42 F         -22.3206   -0.1744   29.7289 F       1  UNL1       -0.2037
     43 C         -23.2764    1.4946   26.9247 C.ar    1  UNL1        0.1222
@<TRIPOS>BOND
     1     1    36    1
     2     2     7    1
     3     2     1    1
     4     3     2    2
     5     4     3    1
     6     4     5    2
     7     5     6    1
     8     6     7    2
     9     8     1    1
    10     8     9    1
    11     8    12    1
    12     9    10    1
    13    10    11    1
    14    12    11    1
    15    13    35    2
    16    14    13    1
    17    14    15    1
    18    15    18    2
    19    16    17    1
    20    16    15    1
    21    19    14    2
    22    20    21    2
    23    20    19    1
    24    21    26    1
    25    22    21    1
    26    23    22    1
    27    24    23    1
    28    24    25    1
    29    26    27    1
    30    26    13    1
    31    28    36    1
    32    28    42    1
    33    29    39   ar
    34    30    40    1
    35    31    34    1
    36    31    40    1
    37    32    37   ar
    38    32    43   ar
    39    36    34    1
    40    37    29   ar
    41    38    31    2
    42    39    28    2
    43    40    33    2
    44    41    32    1
    45    43    35    2
    46    43    39   ar
