@<TRIPOS>MOLECULE
No_1311-gen_results/8p0m/2024-11-27-11-27-31/
 27 28 0 0 0
SMALL
GASTEIGER

@<TRIPOS>ATOM
      1 C         -28.0162   -0.8135   28.8779 C.ar    1  UNL1        0.0739
      2 C         -27.0636   -0.1189   28.6079 C.ar    1  UNL1        0.1420
      3 C         -25.7647   -0.3897   29.0360 C.ar    1  UNL1        0.0343
      4 C         -25.5296   -1.5302   29.9014 C.ar    1  UNL1        0.0061
      5 C         -26.6577   -2.2915   30.2035 C.ar    1  UNL1        0.0372
      6 C         -27.8548   -1.9555   29.7630 C.ar    1  UNL1        0.1446
      7 C         -24.5441    0.4126   28.7379 C.ar    1  UNL1        0.0059
      8 C         -24.4731    1.2065   27.7114 C.ar    1  UNL1        0.0370
      9 C         -23.3993    1.8796   27.3686 C.ar    1  UNL1        0.1387
     10 C         -22.1779    1.7361   27.9909 C.ar    1  UNL1        0.0369
     11 C         -23.3187    0.1922   29.4758 C.ar    1  UNL1        0.0003
     12 C         -22.1358    0.8784   29.0848 C.ar    1  UNL1        0.0031
     13 O         -28.9322   -2.7226   30.1232 O.3     1  UNL1       -0.4459
     14 C         -29.2757   -2.8244   31.4641 C.3     1  UNL1        0.3950
     15 C         -30.6567   -2.6971   31.6988 C.3     1  UNL1        0.3957
     16 CL        -31.5566   -2.3737   30.5183 Cl      1  UNL1       -0.0407
     17 F         -30.8028   -1.7095   32.6713 F       1  UNL1       -0.1797
     18 F         -31.1236   -3.8224   32.3154 F       1  UNL1       -0.1797
     19 O         -23.4151    2.7793   26.3104 O.3     1  UNL1       -0.4714
     20 O         -28.6864   -3.9942   32.0515 O.3     1  UNL1       -0.1666
     21 C         -24.5890    3.5463   26.1750 C.3     1  UNL1        0.2525
     22 O         -27.1754    0.9378   27.7571 O.3     1  UNL1       -0.4705
     23 C         -27.9362    1.9924   28.1713 C.3     1  UNL1        0.2318
     24 C         -29.2391    2.0137   27.6933 C.2     1  UNL1        0.0207
     25 C         -29.4961    1.7111   26.4539 C.2     1  UNL1       -0.0009
     26 C         -28.5834    1.6633   25.5936 C.2     1  UNL1       -0.0002
     27 C         -28.7689    1.2227   24.1580 C.2     1  UNL1       -0.0000
@<TRIPOS>BOND
     1     3     7    1
     2     6    13    1
     3    13    14    1
     4    14    15    1
     5    15    16    1
     6    15    17    1
     7    15    18    1
     8     9    19    1
     9    14    20    1
    10    19    21    1
    11     2    22    1
    12    22    23    1
    13    23    24    1
    14    24    25    2
    15    25    26    1
    16    26    27    2
    17     7     8   ar
    18     8     9   ar
    19     9    10   ar
    20    10    12   ar
    21    12    11   ar
    22    11     7   ar
    23     1     2   ar
    24     2     3   ar
    25     3     4   ar
    26     4     5   ar
    27     5     6   ar
    28     6     1   ar
