@<TRIPOS>MOLECULE
outputs/IAG933/test6/raw/output_1312_IAG933_linker_design_.xyz
 44 48 0 0 0
SMALL
GASTEIGER

@<TRIPOS>ATOM
      1 C         -24.8550   -1.0120   30.1430 C.3     1  UNL1        0.0621
      2 C         -24.9730   -2.5050   29.7880 C.2     1  UNL1       -0.0192
      3 C         -23.9060   -3.1730   29.1460 C.2     1  UNL1       -0.0042
      4 C         -23.9890   -4.5490   28.8530 C.2     1  UNL1       -0.0003
      5 C         -25.1370   -5.2800   29.2050 C.2     1  UNL1       -0.0000
      6 C         -26.2320   -4.6110   29.7840 C.2     1  UNL1       -0.0003
      7 C         -26.1550   -3.2320   30.0650 C.2     1  UNL1       -0.0042
      8 C         -25.3870   -0.6790   31.5710 C.3     1  UNL1        0.0788
      9 C         -25.1890    0.7730   32.0280 C.3     1  UNL1        0.0193
     10 C         -25.3360    0.6840   33.5440 C.3     1  UNL1        0.0202
     11 C         -24.8290   -0.7150   33.9050 C.3     1  UNL1        0.0887
     12 N         -24.7580   -1.4810   32.6460 N.3     1  UNL1       -0.2191
     13 C         -25.6880    1.6140   26.4610 C.3     1  UNL1        0.0918
     14 C         -26.2500    2.9200   26.3950 C.2     1  UNL1        0.0589
     15 C         -25.6420    4.0930   27.1230 C.2     1  UNL1        0.2628
     16 N         -25.6140    5.2520   26.4490 N.am    1  UNL1       -0.2000
     17 C         -25.0260    6.4790   26.9630 C.3     1  UNL1        0.1388
     18 O         -25.1430    3.9660   28.2430 O.2     1  UNL1       -0.2686
     19 C         -27.4380    3.0910   25.6450 C.2     1  UNL1        0.1025
     20 N         -28.0750    2.0890   25.0030 N.2     1  UNL1       -0.2118
     21 C         -27.5430    0.8490   25.0790 C.2     1  UNL1        0.2344
     22 O         -28.1930   -0.2080   24.4770 O.2     1  UNL1       -0.4585
     23 C         -29.4600    0.0050   23.8660 C.3     1  UNL1        0.2423
     24 C         -30.0650   -1.3770   23.5730 C.3     1  UNL1        0.2292
     25 O         -30.7290   -1.8780   24.7210 O.3     1  UNL1       -0.2162
     26 C         -26.3540    0.5760   25.7770 C.3     1  UNL1        0.2440
     27 F         -25.8600   -0.6810   25.7950 F       1  UNL1       -0.2265
     28 C         -27.5040   -0.5902   28.9176 C.2     1  UNL1        0.2411
     29 C         -29.9097   -0.6470   28.0222 C.3     1  UNL1        0.0091
     30 C         -24.0348    0.6701   28.0613 C.2     1  UNL1       -0.0235
     31 C         -24.9731    0.0217   29.0128 C.3     1  UNL1        0.1189
     32 N         -26.3992    0.2126   28.7516 N.am    1  UNL1       -0.2026
     33 C         -21.9495    2.1668   26.0900 C.2     1  UNL1       -0.0007
     34 C         -23.3062    1.9552   25.8974 C.2     1  UNL1       -0.0044
     35 C         -29.9240    2.1675   28.9597 C.3     1  UNL1        0.0005
     36 C         -21.5581    1.0816   28.2778 C.2     1  UNL1       -0.0217
     37 C         -28.7975    0.0780   28.5332 C.3     1  UNL1        0.0782
     38 C         -29.3260    0.9544   29.6890 C.3     1  UNL1        0.0091
     39 C         -21.1563    1.8032   27.1686 C.2     1  UNL1       -0.0043
     40 C         -22.7644    0.5143   28.5785 C.3     1  UNL1        0.0493
     41 O         -27.6419   -1.7083   29.3162 O.2     1  UNL1       -0.2733
     42 C         -24.2449    1.4006   26.8145 C.2     1  UNL1       -0.0210
     43 C         -31.1294    1.7629   28.0606 C.3     1  UNL1        0.0000
     44 C         -30.8160    0.4055   27.3776 C.3     1  UNL1        0.0005
@<TRIPOS>BOND
     1     1    31    1
     2     2     7    1
     3     2     1    1
     4     3     2    2
     5     4     3    1
     6     4     5    2
     7     5     6    1
     8     6     7    2
     9     8     1    1
    10     8     9    1
    11     8    12    1
    12     9    10    1
    13    10    11    1
    14    12    11    1
    15    13    42    1
    16    14    13    1
    17    14    15    1
    18    15    18    2
    19    16    17    1
    20    16    15    1
    21    19    14    2
    22    20    21    2
    23    20    19    1
    24    21    26    1
    25    22    21    1
    26    23    22    1
    27    24    23    1
    28    24    25    1
    29    26    27    1
    30    26    13    1
    31    28    41    2
    32    29    37    1
    33    30    40    1
    34    30    31    1
    35    31    32    1
    36    32    28    1
    37    33    39    1
    38    34    33    2
    39    34    42    1
    40    35    38    1
    41    36    40    1
    42    37    28    1
    43    37    38    1
    44    39    36    2
    45    42    30    2
    46    43    35    1
    47    44    29    1
    48    44    43    1
