@<TRIPOS>MOLECULE
outputs/IAG933/test6/raw/output_1314_IAG933_linker_design_.xyz
 42 45 0 0 0
SMALL
GASTEIGER

@<TRIPOS>ATOM
      1 C         -24.8550   -1.0120   30.1430 C.3     1  UNL1        0.1119
      2 C         -24.9730   -2.5050   29.7880 C.2     1  UNL1       -0.0030
      3 C         -23.9060   -3.1730   29.1460 C.2     1  UNL1       -0.0026
      4 C         -23.9890   -4.5490   28.8530 C.2     1  UNL1       -0.0003
      5 C         -25.1370   -5.2800   29.2050 C.2     1  UNL1       -0.0000
      6 C         -26.2320   -4.6110   29.7840 C.2     1  UNL1       -0.0003
      7 C         -26.1550   -3.2320   30.0650 C.2     1  UNL1       -0.0026
      8 C         -25.3870   -0.6790   31.5710 C.3     1  UNL1        0.0951
      9 C         -25.1890    0.7730   32.0280 C.3     1  UNL1        0.0209
     10 C         -25.3360    0.6840   33.5440 C.3     1  UNL1        0.0203
     11 C         -24.8290   -0.7150   33.9050 C.3     1  UNL1        0.0888
     12 N         -24.7580   -1.4810   32.6460 N.3     1  UNL1       -0.2174
     13 C         -25.6880    1.6140   26.4610 C.2     1  UNL1        0.0368
     14 C         -26.2500    2.9200   26.3950 C.2     1  UNL1        0.0763
     15 C         -25.6420    4.0930   27.1230 C.2     1  UNL1        0.2664
     16 N         -25.6140    5.2520   26.4490 N.am    1  UNL1       -0.1997
     17 C         -25.0260    6.4790   26.9630 C.3     1  UNL1        0.1388
     18 O         -25.1430    3.9660   28.2430 O.2     1  UNL1       -0.2683
     19 C         -27.4380    3.0910   25.6450 C.2     1  UNL1        0.1067
     20 N         -28.0750    2.0890   25.0030 N.2     1  UNL1       -0.2081
     21 C         -27.5430    0.8490   25.0790 C.2     1  UNL1        0.2533
     22 O         -28.1930   -0.2080   24.4770 O.2     1  UNL1       -0.4558
     23 C         -29.4600    0.0050   23.8660 C.3     1  UNL1        0.2426
     24 C         -30.0650   -1.3770   23.5730 C.3     1  UNL1        0.2292
     25 O         -30.7290   -1.8780   24.7210 O.3     1  UNL1       -0.2162
     26 C         -26.3540    0.5760   25.7770 C.2     1  UNL1        0.1928
     27 F         -25.8600   -0.6810   25.7950 F       1  UNL1       -0.1992
     28 C         -24.6037    1.3229   27.1800 C.2     1  UNL1        0.0166
     29 C         -23.3431    1.6520   26.7024 C.2     1  UNL1        0.0958
     30 F         -21.1795    1.4230   27.6204 F       1  UNL1       -0.2014
     31 C         -22.4795    1.1266   27.5368 C.2     1  UNL1        0.1745
     32 C         -26.5771    1.2311   29.2303 C.2     1  UNL1        0.0689
     33 C         -28.0415    1.2240   29.2655 C.2     1  UNL1        0.1019
     34 C         -28.9104   -0.0660   29.2087 C.2     1  UNL1        0.3892
     35 O         -29.6447   -0.2629   28.2636 O.co2   1  UNL1       -0.2405
     36 C         -24.4644    0.4744   28.3113 C.3     1  UNL1        0.1495
     37 O         -28.6994   -0.9270   30.1262 O.co2   1  UNL1       -0.2405
     38 N         -22.5595    2.8127   24.6935 N.1     1  UNL1       -0.1908
     39 F         -22.5504   -0.4514   29.2412 F       1  UNL1       -0.2044
     40 N         -25.5267   -0.0047   29.1965 N.pl3   1  UNL1       -0.2952
     41 C         -22.9370    2.3149   25.5812 C.1     1  UNL1        0.1025
     42 C         -23.1576    0.3280   28.4608 C.2     1  UNL1        0.1677
@<TRIPOS>BOND
     1     1    40    1
     2     2     7    1
     3     2     1    1
     4     3     2    2
     5     4     3    1
     6     4     5    2
     7     5     6    1
     8     6     7    2
     9     8     1    1
    10     8     9    1
    11     8    12    1
    12     9    10    1
    13    10    11    1
    14    12    11    1
    15    13    28    1
    16    14    13    1
    17    14    15    1
    18    15    18    2
    19    16    17    1
    20    16    15    1
    21    19    14    2
    22    20    21    2
    23    20    19    1
    24    21    26    1
    25    22    21    1
    26    23    22    1
    27    24    23    1
    28    24    25    1
    29    26    27    1
    30    26    13    2
    31    28    36    1
    32    29    28    2
    33    29    31    1
    34    31    30    1
    35    31    42    2
    36    32    33    2
    37    34    33    1
    38    34    37   ar
    39    35    34   ar
    40    36    42    1
    41    36    40    1
    42    38    41    3
    43    40    32    1
    44    41    29    1
    45    42    39    1
