@<TRIPOS>MOLECULE
outputs/IAG933/test6/raw/output_1315_IAG933_linker_design_.xyz
 53 57 0 0 0
SMALL
GASTEIGER

@<TRIPOS>ATOM
      1 C         -24.8550   -1.0120   30.1430 C.3     1  UNL1        0.0438
      2 C         -24.9730   -2.5050   29.7880 C.2     1  UNL1       -0.0208
      3 C         -23.9060   -3.1730   29.1460 C.2     1  UNL1       -0.0042
      4 C         -23.9890   -4.5490   28.8530 C.2     1  UNL1       -0.0003
      5 C         -25.1370   -5.2800   29.2050 C.2     1  UNL1       -0.0000
      6 C         -26.2320   -4.6110   29.7840 C.2     1  UNL1       -0.0003
      7 C         -26.1550   -3.2320   30.0650 C.2     1  UNL1       -0.0042
      8 C         -25.3870   -0.6790   31.5710 C.3     1  UNL1        0.0795
      9 C         -25.1890    0.7730   32.0280 C.3     1  UNL1        0.0451
     10 C         -25.3360    0.6840   33.5440 C.3     1  UNL1        0.0226
     11 C         -24.8290   -0.7150   33.9050 C.3     1  UNL1        0.0888
     12 N         -24.7580   -1.4810   32.6460 N.3     1  UNL1       -0.2190
     13 C         -25.6880    1.6140   26.4610 C.2     1  UNL1        0.0407
     14 C         -26.2500    2.9200   26.3950 C.2     1  UNL1        0.0745
     15 C         -25.6420    4.0930   27.1230 C.2     1  UNL1        0.2240
     16 N         -25.6140    5.2520   26.4490 N.2     1  UNL1       -0.2356
     17 C         -25.0260    6.4790   26.9630 C.3     1  UNL1        0.1550
     18 O         -25.1430    3.9660   28.2430 O.2     1  UNL1       -0.4364
     19 C         -27.4380    3.0910   25.6450 C.2     1  UNL1        0.1068
     20 N         -28.0750    2.0890   25.0030 N.2     1  UNL1       -0.2081
     21 C         -27.5430    0.8490   25.0790 C.2     1  UNL1        0.2533
     22 O         -28.1930   -0.2080   24.4770 O.2     1  UNL1       -0.4558
     23 C         -29.4600    0.0050   23.8660 C.3     1  UNL1        0.2426
     24 C         -30.0650   -1.3770   23.5730 C.3     1  UNL1        0.2292
     25 O         -30.7290   -1.8780   24.7210 O.3     1  UNL1       -0.2162
     26 C         -26.3540    0.5760   25.7770 C.2     1  UNL1        0.1931
     27 F         -25.8600   -0.6810   25.7950 F       1  UNL1       -0.1992
     28 C         -26.2971    4.4122   30.6386 C.3     1  UNL1        0.1174
     29 C         -25.4904    1.9539   31.1327 C.3     1  UNL1        0.1208
     30 C         -27.9232    3.8552   30.1275 C.3     1  UNL1        0.0158
     31 C         -24.6507    2.6777   28.8018 C.3     1  UNL1        0.2889
     32 C         -28.8772    4.9971   29.8932 C.3     1  UNL1        0.0462
     33 N         -31.7354    7.3017   31.1975 N.3     1  UNL1       -0.0957
     34 C         -23.5434    2.1246   27.8804 C.3     1  UNL1        0.0753
     35 O         -31.1646    5.4292   29.8029 O.3     1  UNL1       -0.3233
     36 C         -23.6604    1.8208   26.6975 C.3     1  UNL1        0.0384
     37 C         -31.8162    5.8340   31.0069 C.3     1  UNL1        0.2535
     38 C         -30.1484    3.1568   30.7449 C.3     1  UNL1        0.0457
     39 N         -26.9654    5.5611   32.6085 N.am    1  UNL1        0.0748
     40 N         -26.7460    6.9077   30.6543 N.2     1  UNL1        0.1924
     41 C         -21.1813    1.9027   27.5551 C.3     1  UNL1        0.1424
     42 O         -26.8262    6.9806   34.2196 O.co2   1  UNL1       -0.1952
     43 O         -24.9568    6.3746   33.3576 O.co2   1  UNL1       -0.1952
     44 O         -21.3635    2.1107   26.2409 O.3     1  UNL1       -0.3538
     45 N         -30.2448    3.6889   28.5271 N.3     1  UNL1       -0.1042
     46 C         -30.2867    4.2901   29.7438 C.3     1  UNL1        0.1702
     47 C         -26.6919    5.6199   31.2411 C.2     1  UNL1        0.3999
     48 C         -25.8006    3.3640   31.7913 C.3     1  UNL1        0.0421
     49 C         -22.2381    1.7863   28.4484 C.3     1  UNL1        0.0384
     50 C         -28.6052    3.0178   31.0772 C.3     1  UNL1        0.0047
     51 O         -25.5037    1.7835   29.8055 O.3     1  UNL1       -0.3230
     52 C         -26.1908    6.3237   33.4071 C.2     1  UNL1        0.5825
     53 C         -22.5627    2.0861   25.7163 C.3     1  UNL1        0.1424
@<TRIPOS>BOND
     1     2     7    1
     2     2     1    1
     3     3     2    2
     4     4     3    1
     5     4     5    2
     6     5     6    1
     7     6     7    2
     8     8     1    1
     9     8     9    1
    10     8    12    1
    11     9    29    1
    12     9    10    1
    13    10    11    1
    14    12    11    1
    15    14    13    1
    16    14    15    1
    17    15    18    1
    18    16    17    1
    19    16    15    2
    20    19    14    2
    21    20    21    2
    22    20    19    1
    23    21    26    1
    24    22    21    1
    25    23    22    1
    26    24    23    1
    27    24    25    1
    28    26    27    1
    29    26    13    2
    30    28    47    1
    31    28    48    1
    32    29    48    1
    33    30    28    1
    34    30    50    1
    35    31    18    1
    36    31    51    1
    37    32    30    1
    38    34    49    1
    39    34    31    1
    40    35    37    1
    41    36    34    1
    42    37    33    1
    43    38    50    1
    44    39    52    1
    45    40    47    2
    46    41    49    1
    47    43    52   ar
    48    44    41    1
    49    46    45    1
    50    46    35    1
    51    46    32    1
    52    46    38    1
    53    47    39    1
    54    51    29    1
    55    52    42   ar
    56    53    44    1
    57    53    36    1
