@<TRIPOS>MOLECULE
No_1316-gen_results/8p0m/2024-11-27-11-27-31/
 30 32 0 0 0
SMALL
GASTEIGER

@<TRIPOS>ATOM
      1 C         -28.0162   -0.8135   28.8779 C.3     1  UNL1        0.1415
      2 C         -27.0636   -0.1189   28.6079 C.ar    1  UNL1       -0.0006
      3 C         -25.7923   -0.4302   29.0761 C.ar    1  UNL1       -0.0023
      4 C         -24.5456    0.3494   28.8225 C.ar    1  UNL1        0.0077
      5 C         -24.6586    1.4196   27.8878 C.ar    1  UNL1        0.0975
      6 C         -25.9471    1.6811   27.3792 C.ar    1  UNL1        0.0077
      7 C         -27.0439    0.9739   27.6871 C.ar    1  UNL1       -0.0023
      8 N         -29.1882   -0.1472   29.0918 N.am    1  UNL1       -0.2004
      9 C         -30.2017   -0.7833   29.7303 C.2     1  UNL1        0.2478
     10 C         -23.4507    2.1524   27.6005 C.2     1  UNL1        0.4766
     11 N         -22.5166    1.8358   27.2546 N.pl3   1  UNL1        0.2047
     12 N         -23.7355    3.5749   27.4557 N.pl3   1  UNL1        0.2047
     13 C         -31.5099   -0.4774   29.4468 C.3     1  UNL1        0.1625
     14 O         -29.9916   -1.6695   30.6282 O.2     1  UNL1       -0.2731
     15 C         -32.3768   -1.4375   29.3807 C.3     1  UNL1        0.3393
     16 F         -32.3788   -2.3801   30.1660 F       1  UNL1       -0.1940
     17 F         -33.7101   -0.9200   29.3681 F       1  UNL1       -0.1940
     18 C         -32.2857   -2.1281   27.9348 C.2     1  UNL1        0.2911
     19 O         -32.1511   -3.3322   27.8864 O.2     1  UNL1       -0.2686
     20 N         -32.6693   -1.4463   26.8557 N.am    1  UNL1       -0.2519
     21 C         -32.8475   -0.0295   26.7994 C.2     1  UNL1        0.0778
     22 C         -32.6386   -2.1086   25.5476 C.3     1  UNL1        0.1045
     23 C         -32.9643    0.4542   25.5282 C.2     1  UNL1        0.0417
     24 C         -32.9194   -0.7430   24.6918 C.3     1  UNL1        0.0643
     25 N         -31.9954    1.4136   25.0874 N.pl3   1  UNL1       -0.3097
     26 C         -30.8163    1.3628   25.4163 C.3     1  UNL1        0.0905
     27 C         -29.8720    2.4386   25.0125 C.3     1  UNL1        0.0215
     28 C         -32.1594    2.0326   23.7702 C.3     1  UNL1        0.0905
     29 C         -31.4040    3.1976   23.3775 C.3     1  UNL1        0.0215
     30 C         -30.0272    3.0728   23.7600 C.3     1  UNL1        0.0035
@<TRIPOS>BOND
     1     1     2    1
     2     1     8    1
     3     8     9   am
     4     5    10    1
     5    10    11    2
     6    10    12    1
     7     9    13    1
     8     9    14    2
     9    13    15    1
    10    15    16    1
    11    15    17    1
    12    15    18    1
    13    18    19    2
    14    18    20   am
    15    20    21    1
    16    20    22    1
    17    21    23    2
    18    22    24    1
    19    23    24    1
    20    23    25    1
    21    25    26    1
    22    25    28    1
    23    27    30    1
    24    29    30    1
    25    26    27    1
    26    29    28    1
    27     2     3   ar
    28     3     4   ar
    29     4     5   ar
    30     5     6   ar
    31     6     7   ar
    32     7     2   ar
