@<TRIPOS>MOLECULE
No_1317-gen_results/8p0m/2024-11-27-11-27-31/
 22 23 0 0 0
SMALL
GASTEIGER

@<TRIPOS>ATOM
      1 C         -28.0162   -0.8135   28.8779 C.ar    1  UNL1        0.0297
      2 C         -28.4690   -0.7850   29.8287 C.ar    1  UNL1        0.1401
      3 C         -28.1816    0.4277   28.1134 C.ar    1  UNL1        0.0059
      4 C         -27.4498    0.6435   26.8500 C.ar    1  UNL1        0.0452
      5 C         -27.8596    1.4573   25.9076 C.ar    1  UNL1        0.0606
      6 C         -29.4263    0.1097   30.4178 C.ar    1  UNL1        0.0335
      7 C         -29.6233    1.2198   29.7351 C.ar    1  UNL1        0.0737
      8 C         -28.9609    1.4529   28.5513 C.ar    1  UNL1        0.0041
      9 C         -27.1733    1.5743   24.7028 C.ar    1  UNL1        0.0116
     10 C         -26.0892    0.7468   24.4126 C.ar    1  UNL1        0.0040
     11 C         -25.6364   -0.1191   25.3972 C.ar    1  UNL1        0.0375
     12 C         -26.2807   -0.2063   26.5817 C.ar    1  UNL1        0.1461
     13 C         -30.5459    2.3201   30.2418 C.3     1  UNL1        0.4186
     14 F         -31.0814    2.8891   29.4515 F       1  UNL1       -0.1659
     15 F         -29.7311    3.1463   31.0163 F       1  UNL1       -0.1659
     16 F         -31.3727    1.7091   31.1784 F       1  UNL1       -0.1659
     17 F         -28.3707   -2.0063   30.6507 F       1  UNL1       -0.2042
     18 CL        -29.2420    2.5174   26.0433 Cl      1  UNL1       -0.0821
     19 O         -25.7517   -1.0595   27.4866 O.3     1  UNL1       -0.4507
     20 C         -24.6938   -0.6419   28.2494 C.2     1  UNL1        0.1750
     21 C         -24.1384   -1.6313   29.1118 C.2     1  UNL1        0.0148
     22 C         -24.8033   -2.7412   29.5269 C.3     1  UNL1        0.0341
@<TRIPOS>BOND
     1     3     4    1
     2     7    13    1
     3    13    14    1
     4    13    15    1
     5    13    16    1
     6     2    17    1
     7     5    18    1
     8    12    19    1
     9    19    20    1
    10    20    21    2
    11    21    22    1
    12     4     5   ar
    13     5     9   ar
    14     9    10   ar
    15    10    11   ar
    16    11    12   ar
    17    12     4   ar
    18     1     2   ar
    19     2     6   ar
    20     6     7   ar
    21     7     8   ar
    22     8     3   ar
    23     3     1   ar
