@<TRIPOS>MOLECULE
outputs/IAG933/test6/raw/output_1318_IAG933_linker_design_.xyz
 50 55 0 0 0
SMALL
GASTEIGER

@<TRIPOS>ATOM
      1 C         -24.8550   -1.0120   30.1430 C.3     1  UNL1        0.0447
      2 C         -24.9730   -2.5050   29.7880 C.2     1  UNL1       -0.0208
      3 C         -23.9060   -3.1730   29.1460 C.2     1  UNL1       -0.0042
      4 C         -23.9890   -4.5490   28.8530 C.2     1  UNL1       -0.0003
      5 C         -25.1370   -5.2800   29.2050 C.2     1  UNL1       -0.0000
      6 C         -26.2320   -4.6110   29.7840 C.2     1  UNL1       -0.0003
      7 C         -26.1550   -3.2320   30.0650 C.2     1  UNL1       -0.0042
      8 C         -25.3870   -0.6790   31.5710 C.3     1  UNL1        0.0912
      9 C         -25.1890    0.7730   32.0280 C.3     1  UNL1        0.1141
     10 C         -25.3360    0.6840   33.5440 C.3     1  UNL1        0.0353
     11 C         -24.8290   -0.7150   33.9050 C.3     1  UNL1        0.0898
     12 N         -24.7580   -1.4810   32.6460 N.3     1  UNL1       -0.2181
     13 C         -25.6880    1.6140   26.4610 C.3     1  UNL1        0.1296
     14 C         -26.2500    2.9200   26.3950 C.2     1  UNL1        0.0601
     15 C         -25.6420    4.0930   27.1230 C.2     1  UNL1        0.2626
     16 N         -25.6140    5.2520   26.4490 N.am    1  UNL1       -0.2000
     17 C         -25.0260    6.4790   26.9630 C.3     1  UNL1        0.1388
     18 O         -25.1430    3.9660   28.2430 O.2     1  UNL1       -0.2687
     19 C         -27.4380    3.0910   25.6450 C.2     1  UNL1        0.1023
     20 N         -28.0750    2.0890   25.0030 N.2     1  UNL1       -0.2119
     21 C         -27.5430    0.8490   25.0790 C.2     1  UNL1        0.2343
     22 O         -28.1930   -0.2080   24.4770 O.2     1  UNL1       -0.4585
     23 C         -29.4600    0.0050   23.8660 C.3     1  UNL1        0.2423
     24 C         -30.0650   -1.3770   23.5730 C.3     1  UNL1        0.2292
     25 O         -30.7290   -1.8780   24.7210 O.3     1  UNL1       -0.2162
     26 C         -26.3540    0.5760   25.7770 C.3     1  UNL1        0.2452
     27 F         -25.8600   -0.6810   25.7950 F       1  UNL1       -0.2267
     28 C         -26.3332    4.5479   33.6835 C.3     1  UNL1        0.0496
     29 C         -26.1020    6.8139   33.1160 C.2     1  UNL1        0.3972
     30 N         -27.7197    5.2528   34.9950 N.3     1  UNL1       -0.2278
     31 C         -27.8320    6.4319   34.8443 C.3     1  UNL1        0.2831
     32 N         -23.5062    1.7481   27.4127 N.3     1  UNL1       -0.2088
     33 N         -27.1315    7.1953   33.9859 N.pl3   1  UNL1       -0.0152
     34 O         -24.0928    6.1090   31.3880 O.3     1  UNL1       -0.2156
     35 N         -25.3871    7.7786   32.4999 N.pl3   1  UNL1        0.2129
     36 O         -21.6566    2.3932   26.3982 O.3     1  UNL1       -0.3358
     37 C         -22.3615    1.2722   28.3680 C.3     1  UNL1        0.1099
     38 C         -25.7460    5.4891   32.8999 C.2     1  UNL1        0.0776
     39 C         -28.6479    5.6228   35.9531 C.3     1  UNL1        0.1449
     40 C         -21.2082    1.3815   27.4337 C.3     1  UNL1        0.1614
     41 O         -24.8401   -0.0905   27.9846 O.3     1  UNL1       -0.1887
     42 C         -24.8157    1.2616   27.6865 C.3     1  UNL1        0.2566
     43 C         -27.1761    4.1153   34.5099 C.3     1  UNL1        0.0807
     44 C         -23.0044    1.9916   26.0228 C.3     1  UNL1        0.2229
     45 O         -25.7375    3.0740   31.6502 O.3     1  UNL1       -0.2796
     46 S         -25.9013    1.8612   30.8335 S.3     1  UNL1        0.0992
     47 C         -24.5138    3.5539   32.1850 C.3     1  UNL1        0.1971
     48 O         -27.2408    1.6226   30.5666 O.3     1  UNL1       -0.1289
     49 N         -25.4302    2.0988   29.0099 N.3     1  UNL1       -0.0907
     50 C         -24.7798    4.9819   31.9525 C.3     1  UNL1        0.2084
@<TRIPOS>BOND
     1     2     7    1
     2     2     1    1
     3     3     2    2
     4     4     3    1
     5     4     5    2
     6     5     6    1
     7     6     7    2
     8     8     1    1
     9     8     9    1
    10     8    12    1
    11     9    46    1
    12     9    10    1
    13    10    11    1
    14    12    11    1
    15    13    42    1
    16    14    13    1
    17    14    15    1
    18    15    18    2
    19    16    17    1
    20    16    15    1
    21    19    14    2
    22    20    21    2
    23    20    19    1
    24    21    26    1
    25    22    21    1
    26    23    22    1
    27    24    23    1
    28    24    25    1
    29    26    27    1
    30    26    13    1
    31    28    43    1
    32    29    33    1
    33    30    43    1
    34    30    39    1
    35    31    30    1
    36    31    39    1
    37    32    42    1
    38    32    37    1
    39    33    31    1
    40    35    29    1
    41    36    40    1
    42    38    29    2
    43    38    28    1
    44    40    37    1
    45    42    41    1
    46    42    49    1
    47    44    36    1
    48    44    32    1
    49    45    47    1
    50    46    48    1
    51    46    45    1
    52    49    46    1
    53    50    34    1
    54    50    47    1
    55    50    38    1
