@<TRIPOS>MOLECULE
outputs/IAG933/test6/raw/output_1319_IAG933_linker_design_.xyz
 49 53 0 0 0
SMALL
GASTEIGER

@<TRIPOS>ATOM
      1 C         -24.8550   -1.0120   30.1430 C.3     1  UNL1        0.0389
      2 C         -24.9730   -2.5050   29.7880 C.2     1  UNL1       -0.0211
      3 C         -23.9060   -3.1730   29.1460 C.2     1  UNL1       -0.0042
      4 C         -23.9890   -4.5490   28.8530 C.2     1  UNL1       -0.0003
      5 C         -25.1370   -5.2800   29.2050 C.2     1  UNL1       -0.0000
      6 C         -26.2320   -4.6110   29.7840 C.2     1  UNL1       -0.0003
      7 C         -26.1550   -3.2320   30.0650 C.2     1  UNL1       -0.0042
      8 C         -25.3870   -0.6790   31.5710 C.3     1  UNL1        0.0768
      9 C         -25.1890    0.7730   32.0280 C.3     1  UNL1        0.0192
     10 C         -25.3360    0.6840   33.5440 C.3     1  UNL1        0.0202
     11 C         -24.8290   -0.7150   33.9050 C.3     1  UNL1        0.0887
     12 N         -24.7580   -1.4810   32.6460 N.3     1  UNL1       -0.2191
     13 C         -25.6880    1.6140   26.4610 C.2     1  UNL1        0.0431
     14 C         -26.2500    2.9200   26.3950 C.2     1  UNL1        0.0749
     15 C         -25.6420    4.0930   27.1230 C.2     1  UNL1        0.2662
     16 N         -25.6140    5.2520   26.4490 N.am    1  UNL1       -0.1997
     17 C         -25.0260    6.4790   26.9630 C.3     1  UNL1        0.1388
     18 O         -25.1430    3.9660   28.2430 O.2     1  UNL1       -0.2683
     19 C         -27.4380    3.0910   25.6450 C.2     1  UNL1        0.1065
     20 N         -28.0750    2.0890   25.0030 N.2     1  UNL1       -0.2081
     21 C         -27.5430    0.8490   25.0790 C.2     1  UNL1        0.2530
     22 O         -28.1930   -0.2080   24.4770 O.2     1  UNL1       -0.4558
     23 C         -29.4600    0.0050   23.8660 C.3     1  UNL1        0.2426
     24 C         -30.0650   -1.3770   23.5730 C.3     1  UNL1        0.2292
     25 O         -30.7290   -1.8780   24.7210 O.3     1  UNL1       -0.2162
     26 C         -26.3540    0.5760   25.7770 C.2     1  UNL1        0.1914
     27 F         -25.8600   -0.6810   25.7950 F       1  UNL1       -0.1995
     28 C         -26.1002    7.3273   31.6341 C.2     1  UNL1       -0.0003
     29 C         -29.0972    5.1737   32.7123 C.3     1  UNL1        0.1526
     30 C         -27.2231    4.7711   31.0677 C.2     1  UNL1        0.0087
     31 C         -26.6675    0.9882   29.1602 C.2     1  UNL1        0.2448
     32 S         -29.3654    3.2666   30.9738 S.3     1  UNL1        0.0500
     33 C         -21.8557    1.5428   27.7122 C.3     1  UNL1        0.1426
     34 O         -29.9990    1.9444   31.1594 O.3     1  UNL1       -0.1436
     35 C         -27.5764    3.2416   30.9700 C.3     1  UNL1        0.1967
     36 N         -27.0953    1.9823   30.1465 N.am    1  UNL1       -0.1884
     37 O         -27.3393    0.0841   28.7403 O.2     1  UNL1       -0.2732
     38 C         -25.2243    1.0491   28.7496 C.3     1  UNL1        0.1100
     39 O         -29.8350    4.1590   31.9728 O.3     1  UNL1       -0.2906
     40 C         -25.7159    6.6611   30.4504 C.2     1  UNL1       -0.0003
     41 C         -30.1835    6.2867   32.8323 C.3     1  UNL1        0.0384
     42 O         -23.1820    1.0656   27.9199 O.3     1  UNL1       -0.3513
     43 C         -26.2911    5.4042   30.1764 C.2     1  UNL1       -0.0019
     44 C         -22.1530    2.3238   26.5536 C.3     1  UNL1        0.0347
     45 C         -27.1104    6.8070   32.5036 C.2     1  UNL1       -0.0021
     46 C         -24.5524   -0.2466   29.1390 C.3     1  UNL1        0.0177
     47 C         -27.7724    5.6404   32.0875 C.2     1  UNL1        0.0044
     48 C         -24.5338    1.3217   27.3983 C.3     1  UNL1        0.1485
     49 C         -29.5865    3.5464   29.6519 C.3     1  UNL1        0.1103
@<TRIPOS>BOND
     1     1    46    1
     2     2     7    1
     3     2     1    1
     4     3     2    2
     5     4     3    1
     6     4     5    2
     7     5     6    1
     8     6     7    2
     9     8     1    1
    10     8     9    1
    11     8    12    1
    12     9    10    1
    13    10    11    1
    14    12    11    1
    15    13    48    1
    16    14    13    1
    17    14    15    1
    18    15    18    2
    19    16    17    1
    20    16    15    1
    21    19    14    2
    22    20    21    2
    23    20    19    1
    24    21    26    1
    25    22    21    1
    26    23    22    1
    27    24    23    1
    28    24    25    1
    29    26    27    1
    30    26    13    2
    31    28    45    1
    32    29    41    1
    33    30    47    1
    34    31    36    1
    35    32    49    1
    36    32    34    1
    37    32    39    1
    38    33    42    1
    39    35    36    1
    40    35    32    1
    41    35    30    1
    42    37    31    2
    43    38    46    1
    44    38    31    1
    45    39    29    1
    46    40    28    2
    47    43    40    1
    48    43    30    2
    49    44    33    1
    50    47    45    2
    51    47    29    1
    52    48    42    1
    53    48    38    1
