@<TRIPOS>MOLECULE
No_132-gen_results/8p0m/2024-11-27-11-27-31/
 14 16 0 0 0
SMALL
GASTEIGER

@<TRIPOS>ATOM
      1 C         -28.0162   -0.8135   28.8779 C.ar    1  UNL1        0.0000
      2 C         -27.0636   -0.1189   28.6079 C.ar    1  UNL1        0.0000
      3 C         -26.9287    1.1713   29.0083 C.ar    1  UNL1        0.0000
      4 C         -25.7702    2.0341   28.6884 C.ar    1  UNL1        0.0000
      5 C         -25.6189    3.3482   29.0918 C.ar    1  UNL1        0.0000
      6 C         -29.0712   -0.3338   29.7689 C.ar    1  UNL1        0.0000
      7 C         -29.0128    0.9333   30.1718 C.ar    1  UNL1        0.0000
      8 C         -27.8993    1.7759   29.8587 C.ar    1  UNL1        0.0000
      9 C         -24.5417    4.1093   28.6528 C.ar    1  UNL1        0.0000
     10 C         -23.7334    3.5516   27.6135 C.ar    1  UNL1        0.0000
     11 C         -24.8513    1.6832   27.6298 C.ar    1  UNL1        0.0000
     12 C         -25.0532    0.2815   27.1703 C.ar    1  UNL1        0.0000
     13 C         -23.8714    2.3468   27.0708 C.ar    1  UNL1        0.0000
     14 C         -26.0467   -0.5870   27.6153 C.ar    1  UNL1        0.0000
@<TRIPOS>BOND
     1     4     5   ar
     2     5     9   ar
     3     9    10   ar
     4    10    13   ar
     5    13    11   ar
     6     1     2   ar
     7     3     8   ar
     8     8     7   ar
     9     7     6   ar
    10     6     1   ar
    11     2     3   ar
    12     3     4   ar
    13     4    11   ar
    14    11    12   ar
    15    12    14   ar
    16    14     2   ar
