@<TRIPOS>MOLECULE
No_1320-gen_results/8p0m/2024-11-27-11-27-31/
 13 13 0 0 0
SMALL
GASTEIGER

@<TRIPOS>ATOM
      1 C         -28.0162   -0.8135   28.8779 C.3     1  UNL1        0.4186
      2 C         -27.0636   -0.1190   28.6079 C.ar    1  UNL1        0.0714
      3 C         -27.0010    0.6913   27.4910 C.ar    1  UNL1        0.0041
      4 C         -25.8548    1.4825   27.0830 C.ar    1  UNL1        0.0065
      5 C         -24.6901    1.4526   27.8807 C.ar    1  UNL1        0.0798
      6 C         -24.7379    0.6010   29.0416 C.ar    1  UNL1        0.0065
      7 C         -25.8234   -0.1688   29.3887 C.ar    1  UNL1        0.0041
      8 F         -27.7845   -2.0034   29.3006 F       1  UNL1       -0.1659
      9 F         -28.8847   -0.9855   27.8614 F       1  UNL1       -0.1659
     10 F         -28.7444   -0.2178   29.9085 F       1  UNL1       -0.1659
     11 C         -23.5337    2.2463   27.5997 C.2     1  UNL1        0.3878
     12 O         -22.3950    1.9412   28.0641 O.co2   1  UNL1       -0.2406
     13 O         -23.6718    3.3470   26.9476 O.co2   1  UNL1       -0.2406
@<TRIPOS>BOND
     1     1     2    1
     2     1     8    1
     3     1     9    1
     4     1    10    1
     5     5    11    1
     6    11    12   ar
     7    11    13   ar
     8     2     3   ar
     9     3     4   ar
    10     4     5   ar
    11     5     6   ar
    12     6     7   ar
    13     7     2   ar
