@<TRIPOS>MOLECULE
outputs/IAG933/test6/raw/output_1321_IAG933_linker_design_.xyz
 59 65 0 0 0
SMALL
GASTEIGER

@<TRIPOS>ATOM
      1 C         -24.8550   -1.0120   30.1430 C.3     1  UNL1        0.0990
      2 C         -24.9730   -2.5050   29.7880 C.2     1  UNL1       -0.0063
      3 C         -23.9060   -3.1730   29.1460 C.2     1  UNL1       -0.0029
      4 C         -23.9890   -4.5490   28.8530 C.2     1  UNL1       -0.0003
      5 C         -25.1370   -5.2800   29.2050 C.2     1  UNL1       -0.0000
      6 C         -26.2320   -4.6110   29.7840 C.2     1  UNL1       -0.0003
      7 C         -26.1550   -3.2320   30.0650 C.2     1  UNL1       -0.0029
      8 C         -25.3870   -0.6790   31.5710 C.3     1  UNL1        0.0916
      9 C         -25.1890    0.7730   32.0280 C.3     1  UNL1        0.0206
     10 C         -25.3360    0.6840   33.5440 C.3     1  UNL1        0.0203
     11 C         -24.8290   -0.7150   33.9050 C.3     1  UNL1        0.0888
     12 N         -24.7580   -1.4810   32.6460 N.3     1  UNL1       -0.2178
     13 C         -25.6880    1.6140   26.4610 C.3     1  UNL1        0.0751
     14 C         -26.2500    2.9200   26.3950 C.2     1  UNL1        0.0550
     15 C         -25.6420    4.0930   27.1230 C.2     1  UNL1        0.2624
     16 N         -25.6140    5.2520   26.4490 N.am    1  UNL1       -0.2000
     17 C         -25.0260    6.4790   26.9630 C.3     1  UNL1        0.1388
     18 O         -25.1430    3.9660   28.2430 O.2     1  UNL1       -0.2687
     19 C         -27.4380    3.0910   25.6450 C.2     1  UNL1        0.1021
     20 N         -28.0750    2.0890   25.0030 N.2     1  UNL1       -0.2119
     21 C         -27.5430    0.8490   25.0790 C.2     1  UNL1        0.2341
     22 O         -28.1930   -0.2080   24.4770 O.2     1  UNL1       -0.4585
     23 C         -29.4600    0.0050   23.8660 C.3     1  UNL1        0.2423
     24 C         -30.0650   -1.3770   23.5730 C.3     1  UNL1        0.2292
     25 O         -30.7290   -1.8780   24.7210 O.3     1  UNL1       -0.2162
     26 C         -26.3540    0.5760   25.7770 C.3     1  UNL1        0.2402
     27 F         -25.8600   -0.6810   25.7950 F       1  UNL1       -0.2269
     28 C         -32.5937   -7.3703   26.6717 C.3     1  UNL1        0.0734
     29 C         -31.7305   -5.0435   29.6640 C.3     1  UNL1        0.0496
     30 N         -32.2200    0.2947   32.5675 N.2     1  UNL1       -0.2273
     31 C         -22.8409    0.1326   29.1923 C.3     1  UNL1        0.0756
     32 C         -22.3852    1.3022   28.2656 C.3     1  UNL1        0.0176
     33 C         -24.7356    1.1180   27.4071 C.3     1  UNL1        0.0640
     34 C         -30.1487    0.5272   31.5738 C.3     1  UNL1        0.2048
     35 O         -27.8592    2.2476   30.5853 O.2     1  UNL1       -0.2261
     36 C         -29.4540   -0.4712   29.2930 C.3     1  UNL1        0.1497
     37 C         -31.7159   -2.6627   27.4886 C.3     1  UNL1        0.1754
     38 N         -24.3587   -0.0630   29.4489 N.3     1  UNL1       -0.2363
     39 C         -28.0481    1.1466   30.1874 C.2     1  UNL1        0.4070
     40 C         -30.9016   -1.1011   29.3274 C.3     1  UNL1        0.3075
     41 N         -34.1141   -5.1862   28.5439 N.3     1  UNL1       -0.1707
     42 S         -30.5349    2.1071   32.3458 S.3     1  UNL1       -0.0856
     43 C         -33.7047   -9.1288   28.7099 C.3     1  UNL1        0.0015
     44 O         -33.5071   -2.8727   28.5454 O.3     1  UNL1       -0.3363
     45 O         -31.4400   -1.6097   28.0048 O.3     1  UNL1       -0.3167
     46 N         -29.2334    0.5214   30.2885 N.am    1  UNL1       -0.2257
     47 C         -34.2863   -6.2160   27.9892 C.3     1  UNL1        0.1661
     48 C         -32.2622   -3.6055   28.7833 C.3     1  UNL1        0.1479
     49 O         -31.8259   -1.0438   30.4531 O.2     1  UNL1       -0.4362
     50 C         -31.8537    1.2966   33.3456 C.3     1  UNL1        0.1878
     51 N         -32.8692   -6.1725   27.6905 N.3     1  UNL1       -0.2579
     52 C         -31.3801   -0.1259   31.5247 C.2     1  UNL1        0.2283
     53 C         -25.3280    0.9529   28.9111 C.3     1  UNL1        0.2333
     54 C         -34.3363   -3.7757   27.9524 C.3     1  UNL1        0.2358
     55 C         -31.6899   -6.1699   28.6385 C.3     1  UNL1        0.0760
     56 C         -23.2892    1.5140   27.0280 C.3     1  UNL1        0.0069
     57 C         -32.9217   -8.7610   27.3753 C.3     1  UNL1        0.0174
     58 O         -26.7254    0.4617   29.5085 O.3     1  UNL1       -0.4220
     59 C         -29.2773   -0.3739   28.0807 C.3     1  UNL1        0.0283
@<TRIPOS>BOND
     1     1     2    1
     2     2     7    1
     3     3     2    2
     4     4     3    1
     5     4     5    2
     6     5     6    1
     7     6     7    2
     8     8     1    1
     9     8     9    1
    10     8    12    1
    11     9    10    1
    12    10    11    1
    13    12    11    1
    14    13    14    1
    15    13    33    1
    16    14    15    1
    17    15    18    2
    18    16    17    1
    19    16    15    1
    20    19    14    2
    21    20    21    2
    22    20    19    1
    23    21    26    1
    24    22    21    1
    25    23    22    1
    26    24    23    1
    27    24    25    1
    28    26    27    1
    29    26    13    1
    30    28    57    1
    31    28    51    1
    32    30    50    1
    33    31    38    1
    34    32    31    1
    35    33    56    1
    36    33    53    1
    37    34    52    1
    38    34    42    1
    39    36    59    1
    40    36    40    1
    41    36    46    1
    42    37    45    1
    43    38     1    1
    44    39    46   am
    45    39    35    2
    46    40    45    1
    47    40    49    1
    48    42    50    1
    49    44    48    1
    50    46    34    1
    51    47    41    1
    52    48    37    1
    53    48    29    1
    54    49    52    1
    55    51    47    1
    56    51    55    1
    57    52    30    2
    58    53    38    1
    59    53    58    1
    60    54    41    1
    61    54    44    1
    62    55    29    1
    63    56    32    1
    64    57    43    1
    65    58    39    1
