@<TRIPOS>MOLECULE
No_1325-gen_results/8p0m/2024-11-27-11-27-31/
 12 13 0 0 0
SMALL
GASTEIGER

@<TRIPOS>ATOM
      1 C         -28.0162   -0.8135   28.8779 C.3     1  UNL1        0.0494
      2 C         -27.0636   -0.1189   28.6079 C.ar    1  UNL1       -0.0240
      3 C         -25.7923   -0.4302   29.0761 C.ar    1  UNL1       -0.0045
      4 C         -24.5456    0.3494   28.8225 C.ar    1  UNL1       -0.0003
      5 C         -24.6586    1.4196   27.8878 C.ar    1  UNL1       -0.0003
      6 C         -25.9471    1.6811   27.3792 C.ar    1  UNL1       -0.0042
      7 C         -27.0439    0.9739   27.6871 C.ar    1  UNL1       -0.0216
      8 C         -29.2096   -0.0265   29.3432 C.3     1  UNL1        0.1169
      9 N         -30.0593    0.2276   28.4184 N.pl3   1  UNL1       -0.2363
     10 C         -29.9566    0.7748   27.4535 C.2     1  UNL1        0.0758
     11 C         -28.9001    1.3606   26.6197 C.2     1  UNL1       -0.0041
     12 C         -28.3141    1.3015   26.9404 C.3     1  UNL1        0.0534
@<TRIPOS>BOND
     1     1     2    1
     2     1     8    1
     3     8     9    1
     4     9    10    1
     5    10    11    2
     6     7    12    1
     7    11    12    1
     8     2     3   ar
     9     3     4   ar
    10     4     5   ar
    11     5     6   ar
    12     6     7   ar
    13     7     2   ar
