@<TRIPOS>MOLECULE
No_1326-gen_results/8p0m/2024-11-27-11-27-31/
 19 19 0 0 0
SMALL
GASTEIGER

@<TRIPOS>ATOM
      1 C         -28.0162   -0.8135   28.8779 C.ar    1  UNL1        0.0414
      2 C         -28.4690   -0.7850   29.8287 C.ar    1  UNL1        0.1387
      3 C         -27.1356    0.2359   28.5352 C.ar    1  UNL1        0.0566
      4 C         -26.8050    1.0509   29.2763 C.ar    1  UNL1        0.0047
      5 C         -28.2372    0.1503   30.9300 C.ar    1  UNL1        0.0369
      6 C         -27.3522    1.1239   30.6071 C.ar    1  UNL1        0.0033
      7 C         -26.4705    0.1962   27.1308 C.2     1  UNL1        0.2491
      8 N         -27.0542    0.6657   26.1840 N.am    1  UNL1       -0.2760
      9 O         -25.1628    0.0611   27.0806 O.2     1  UNL1       -0.2699
     10 C         -26.5596    0.6296   24.8306 C.3     1  UNL1        0.1151
     11 C         -28.5109    0.9402   26.1426 C.3     1  UNL1        0.0758
     12 C         -28.7629    2.1645   25.9881 C.3     1  UNL1        0.0215
     13 C         -29.2165    0.1016   25.0963 C.3     1  UNL1        0.0215
     14 O         -29.4106   -1.8088   30.2731 O.3     1  UNL1       -0.4751
     15 C         -30.3785   -1.9874   29.8863 C.3     1  UNL1        0.2100
     16 C         -31.4642   -2.1749   30.8076 C.3     1  UNL1        0.0730
     17 C         -31.3094   -2.5178   31.9355 C.2     1  UNL1       -0.0268
     18 C         -30.1347   -2.8523   32.4080 C.2     1  UNL1       -0.0302
     19 C         -29.6766   -3.2486   33.7571 C.3     1  UNL1        0.0303
@<TRIPOS>BOND
     1     3     7    1
     2     7     8   am
     3     7     9    2
     4     8    10    1
     5     8    11    1
     6    11    12    1
     7    11    13    1
     8     2    14    1
     9    14    15    1
    10    15    16    1
    11    16    17    1
    12    17    18    2
    13    18    19    1
    14     1     2   ar
    15     2     5   ar
    16     5     6   ar
    17     6     4   ar
    18     4     3   ar
    19     3     1   ar
