@<TRIPOS>MOLECULE
outputs/IAG933/test6/raw/output_1327_IAG933_linker_design_.xyz
 39 43 0 0 0
SMALL
GASTEIGER

@<TRIPOS>ATOM
      1 C         -24.8550   -1.0120   30.1430 C.3     1  UNL1        0.0587
      2 C         -24.9730   -2.5050   29.7880 C.2     1  UNL1       -0.0195
      3 C         -23.9060   -3.1730   29.1460 C.2     1  UNL1       -0.0042
      4 C         -23.9890   -4.5490   28.8530 C.2     1  UNL1       -0.0003
      5 C         -25.1370   -5.2800   29.2050 C.2     1  UNL1       -0.0000
      6 C         -26.2320   -4.6110   29.7840 C.2     1  UNL1       -0.0003
      7 C         -26.1550   -3.2320   30.0650 C.2     1  UNL1       -0.0042
      8 C         -25.3870   -0.6790   31.5710 C.3     1  UNL1        0.0808
      9 C         -25.1890    0.7730   32.0280 C.3     1  UNL1        0.0462
     10 C         -25.3360    0.6840   33.5440 C.3     1  UNL1        0.0226
     11 C         -24.8290   -0.7150   33.9050 C.3     1  UNL1        0.0888
     12 N         -24.7580   -1.4810   32.6460 N.3     1  UNL1       -0.2190
     13 C         -25.6880    1.6140   26.4610 C.2     1  UNL1        0.0379
     14 C         -26.2500    2.9200   26.3950 C.2     1  UNL1        0.0765
     15 C         -25.6420    4.0930   27.1230 C.2     1  UNL1        0.2664
     16 N         -25.6140    5.2520   26.4490 N.am    1  UNL1       -0.1997
     17 C         -25.0260    6.4790   26.9630 C.3     1  UNL1        0.1388
     18 O         -25.1430    3.9660   28.2430 O.2     1  UNL1       -0.2683
     19 C         -27.4380    3.0910   25.6450 C.2     1  UNL1        0.1067
     20 N         -28.0750    2.0890   25.0030 N.2     1  UNL1       -0.2081
     21 C         -27.5430    0.8490   25.0790 C.2     1  UNL1        0.2533
     22 O         -28.1930   -0.2080   24.4770 O.2     1  UNL1       -0.4558
     23 C         -29.4600    0.0050   23.8660 C.3     1  UNL1        0.2426
     24 C         -30.0650   -1.3770   23.5730 C.3     1  UNL1        0.2292
     25 O         -30.7290   -1.8780   24.7210 O.3     1  UNL1       -0.2162
     26 C         -26.3540    0.5760   25.7770 C.2     1  UNL1        0.1930
     27 F         -25.8600   -0.6810   25.7950 F       1  UNL1       -0.1992
     28 C         -23.2906    1.9019   26.0528 C.2     1  UNL1       -0.0001
     29 N         -26.0210    1.4662   29.7060 N.3     1  UNL1       -0.2029
     30 F         -22.2562    0.0080   29.5782 F       1  UNL1       -0.2045
     31 C         -21.9620    1.7430   26.4249 C.2     1  UNL1        0.0023
     32 C         -22.6649    0.6486   28.4632 C.2     1  UNL1        0.1374
     33 C         -25.0852    3.3340   32.0056 C.1     1  UNL1       -0.0611
     34 C         -25.7275    2.0341   31.2251 C.3     1  UNL1        0.1385
     35 C         -23.9901    0.7982   28.1401 C.2     1  UNL1        0.0215
     36 C         -21.6500    1.1411   27.6471 C.2     1  UNL1        0.0294
     37 C         -24.5915    4.2310   32.7225 C.1     1  UNL1       -0.0128
     38 C         -24.2986    1.4037   26.9145 C.2     1  UNL1        0.0020
     39 C         -25.0685    0.1669   29.2186 C.3     1  UNL1        0.1034
@<TRIPOS>BOND
     1     1     2    1
     2     1     8    1
     3     2     7    1
     4     3     2    2
     5     4     3    1
     6     4     5    2
     7     5     6    1
     8     6     7    2
     9     8     9    1
    10     8    12    1
    11     9    10    1
    12    10    11    1
    13    12    11    1
    14    13    38    1
    15    14    13    1
    16    14    15    1
    17    15    18    2
    18    16    17    1
    19    16    15    1
    20    19    14    2
    21    20    21    2
    22    20    19    1
    23    21    26    1
    24    22    21    1
    25    23    22    1
    26    24    23    1
    27    24    25    1
    28    26    27    1
    29    26    13    2
    30    28    31    2
    31    28    38    1
    32    29    34    1
    33    31    36    1
    34    32    30    1
    35    33    37    3
    36    34    33    1
    37    34     9    1
    38    35    32    1
    39    36    32    2
    40    38    35    2
    41    39    35    1
    42    39    29    1
    43    39     1    1
