@<TRIPOS>MOLECULE
No_133-gen_results/8p0m/2024-11-27-11-27-31/
 13 13 0 0 0
SMALL
GASTEIGER

@<TRIPOS>ATOM
      1 C         -28.0162   -0.8135   28.8779 C.ar    1  UNL1        0.0342
      2 C         -28.4690   -0.7850   29.8287 C.ar    1  UNL1        0.0576
      3 C         -26.5042   -0.7777   28.8766 C.ar    1  UNL1        0.1403
      4 C         -25.8103   -0.8531   30.1028 C.ar    1  UNL1        0.0296
      5 C         -27.9906   -0.8916   31.2257 C.ar    1  UNL1        0.0047
      6 C         -26.6042   -0.8676   31.2652 C.ar    1  UNL1        0.0025
      7 C         -30.0773   -0.8858   30.0240 C.2     1  UNL1        0.2691
      8 O         -30.6821   -0.3163   29.2532 O.2     1  UNL1       -0.2680
      9 N         -30.6270   -1.7345   30.9655 N.am    1  UNL1       -0.1745
     10 C         -32.0481   -1.8836   30.9924 C.2     1  UNL1        0.0844
     11 F         -25.7599   -0.7418   27.7855 F       1  UNL1       -0.2042
     12 C         -32.8898   -1.3014   30.7642 C.2     1  UNL1       -0.0079
     13 C         -34.2899   -1.5908   30.8689 C.3     1  UNL1        0.0321
@<TRIPOS>BOND
     1     2     7    1
     2     7     8    2
     3     7     9   am
     4     9    10    1
     5     3    11    1
     6    10    12    2
     7    12    13    1
     8     1     2   ar
     9     2     5   ar
    10     5     6   ar
    11     6     4   ar
    12     4     3   ar
    13     3     1   ar
