@<TRIPOS>MOLECULE
outputs/IAG933/test6/raw/output_1332_IAG933_linker_design_.xyz
 42 45 0 0 0
SMALL
GASTEIGER

@<TRIPOS>ATOM
      1 C         -24.8550   -1.0120   30.1430 C.3     1  UNL1        0.0596
      2 C         -24.9730   -2.5050   29.7880 C.2     1  UNL1       -0.0194
      3 C         -23.9060   -3.1730   29.1460 C.2     1  UNL1       -0.0042
      4 C         -23.9890   -4.5490   28.8530 C.2     1  UNL1       -0.0003
      5 C         -25.1370   -5.2800   29.2050 C.2     1  UNL1       -0.0000
      6 C         -26.2320   -4.6110   29.7840 C.2     1  UNL1       -0.0003
      7 C         -26.1550   -3.2320   30.0650 C.2     1  UNL1       -0.0042
      8 C         -25.3870   -0.6790   31.5710 C.3     1  UNL1        0.0785
      9 C         -25.1890    0.7730   32.0280 C.3     1  UNL1        0.0192
     10 C         -25.3360    0.6840   33.5440 C.3     1  UNL1        0.0202
     11 C         -24.8290   -0.7150   33.9050 C.3     1  UNL1        0.0887
     12 N         -24.7580   -1.4810   32.6460 N.3     1  UNL1       -0.2191
     13 C         -25.6880    1.6140   26.4610 C.2     1  UNL1        0.0528
     14 C         -26.2500    2.9200   26.3950 C.2     1  UNL1        0.0778
     15 C         -25.6420    4.0930   27.1230 C.2     1  UNL1        0.2665
     16 N         -25.6140    5.2520   26.4490 N.am    1  UNL1       -0.1997
     17 C         -25.0260    6.4790   26.9630 C.3     1  UNL1        0.1388
     18 O         -25.1430    3.9660   28.2430 O.2     1  UNL1       -0.2683
     19 C         -27.4380    3.0910   25.6450 C.2     1  UNL1        0.1068
     20 N         -28.0750    2.0890   25.0030 N.2     1  UNL1       -0.2081
     21 C         -27.5430    0.8490   25.0790 C.2     1  UNL1        0.2533
     22 O         -28.1930   -0.2080   24.4770 O.2     1  UNL1       -0.4558
     23 C         -29.4600    0.0050   23.8660 C.3     1  UNL1        0.2426
     24 C         -30.0650   -1.3770   23.5730 C.3     1  UNL1        0.2292
     25 O         -30.7290   -1.8780   24.7210 O.3     1  UNL1       -0.2162
     26 C         -26.3540    0.5760   25.7770 C.2     1  UNL1        0.1943
     27 F         -25.8600   -0.6810   25.7950 F       1  UNL1       -0.1992
     28 C         -24.6913    1.2857   27.3764 C.2     1  UNL1        0.0692
     29 C         -23.4034    1.3341   27.0174 C.2     1  UNL1        0.0621
     30 O         -21.5367    2.0519   25.9646 O.3     1  UNL1       -0.3178
     31 C         -22.3557    1.1750   27.8830 C.2     1  UNL1        0.0845
     32 N         -24.9110    1.0480   28.6495 N.pl3   1  UNL1       -0.2376
     33 C         -22.3890    0.3648   29.0827 C.1     1  UNL1        0.1313
     34 C         -22.8692    1.7750   25.7181 C.3     1  UNL1        0.3040
     35 N         -27.4634    1.8661   30.0955 N.3     1  UNL1       -0.1311
     36 C         -21.3127    1.8669   27.3457 C.3     1  UNL1        0.1824
     37 C         -25.7773   -0.0671   29.1882 C.3     1  UNL1        0.1152
     38 C         -27.2001    0.5496   29.5215 C.3     1  UNL1        0.1119
     39 C         -28.5232   -1.1774   29.6795 C.3     1  UNL1        0.0016
     40 O         -22.3039   -0.3810   29.9462 O.2     1  UNL1       -0.2314
     41 C         -28.4797    0.0973   28.8411 C.3     1  UNL1        0.0208
     42 F         -23.4518    1.7145   24.5276 F       1  UNL1       -0.1987
@<TRIPOS>BOND
     1     1    37    1
     2     2     7    1
     3     2     1    1
     4     3     2    2
     5     4     3    1
     6     4     5    2
     7     5     6    1
     8     6     7    2
     9     8     1    1
    10     8     9    1
    11     8    12    1
    12     9    10    1
    13    10    11    1
    14    12    11    1
    15    13    28    1
    16    14    13    1
    17    14    15    1
    18    15    18    2
    19    16    17    1
    20    16    15    1
    21    19    14    2
    22    20    21    2
    23    20    19    1
    24    21    26    1
    25    22    21    1
    26    23    22    1
    27    24    23    1
    28    24    25    1
    29    26    27    1
    30    26    13    2
    31    28    32    1
    32    29    28    2
    33    29    31    1
    34    30    36    1
    35    31    33    2
    36    33    40    2
    37    34    42    1
    38    34    30    1
    39    34    29    1
    40    36    31    1
    41    37    32    1
    42    37    38    1
    43    38    35    1
    44    41    38    1
    45    41    39    1
