@<TRIPOS>MOLECULE
outputs/IAG933/test6/raw/output_1333_IAG933_linker_design_.xyz
 50 57 0 0 0
SMALL
GASTEIGER

@<TRIPOS>ATOM
      1 C         -24.8550   -1.0120   30.1430 C.3     1  UNL1        0.0768
      2 C         -24.9730   -2.5050   29.7880 C.2     1  UNL1       -0.0177
      3 C         -23.9060   -3.1730   29.1460 C.2     1  UNL1       -0.0041
      4 C         -23.9890   -4.5490   28.8530 C.2     1  UNL1       -0.0003
      5 C         -25.1370   -5.2800   29.2050 C.2     1  UNL1       -0.0000
      6 C         -26.2320   -4.6110   29.7840 C.2     1  UNL1       -0.0003
      7 C         -26.1550   -3.2320   30.0650 C.2     1  UNL1       -0.0041
      8 C         -25.3870   -0.6790   31.5710 C.3     1  UNL1        0.0802
      9 C         -25.1890    0.7730   32.0280 C.3     1  UNL1        0.0193
     10 C         -25.3360    0.6840   33.5440 C.3     1  UNL1        0.0202
     11 C         -24.8290   -0.7150   33.9050 C.3     1  UNL1        0.0887
     12 N         -24.7580   -1.4810   32.6460 N.3     1  UNL1       -0.2190
     13 C         -25.6880    1.6140   26.4610 C.2     1  UNL1        0.0407
     14 C         -26.2500    2.9200   26.3950 C.2     1  UNL1        0.0744
     15 C         -25.6420    4.0930   27.1230 C.2     1  UNL1        0.2220
     16 N         -25.6140    5.2520   26.4490 N.2     1  UNL1       -0.2357
     17 C         -25.0260    6.4790   26.9630 C.3     1  UNL1        0.1550
     18 O         -25.1430    3.9660   28.2430 O.2     1  UNL1       -0.4593
     19 C         -27.4380    3.0910   25.6450 C.2     1  UNL1        0.1068
     20 N         -28.0750    2.0890   25.0030 N.2     1  UNL1       -0.2081
     21 C         -27.5430    0.8490   25.0790 C.2     1  UNL1        0.2533
     22 O         -28.1930   -0.2080   24.4770 O.2     1  UNL1       -0.4558
     23 C         -29.4600    0.0050   23.8660 C.3     1  UNL1        0.2426
     24 C         -30.0650   -1.3770   23.5730 C.3     1  UNL1        0.2292
     25 O         -30.7290   -1.8780   24.7210 O.3     1  UNL1       -0.2162
     26 C         -26.3540    0.5760   25.7770 C.2     1  UNL1        0.1931
     27 F         -25.8600   -0.6810   25.7950 F       1  UNL1       -0.1992
     28 C         -29.0367    4.7852   30.1687 C.3     1  UNL1        0.1366
     29 C         -24.7987    0.0292   28.9208 C.3     1  UNL1        0.1630
     30 O         -26.7475    5.0585   30.3715 O.2     1  UNL1       -0.2879
     31 S         -22.9115    1.3867   27.4050 S.3     1  UNL1       -0.0616
     32 C         -28.0488    2.6880   29.7373 C.2     1  UNL1        0.1332
     33 O         -26.5397   -0.4012   28.6127 O.2     1  UNL1       -0.4680
     34 C         -21.1844    1.5942   27.5034 C.3     1  UNL1        0.0804
     35 C         -27.7975    4.0565   30.1025 C.2     1  UNL1        0.2096
     36 N         -27.1389    1.6864   29.6798 N.2     1  UNL1       -0.2110
     37 C         -24.3826    1.2697   28.0961 C.3     1  UNL1        0.1360
     38 O         -22.9626    2.2425   26.0829 O.3     1  UNL1       -0.1706
     39 C         -30.8716    3.7834   32.2835 C.3     1  UNL1        0.0214
     40 C         -29.5357    3.8616   32.9794 C.3     1  UNL1        0.0018
     41 C         -29.4370    5.7128   31.2368 C.3     1  UNL1        0.0278
     42 C         -23.3018    0.3639   28.8156 C.3     1  UNL1        0.1118
     43 C         -29.6416    1.5014   28.4734 C.2     1  UNL1       -0.0003
     44 N         -30.1042    3.6151   29.8978 N.pl3   1  UNL1       -0.3015
     45 C         -27.4602    0.6204   28.9255 C.2     1  UNL1        0.2045
     46 C         -29.0163    5.1842   32.5338 C.3     1  UNL1        0.0022
     47 C         -24.6613    2.8487   28.9867 C.3     1  UNL1        0.2219
     48 C         -29.3504    2.5911   29.3647 C.2     1  UNL1        0.0651
     49 C         -31.0094    4.4113   30.5734 C.3     1  UNL1        0.0912
     50 C         -28.6708    0.4707   28.2789 C.3     1  UNL1        0.1121
@<TRIPOS>BOND
     1     1     2    1
     2     2     7    1
     3     3     2    2
     4     4     3    1
     5     4     5    2
     6     5     6    1
     7     6     7    2
     8     8     1    1
     9     8     9    1
    10     8    12    1
    11     9    10    1
    12    10    11    1
    13    12    11    1
    14    14    13    1
    15    14    15    1
    16    15    18    1
    17    16    17    1
    18    16    15    2
    19    18    47    1
    20    19    14    2
    21    20    21    2
    22    20    19    1
    23    21    26    1
    24    22    21    1
    25    23    22    1
    26    24    23    1
    27    24    25    1
    28    26    27    1
    29    26    13    2
    30    28    41    1
    31    29    33    1
    32    29     1    1
    33    31    34    1
    34    31    37    1
    35    31    42    1
    36    32    35    2
    37    33    45    1
    38    35    28    1
    39    35    30    1
    40    36    32    1
    41    37    42    1
    42    37    29    1
    43    37    47    1
    44    38    31    1
    45    39    40    1
    46    41    46    1
    47    42    29    1
    48    43    48    2
    49    44    28    1
    50    44    49    1
    51    45    36    2
    52    46    40    1
    53    48    32    1
    54    48    44    1
    55    49    39    1
    56    50    43    1
    57    50    45    1
