@<TRIPOS>MOLECULE
outputs/IAG933/test6/raw/output_1335_IAG933_linker_design_.xyz
 50 54 0 0 0
SMALL
GASTEIGER

@<TRIPOS>ATOM
      1 C         -24.8550   -1.0120   30.1430 C.3     1  UNL1        0.0712
      2 C         -24.9730   -2.5050   29.7880 C.2     1  UNL1       -0.0186
      3 C         -23.9060   -3.1730   29.1460 C.2     1  UNL1       -0.0042
      4 C         -23.9890   -4.5490   28.8530 C.2     1  UNL1       -0.0003
      5 C         -25.1370   -5.2800   29.2050 C.2     1  UNL1       -0.0000
      6 C         -26.2320   -4.6110   29.7840 C.2     1  UNL1       -0.0003
      7 C         -26.1550   -3.2320   30.0650 C.2     1  UNL1       -0.0042
      8 C         -25.3870   -0.6790   31.5710 C.3     1  UNL1        0.0793
      9 C         -25.1890    0.7730   32.0280 C.3     1  UNL1        0.0193
     10 C         -25.3360    0.6840   33.5440 C.3     1  UNL1        0.0202
     11 C         -24.8290   -0.7150   33.9050 C.3     1  UNL1        0.0887
     12 N         -24.7580   -1.4810   32.6460 N.3     1  UNL1       -0.2190
     13 C         -25.6880    1.6140   26.4610 C.2     1  UNL1        0.0180
     14 C         -26.2500    2.9200   26.3950 C.2     1  UNL1        0.0726
     15 C         -25.6420    4.0930   27.1230 C.2     1  UNL1        0.2661
     16 N         -25.6140    5.2520   26.4490 N.am    1  UNL1       -0.1997
     17 C         -25.0260    6.4790   26.9630 C.3     1  UNL1        0.1388
     18 O         -25.1430    3.9660   28.2430 O.2     1  UNL1       -0.2683
     19 C         -27.4380    3.0910   25.6450 C.2     1  UNL1        0.1064
     20 N         -28.0750    2.0890   25.0030 N.2     1  UNL1       -0.2081
     21 C         -27.5430    0.8490   25.0790 C.2     1  UNL1        0.2530
     22 O         -28.1930   -0.2080   24.4770 O.2     1  UNL1       -0.4560
     23 C         -29.4600    0.0050   23.8660 C.3     1  UNL1        0.2391
     24 C         -30.0650   -1.3770   23.5730 C.3     1  UNL1        0.1900
     25 O         -30.7290   -1.8780   24.7210 O.3     1  UNL1       -0.3419
     26 C         -26.3540    0.5760   25.7770 C.2     1  UNL1        0.1892
     27 F         -25.8600   -0.6810   25.7950 F       1  UNL1       -0.1996
     28 O         -26.8194   -0.3413   28.7292 O.3     1  UNL1       -0.2201
     29 C         -25.5946   -0.1871   29.1903 C.3     1  UNL1        0.1845
     30 C         -23.1414    1.7730   26.3748 C.3     1  UNL1        0.0095
     31 C         -28.0218    1.6705   30.0558 C.3     1  UNL1        0.0136
     32 C         -30.1197    2.7485   29.2403 C.3     1  UNL1        0.1624
     33 C         -32.4336   -0.3683   27.8306 C.3     1  UNL1        0.0859
     34 O         -29.7080    2.8646   31.7747 O.co2   1  UNL1       -0.2441
     35 C         -31.4243   -0.7198   26.7439 C.2     1  UNL1        0.1818
     36 O         -31.6091    2.1662   31.0900 O.co2   1  UNL1       -0.2441
     37 C         -29.1468    5.0384   28.0816 C.3     1  UNL1        0.0596
     38 C         -31.7718   -1.6545   25.5881 C.3     1  UNL1        0.2062
     39 O         -23.0377   -0.0050   28.7409 O.3     1  UNL1       -0.3533
     40 S         -28.0408    4.4227   29.3384 S.3     1  UNL1       -0.1391
     41 C         -21.7860    1.4462   27.1029 C.3     1  UNL1        0.0325
     42 C         -24.3857    1.3915   27.2312 C.3     1  UNL1        0.0547
     43 C         -30.3178    3.9411   28.1790 C.3     1  UNL1        0.0395
     44 C         -24.4320    0.2574   28.3705 C.3     1  UNL1        0.1498
     45 C         -28.5390    2.8324   29.1638 C.3     1  UNL1        0.0728
     46 C         -32.1839    1.0769   28.4033 C.3     1  UNL1        0.0971
     47 N         -30.9448    1.6421   28.3744 N.3     1  UNL1       -0.2088
     48 C         -30.4965    2.5628   30.7756 C.2     1  UNL1        0.3792
     49 C         -22.0405    1.0524   28.5597 C.3     1  UNL1        0.1422
     50 O         -30.3492   -0.1221   26.7524 O.2     1  UNL1       -0.2934
@<TRIPOS>BOND
     1     1    29    1
     2     2     7    1
     3     2     1    1
     4     3     2    2
     5     4     3    1
     6     4     5    2
     7     5     6    1
     8     6     7    2
     9     8     1    1
    10     8     9    1
    11     8    12    1
    12     9    10    1
    13    10    11    1
    14    12    11    1
    15    14    13    1
    16    14    15    1
    17    15    18    2
    18    16    17    1
    19    16    15    1
    20    19    14    2
    21    20    21    2
    22    20    19    1
    23    21    26    1
    24    22    21    1
    25    23    22    1
    26    24    23    1
    27    24    25    1
    28    25    38    1
    29    26    27    1
    30    26    13    2
    31    29    28    1
    32    30    41    1
    33    30    42    1
    34    32    47    1
    35    32    48    1
    36    33    46    1
    37    35    50    2
    38    35    33    1
    39    37    43    1
    40    37    40    1
    41    38    35    1
    42    41    49    1
    43    42    13    1
    44    42    44    1
    45    43    32    1
    46    44    39    1
    47    44    29    1
    48    45    32    1
    49    45    40    1
    50    45    31    1
    51    47    46    1
    52    48    36   ar
    53    48    34   ar
    54    49    39    1
