@<TRIPOS>MOLECULE
outputs/IAG933/test6/raw/output_1336_IAG933_linker_design_.xyz
 43 47 0 0 0
SMALL
GASTEIGER

@<TRIPOS>ATOM
      1 C         -24.8550   -1.0120   30.1430 C.3     1  UNL1        0.0569
      2 C         -24.9730   -2.5050   29.7880 C.2     1  UNL1       -0.0195
      3 C         -23.9060   -3.1730   29.1460 C.2     1  UNL1       -0.0042
      4 C         -23.9890   -4.5490   28.8530 C.2     1  UNL1       -0.0003
      5 C         -25.1370   -5.2800   29.2050 C.2     1  UNL1       -0.0000
      6 C         -26.2320   -4.6110   29.7840 C.2     1  UNL1       -0.0003
      7 C         -26.1550   -3.2320   30.0650 C.2     1  UNL1       -0.0042
      8 C         -25.3870   -0.6790   31.5710 C.3     1  UNL1        0.0784
      9 C         -25.1890    0.7730   32.0280 C.3     1  UNL1        0.0192
     10 C         -25.3360    0.6840   33.5440 C.3     1  UNL1        0.0202
     11 C         -24.8290   -0.7150   33.9050 C.3     1  UNL1        0.0887
     12 N         -24.7580   -1.4810   32.6460 N.3     1  UNL1       -0.2191
     13 C         -25.6880    1.6140   26.4610 C.2     1  UNL1        0.0381
     14 C         -26.2500    2.9200   26.3950 C.2     1  UNL1        0.0744
     15 C         -25.6420    4.0930   27.1230 C.2     1  UNL1        0.2662
     16 N         -25.6140    5.2520   26.4490 N.am    1  UNL1       -0.1997
     17 C         -25.0260    6.4790   26.9630 C.3     1  UNL1        0.1388
     18 O         -25.1430    3.9660   28.2430 O.2     1  UNL1       -0.2683
     19 C         -27.4380    3.0910   25.6450 C.2     1  UNL1        0.1065
     20 N         -28.0750    2.0890   25.0030 N.2     1  UNL1       -0.2081
     21 C         -27.5430    0.8490   25.0790 C.2     1  UNL1        0.2530
     22 O         -28.1930   -0.2080   24.4770 O.2     1  UNL1       -0.4558
     23 C         -29.4600    0.0050   23.8660 C.3     1  UNL1        0.2426
     24 C         -30.0650   -1.3770   23.5730 C.3     1  UNL1        0.2292
     25 O         -30.7290   -1.8780   24.7210 O.3     1  UNL1       -0.2162
     26 C         -26.3540    0.5760   25.7770 C.2     1  UNL1        0.1910
     27 F         -25.8600   -0.6810   25.7950 F       1  UNL1       -0.1995
     28 C         -22.3467    1.1772   27.5861 C.2     1  UNL1        0.1910
     29 C         -28.5349    0.8089   31.4428 C.2     1  UNL1       -0.0017
     30 C         -23.1687    1.5974   26.6144 C.2     1  UNL1        0.0322
     31 C         -29.6954   -1.4416   30.2908 C.3     1  UNL1        0.0948
     32 N         -24.4432    0.5975   28.3215 N.am    1  UNL1       -0.2691
     33 C         -24.4598    1.2938   27.1002 C.3     1  UNL1        0.1254
     34 F         -20.9584    1.3250   27.5309 F       1  UNL1       -0.1997
     35 C         -25.5842    0.0175   29.0744 C.3     1  UNL1        0.0860
     36 O         -28.4801   -0.7798   28.3613 O.2     1  UNL1       -0.2913
     37 C         -30.1737   -0.9716   31.5261 C.2     1  UNL1       -0.0180
     38 C         -26.8364    0.9813   29.4564 C.3     1  UNL1        0.0495
     39 C         -28.7198   -0.7049   29.5898 C.2     1  UNL1        0.1735
     40 O         -22.6034    0.1670   29.7129 O.2     1  UNL1       -0.2674
     41 C         -23.0747    0.6173   28.6354 C.2     1  UNL1        0.2768
     42 C         -28.0327    0.3402   30.2035 C.2     1  UNL1        0.0145
     43 C         -29.6195    0.1876   32.0988 C.2     1  UNL1       -0.0044
@<TRIPOS>BOND
     1     1    35    1
     2     2     7    1
     3     2     1    1
     4     3     2    2
     5     4     3    1
     6     4     5    2
     7     5     6    1
     8     6     7    2
     9     8     1    1
    10     8     9    1
    11     8    12    1
    12     9    10    1
    13    10    11    1
    14    12    11    1
    15    14    13    1
    16    14    15    1
    17    15    18    2
    18    16    17    1
    19    16    15    1
    20    19    14    2
    21    20    21    2
    22    20    19    1
    23    21    26    1
    24    22    21    1
    25    23    22    1
    26    24    23    1
    27    24    25    1
    28    26    27    1
    29    26    13    2
    30    28    41    1
    31    29    43    1
    32    30    33    1
    33    30    28    2
    34    31    37    1
    35    32    41   am
    36    32    35    1
    37    33    13    1
    38    33    32    1
    39    34    28    1
    40    35    38    1
    41    36    39    2
    42    37    43    2
    43    38    42    1
    44    39    42    1
    45    39    31    1
    46    41    40    2
    47    42    29    2
