@<TRIPOS>MOLECULE
outputs/IAG933/test6/raw/output_1337_IAG933_linker_design_.xyz
 45 49 0 0 0
SMALL
GASTEIGER

@<TRIPOS>ATOM
      1 C         -24.8550   -1.0120   30.1430 C.3     1  UNL1        0.0384
      2 C         -24.9730   -2.5050   29.7880 C.2     1  UNL1       -0.0212
      3 C         -23.9060   -3.1730   29.1460 C.2     1  UNL1       -0.0042
      4 C         -23.9890   -4.5490   28.8530 C.2     1  UNL1       -0.0003
      5 C         -25.1370   -5.2800   29.2050 C.2     1  UNL1       -0.0000
      6 C         -26.2320   -4.6110   29.7840 C.2     1  UNL1       -0.0003
      7 C         -26.1550   -3.2320   30.0650 C.2     1  UNL1       -0.0042
      8 C         -25.3870   -0.6790   31.5710 C.3     1  UNL1        0.0768
      9 C         -25.1890    0.7730   32.0280 C.3     1  UNL1        0.0192
     10 C         -25.3360    0.6840   33.5440 C.3     1  UNL1        0.0202
     11 C         -24.8290   -0.7150   33.9050 C.3     1  UNL1        0.0887
     12 N         -24.7580   -1.4810   32.6460 N.3     1  UNL1       -0.2191
     13 C         -25.6880    1.6140   26.4610 C.2     1  UNL1        0.0156
     14 C         -26.2500    2.9200   26.3950 C.2     1  UNL1        0.0726
     15 C         -25.6420    4.0930   27.1230 C.2     1  UNL1        0.2661
     16 N         -25.6140    5.2520   26.4490 N.am    1  UNL1       -0.1997
     17 C         -25.0260    6.4790   26.9630 C.3     1  UNL1        0.1388
     18 O         -25.1430    3.9660   28.2430 O.2     1  UNL1       -0.2683
     19 C         -27.4380    3.0910   25.6450 C.2     1  UNL1        0.1064
     20 N         -28.0750    2.0890   25.0030 N.2     1  UNL1       -0.2081
     21 C         -27.5430    0.8490   25.0790 C.2     1  UNL1        0.2530
     22 O         -28.1930   -0.2080   24.4770 O.2     1  UNL1       -0.4558
     23 C         -29.4600    0.0050   23.8660 C.3     1  UNL1        0.2426
     24 C         -30.0650   -1.3770   23.5730 C.3     1  UNL1        0.2292
     25 O         -30.7290   -1.8780   24.7210 O.3     1  UNL1       -0.2162
     26 C         -26.3540    0.5760   25.7770 C.2     1  UNL1        0.1891
     27 F         -25.8600   -0.6810   25.7950 F       1  UNL1       -0.1996
     28 C         -22.9276    0.4645   29.4717 C.3     1  UNL1        0.0356
     29 C         -24.2682    0.0986   29.4200 C.3     1  UNL1        0.0084
     30 C         -28.8907    1.1260   28.8936 C.3     1  UNL1        0.1521
     31 O         -29.9866    1.8661   28.4637 O.3     1  UNL1       -0.2231
     32 C         -24.6338    1.1085   27.3787 C.3     1  UNL1        0.0250
     33 C         -29.8122   -2.1355   30.7046 C.3     1  UNL1        0.1422
     34 C         -26.5631    0.6830   28.8308 C.3     1  UNL1        0.0029
     35 F         -21.1486    1.7510   28.4964 F       1  UNL1       -0.2373
     36 C         -25.1499    0.6898   28.5640 C.3     1  UNL1        0.0046
     37 C         -29.0820   -1.2689   29.6676 C.3     1  UNL1        0.0347
     38 C         -29.8724   -0.2236   32.1811 C.3     1  UNL1        0.1422
     39 C         -22.3779    0.9251   27.1597 C.3     1  UNL1        0.0356
     40 C         -22.1537    1.1444   28.4498 C.3     1  UNL1        0.1610
     41 O         -30.3963   -1.4297   31.8090 O.3     1  UNL1       -0.3538
     42 C         -29.6087    0.1374   29.9003 C.3     1  UNL1        0.0354
     43 C         -23.4136    1.4993   26.4917 C.3     1  UNL1        0.0072
     44 C         -29.8300    0.6775   31.0770 C.3     1  UNL1        0.0347
     45 C         -27.6231    1.5888   29.5106 C.3     1  UNL1        0.0329
@<TRIPOS>BOND
     1     1     2    1
     2     2     7    1
     3     3     2    2
     4     4     3    1
     5     4     5    2
     6     5     6    1
     7     6     7    2
     8     8     1    1
     9     8     9    1
    10     8    12    1
    11     9    10    1
    12    10    11    1
    13    12    11    1
    14    14    13    1
    15    14    15    1
    16    15    18    2
    17    16    17    1
    18    16    15    1
    19    19    14    2
    20    20    21    2
    21    20    19    1
    22    21    26    1
    23    22    21    1
    24    23    22    1
    25    24    23    1
    26    24    25    1
    27    26    27    1
    28    26    13    2
    29    29    28    1
    30    29     1    1
    31    30    31    1
    32    30    45    1
    33    30    42    1
    34    32    13    1
    35    32    36    1
    36    33    41    1
    37    34    45    1
    38    36    34    1
    39    36    29    1
    40    37    42    1
    41    37    33    1
    42    39    40    1
    43    40    35    1
    44    40    28    1
    45    41    38    1
    46    42    44    1
    47    43    39    1
    48    43    32    1
    49    44    38    1
