@<TRIPOS>MOLECULE
outputs/IAG933/test6/raw/output_1338_IAG933_linker_design_.xyz
 41 46 0 0 0
SMALL
GASTEIGER

@<TRIPOS>ATOM
      1 C         -24.8550   -1.0120   30.1430 C.3     1  UNL1        0.2053
      2 C         -24.9730   -2.5050   29.7880 C.2     1  UNL1        0.0186
      3 C         -23.9060   -3.1730   29.1460 C.2     1  UNL1       -0.0008
      4 C         -23.9890   -4.5490   28.8530 C.2     1  UNL1       -0.0002
      5 C         -25.1370   -5.2800   29.2050 C.2     1  UNL1       -0.0000
      6 C         -26.2320   -4.6110   29.7840 C.2     1  UNL1       -0.0002
      7 C         -26.1550   -3.2320   30.0650 C.2     1  UNL1       -0.0008
      8 C         -25.3870   -0.6790   31.5710 C.3     1  UNL1        0.1170
      9 C         -25.1890    0.7730   32.0280 C.3     1  UNL1        0.0229
     10 C         -25.3360    0.6840   33.5440 C.3     1  UNL1        0.0204
     11 C         -24.8290   -0.7150   33.9050 C.3     1  UNL1        0.0888
     12 N         -24.7580   -1.4810   32.6460 N.3     1  UNL1       -0.2154
     13 C         -25.6880    1.6140   26.4610 C.2     1  UNL1        0.0453
     14 C         -26.2500    2.9200   26.3950 C.2     1  UNL1        0.0748
     15 C         -25.6420    4.0930   27.1230 C.2     1  UNL1        0.2662
     16 N         -25.6140    5.2520   26.4490 N.am    1  UNL1       -0.1997
     17 C         -25.0260    6.4790   26.9630 C.3     1  UNL1        0.1388
     18 O         -25.1430    3.9660   28.2430 O.2     1  UNL1       -0.2683
     19 C         -27.4380    3.0910   25.6450 C.2     1  UNL1        0.1065
     20 N         -28.0750    2.0890   25.0030 N.2     1  UNL1       -0.2081
     21 C         -27.5430    0.8490   25.0790 C.2     1  UNL1        0.2530
     22 O         -28.1930   -0.2080   24.4770 O.2     1  UNL1       -0.4558
     23 C         -29.4600    0.0050   23.8660 C.3     1  UNL1        0.2426
     24 C         -30.0650   -1.3770   23.5730 C.3     1  UNL1        0.2292
     25 O         -30.7290   -1.8780   24.7210 O.3     1  UNL1       -0.2162
     26 C         -26.3540    0.5760   25.7770 C.2     1  UNL1        0.1913
     27 F         -25.8600   -0.6810   25.7950 F       1  UNL1       -0.1995
     28 O         -23.4345    2.1681   25.1398 O.2     1  UNL1       -0.4371
     29 C         -23.4851    0.3646   29.0720 C.2     1  UNL1        0.2249
     30 C         -22.0287    1.6883   26.8903 C.2     1  UNL1        0.1544
     31 C         -24.4947    1.2824   27.0360 C.3     1  UNL1        0.1898
     32 C         -20.8090   -0.4887   28.7199 C.3     1  UNL1        0.1433
     33 C         -22.3629    0.9895   29.0135 C.3     1  UNL1        0.1972
     34 O         -21.1577    2.0591   25.9468 O.2     1  UNL1       -0.4393
     35 N         -24.4940    0.5159   28.1671 N.2     1  UNL1       -0.2291
     36 C         -23.3400    1.6625   26.3875 C.2     1  UNL1        0.1762
     37 C         -20.1667    0.9063   28.3707 C.3     1  UNL1        0.0427
     38 C         -22.1374    2.4109   24.8740 C.3     1  UNL1        0.4288
     39 O         -23.5020   -0.5910   30.0000 O.2     1  UNL1       -0.4595
     40 O         -21.2296    0.3134   29.8450 O.3     1  UNL1       -0.3465
     41 C         -21.4175    1.6831   28.1581 C.3     1  UNL1        0.0985
@<TRIPOS>BOND
     1     1    39    1
     2     2     7    1
     3     2     1    1
     4     3     2    2
     5     4     3    1
     6     4     5    2
     7     5     6    1
     8     6     7    2
     9     8     1    1
    10     8     9    1
    11     8    12    1
    12     9    10    1
    13    10    11    1
    14    12    11    1
    15    14    13    1
    16    14    15    1
    17    15    18    2
    18    16    17    1
    19    16    15    1
    20    19    14    2
    21    20    21    2
    22    20    19    1
    23    21    26    1
    24    22    21    1
    25    23    22    1
    26    24    23    1
    27    24    25    1
    28    26    27    1
    29    26    13    2
    30    28    36    1
    31    29    39    1
    32    30    41    1
    33    31    13    1
    34    31    35    1
    35    32    40    1
    36    33    29    1
    37    33    40    1
    38    34    30    1
    39    35    29    2
    40    36    30    2
    41    36    31    1
    42    37    32    1
    43    38    28    1
    44    38    34    1
    45    41    37    1
    46    41    33    1
