@<TRIPOS>MOLECULE
outputs/IAG933/test6/raw/output_1340_IAG933_linker_design_.xyz
 43 47 0 0 0
SMALL
GASTEIGER

@<TRIPOS>ATOM
      1 C         -24.8550   -1.0120   30.1430 C.3     1  UNL1        0.0987
      2 C         -24.9730   -2.5050   29.7880 C.2     1  UNL1       -0.0141
      3 C         -23.9060   -3.1730   29.1460 C.2     1  UNL1       -0.0038
      4 C         -23.9890   -4.5490   28.8530 C.2     1  UNL1       -0.0003
      5 C         -25.1370   -5.2800   29.2050 C.2     1  UNL1       -0.0000
      6 C         -26.2320   -4.6110   29.7840 C.2     1  UNL1       -0.0003
      7 C         -26.1550   -3.2320   30.0650 C.2     1  UNL1       -0.0038
      8 C         -25.3870   -0.6790   31.5710 C.3     1  UNL1        0.0839
      9 C         -25.1890    0.7730   32.0280 C.3     1  UNL1        0.0196
     10 C         -25.3360    0.6840   33.5440 C.3     1  UNL1        0.0203
     11 C         -24.8290   -0.7150   33.9050 C.3     1  UNL1        0.0887
     12 N         -24.7580   -1.4810   32.6460 N.3     1  UNL1       -0.2187
     13 C         -25.6880    1.6140   26.4610 C.3     1  UNL1        0.1079
     14 C         -26.2500    2.9200   26.3950 C.2     1  UNL1        0.0602
     15 C         -25.6420    4.0930   27.1230 C.2     1  UNL1        0.2628
     16 N         -25.6140    5.2520   26.4490 N.am    1  UNL1       -0.2000
     17 C         -25.0260    6.4790   26.9630 C.3     1  UNL1        0.1388
     18 O         -25.1430    3.9660   28.2430 O.2     1  UNL1       -0.2686
     19 C         -27.4380    3.0910   25.6450 C.2     1  UNL1        0.1025
     20 N         -28.0750    2.0890   25.0030 N.2     1  UNL1       -0.2118
     21 C         -27.5430    0.8490   25.0790 C.2     1  UNL1        0.2345
     22 O         -28.1930   -0.2080   24.4770 O.2     1  UNL1       -0.4585
     23 C         -29.4600    0.0050   23.8660 C.3     1  UNL1        0.2423
     24 C         -30.0650   -1.3770   23.5730 C.3     1  UNL1        0.2292
     25 O         -30.7290   -1.8780   24.7210 O.3     1  UNL1       -0.2162
     26 C         -26.3540    0.5760   25.7770 C.3     1  UNL1        0.2453
     27 F         -25.8600   -0.6810   25.7950 F       1  UNL1       -0.2265
     28 C         -22.2583    2.3839   24.4073 C.2     1  UNL1        0.3024
     29 C         -23.0622    0.5855   28.6991 C.2     1  UNL1       -0.0006
     30 O         -26.8248   -0.7704   28.5901 O.2     1  UNL1       -0.2927
     31 O         -21.2364    2.4015   25.3178 O.2     1  UNL1       -0.4161
     32 C         -21.8542    1.9492   26.3963 C.2     1  UNL1        0.2195
     33 C         -25.3613    0.8574   28.7522 C.3     1  UNL1        0.2322
     34 C         -21.1437    1.6807   27.7083 C.2     1  UNL1        0.0290
     35 N         -23.4951    2.1799   24.9231 N.2     1  UNL1       -0.1293
     36 N         -23.2467    1.8606   26.1143 N.pl3   1  UNL1       -0.1596
     37 C         -21.7971    0.9488   28.7553 C.2     1  UNL1       -0.0001
     38 C         -19.7887    2.1139   27.8756 C.3     1  UNL1        0.0309
     39 O         -25.6967    1.8764   29.5060 O.3     1  UNL1       -0.2102
     40 C         -18.6541    2.0991   26.9127 C.3     1  UNL1        0.0052
     41 C         -24.3241    1.4613   26.8460 C.2     1  UNL1        0.0606
     42 C         -24.2007    0.8973   28.1607 C.2     1  UNL1        0.0267
     43 C         -25.7463   -0.3208   29.1144 C.2     1  UNL1        0.1900
@<TRIPOS>BOND
     1     1    43    1
     2     2     7    1
     3     2     1    1
     4     3     2    2
     5     4     3    1
     6     4     5    2
     7     5     6    1
     8     6     7    2
     9     8     1    1
    10     8     9    1
    11     8    12    1
    12     9    10    1
    13    10    11    1
    14    12    11    1
    15    13    41    1
    16    14    13    1
    17    14    15    1
    18    15    18    2
    19    16    17    1
    20    16    15    1
    21    19    14    2
    22    20    21    2
    23    20    19    1
    24    21    26    1
    25    22    21    1
    26    23    22    1
    27    24    23    1
    28    24    25    1
    29    26    27    1
    30    26    13    1
    31    28    35    2
    32    28    31    1
    33    29    37    2
    34    30    43    2
    35    31    32    1
    36    32    34    2
    37    33    43    1
    38    33    39    1
    39    34    38    1
    40    34    37    1
    41    35    36    1
    42    36    32    1
    43    36    41    1
    44    40    38    1
    45    41    42    2
    46    42    29    1
    47    42    33    1
