@<TRIPOS>MOLECULE
No_1342-gen_results/8p0m/2024-11-27-11-27-31/
 23 25 0 0 0
SMALL
GASTEIGER

@<TRIPOS>ATOM
      1 CL        -28.1493   -0.8198   28.9079 Cl      1  UNL1       -0.1003
      2 C         -27.8339    0.4961   29.0598 C.3     1  UNL1        0.1793
      3 C         -27.6022    1.0128   30.2974 C.ar    1  UNL1        0.0165
      4 C         -27.7182    0.1626   31.4900 C.ar    1  UNL1       -0.0011
      5 C         -27.5116    0.5962   32.7770 C.ar    1  UNL1        0.0064
      6 C         -27.0754    1.9448   32.9969 C.ar    1  UNL1        0.0810
      7 C         -26.7752    2.5217   34.2650 C.2     1  UNL1        0.3878
      8 C         -26.7794    2.7762   31.8368 C.ar    1  UNL1        0.0228
      9 C         -27.0604    2.2622   30.5736 C.ar    1  UNL1        0.0683
     10 C         -28.8437    1.5147   28.3240 C.2     1  UNL1        0.2450
     11 O         -26.9158    1.7948   35.1869 O.co2   1  UNL1       -0.2406
     12 O         -26.4533    3.7369   34.3567 O.co2   1  UNL1       -0.2406
     13 N         -28.3507    2.3590   27.8684 N.am    1  UNL1       -0.2724
     14 C         -27.0378    2.5640   27.8247 C.3     1  UNL1        0.1215
     15 C         -26.1180    1.6853   27.9575 C.ar    1  UNL1        0.0129
     16 C         -25.6040    0.7772   27.2789 C.ar    1  UNL1       -0.0013
     17 C         -24.5575   -0.1240   27.6384 C.ar    1  UNL1       -0.0002
     18 C         -24.0312    0.0027   28.9035 C.ar    1  UNL1        0.0013
     19 C         -24.2329    1.1194   29.6619 C.ar    1  UNL1        0.0162
     20 C         -25.2648    1.9137   29.3500 C.ar    1  UNL1        0.0681
     21 N         -25.6239    2.5274   30.0041 N.pl3   1  UNL1       -0.2130
     22 C         -29.2315    3.4050   27.1316 C.3     1  UNL1        0.1152
     23 O         -30.0375    1.3107   28.6823 O.2     1  UNL1       -0.2732
@<TRIPOS>BOND
     1     1     2    1
     2     6     7    1
     3     2    10    1
     4     7    11   ar
     5     7    12   ar
     6    10    13   am
     7    13    14    1
     8     9    21    1
     9    20    21    1
    10    13    22    1
    11    10    23    2
    12     2     3    1
    13    14    15    1
    14     3     4   ar
    15     4     5   ar
    16     5     6   ar
    17     6     8   ar
    18     8     9   ar
    19     9     3   ar
    20    15    16   ar
    21    16    17   ar
    22    17    18   ar
    23    18    19   ar
    24    19    20   ar
    25    20    15   ar
