@<TRIPOS>MOLECULE
outputs/IAG933/test6/raw/output_1343_IAG933_linker_design_.xyz
 41 44 0 0 0
SMALL
GASTEIGER

@<TRIPOS>ATOM
      1 C         -24.8550   -1.0120   30.1430 C.3     1  UNL1        0.1532
      2 C         -24.9730   -2.5050   29.7880 C.2     1  UNL1        0.0004
      3 C         -23.9060   -3.1730   29.1460 C.2     1  UNL1       -0.0025
      4 C         -23.9890   -4.5490   28.8530 C.2     1  UNL1       -0.0003
      5 C         -25.1370   -5.2800   29.2050 C.2     1  UNL1       -0.0000
      6 C         -26.2320   -4.6110   29.7840 C.2     1  UNL1       -0.0003
      7 C         -26.1550   -3.2320   30.0650 C.2     1  UNL1       -0.0025
      8 C         -25.3870   -0.6790   31.5710 C.3     1  UNL1        0.0986
      9 C         -25.1890    0.7730   32.0280 C.3     1  UNL1        0.0210
     10 C         -25.3360    0.6840   33.5440 C.3     1  UNL1        0.0203
     11 C         -24.8290   -0.7150   33.9050 C.3     1  UNL1        0.0888
     12 N         -24.7580   -1.4810   32.6460 N.3     1  UNL1       -0.2173
     13 C         -25.6880    1.6140   26.4610 C.2     1  UNL1        0.0286
     14 C         -26.2500    2.9200   26.3950 C.2     1  UNL1        0.0733
     15 C         -25.6420    4.0930   27.1230 C.2     1  UNL1        0.2661
     16 N         -25.6140    5.2520   26.4490 N.am    1  UNL1       -0.1997
     17 C         -25.0260    6.4790   26.9630 C.3     1  UNL1        0.1388
     18 O         -25.1430    3.9660   28.2430 O.2     1  UNL1       -0.2683
     19 C         -27.4380    3.0910   25.6450 C.2     1  UNL1        0.1064
     20 N         -28.0750    2.0890   25.0030 N.2     1  UNL1       -0.2081
     21 C         -27.5430    0.8490   25.0790 C.2     1  UNL1        0.2530
     22 O         -28.1930   -0.2080   24.4770 O.2     1  UNL1       -0.4558
     23 C         -29.4600    0.0050   23.8660 C.3     1  UNL1        0.2426
     24 C         -30.0650   -1.3770   23.5730 C.3     1  UNL1        0.2292
     25 O         -30.7290   -1.8780   24.7210 O.3     1  UNL1       -0.2162
     26 C         -26.3540    0.5760   25.7770 C.2     1  UNL1        0.1899
     27 F         -25.8600   -0.6810   25.7950 F       1  UNL1       -0.1996
     28 C         -24.5250    1.2036   27.2271 C.3     1  UNL1        0.1312
     29 O         -19.7681    0.1424   28.3624 O.2     1  UNL1       -0.2829
     30 O         -26.4269    0.6551   28.6993 O.2     1  UNL1       -0.2712
     31 C         -22.1559    0.8763   27.8690 C.2     1  UNL1        0.1209
     32 C         -22.3199    0.4528   29.3118 C.2     1  UNL1        0.3660
     33 O         -23.3455    0.7158   30.0263 O.3     1  UNL1       -0.3386
     34 C         -22.5372    1.9622   25.9425 C.2     1  UNL1        0.2758
     35 N         -24.3853   -0.0455   29.2298 N.am    1  UNL1       -0.1147
     36 C         -23.2533    1.2505   27.1038 C.2     1  UNL1        0.0559
     37 C         -20.7682    0.5273   27.4096 C.2     1  UNL1        0.2405
     38 F         -21.3509    2.2988   25.8312 F       1  UNL1       -0.1723
     39 C         -25.1667    0.4473   28.3905 C.2     1  UNL1        0.2650
     40 F         -23.2684    2.4511   25.0092 F       1  UNL1       -0.1723
     41 O         -22.0201   -0.7814   29.7470 O.2     1  UNL1       -0.2427
@<TRIPOS>BOND
     1     1     2    1
     2     2     7    1
     3     3     2    2
     4     4     3    1
     5     4     5    2
     6     5     6    1
     7     6     7    2
     8     8     1    1
     9     8     9    1
    10     8    12    1
    11     9    10    1
    12    10    11    1
    13    12    11    1
    14    14    13    1
    15    14    15    1
    16    15    18    2
    17    16    17    1
    18    16    15    1
    19    19    14    2
    20    20    21    2
    21    20    19    1
    22    21    26    1
    23    22    21    1
    24    23    22    1
    25    24    23    1
    26    24    25    1
    27    26    27    1
    28    26    13    2
    29    28    13    1
    30    28    39    1
    31    31    32    1
    32    32    41    2
    33    32    33    1
    34    34    36    2
    35    35    33    1
    36    35     1    1
    37    36    28    1
    38    36    31    1
    39    37    31    2
    40    37    29    1
    41    38    34    1
    42    39    30    2
    43    39    35   am
    44    40    34    1
