@<TRIPOS>MOLECULE
No_1345-gen_results/8p0m/2024-11-27-11-27-31/
 13 14 0 0 0
SMALL
GASTEIGER

@<TRIPOS>ATOM
      1 C         -28.0162   -0.8135   28.8779 C.ar    1  UNL1        0.0209
      2 C         -27.0636   -0.1190   28.6079 C.ar    1  UNL1        0.1029
      3 C         -26.8756    1.1325   28.9134 C.ar    1  UNL1        0.0194
      4 C         -27.9014    1.8066   29.6436 C.ar    1  UNL1        0.0016
      5 C         -28.9449    1.0388   30.0360 C.ar    1  UNL1        0.0001
      6 C         -29.0273   -0.2890   29.7051 C.ar    1  UNL1        0.0016
      7 C         -25.6959    1.9505   28.4764 C.ar    1  UNL1        0.0016
      8 C         -25.0886    1.8635   27.5900 C.ar    1  UNL1        0.0031
      9 C         -25.1842    0.7959   26.6238 C.ar    1  UNL1        0.0394
     10 C         -25.9484   -0.3175   26.9219 C.ar    1  UNL1        0.1910
     11 N         -26.4978   -1.4488   26.9255 N.ar    1  UNL1       -0.1296
     12 N         -26.6410   -0.3767   28.1826 N.ar    1  UNL1       -0.1467
     13 N         -25.5236   -0.4349   25.5771 N.pl3   1  UNL1       -0.1053
@<TRIPOS>BOND
     1     3     7   ar
     2     7     8   ar
     3     8     9   ar
     4     9    10   ar
     5    10    11   ar
     6     2    12   ar
     7    11    12   ar
     8    10    13    1
     9     1     2   ar
    10     2     3   ar
    11     3     4   ar
    12     4     5   ar
    13     5     6   ar
    14     6     1   ar
