@<TRIPOS>MOLECULE
outputs/IAG933/test6/raw/output_1346_IAG933_linker_design_.xyz
 41 45 0 0 0
SMALL
GASTEIGER

@<TRIPOS>ATOM
      1 C         -24.8550   -1.0120   30.1430 C.3     1  UNL1        0.1152
      2 C         -24.9730   -2.5050   29.7880 C.2     1  UNL1       -0.0029
      3 C         -23.9060   -3.1730   29.1460 C.2     1  UNL1       -0.0026
      4 C         -23.9890   -4.5490   28.8530 C.2     1  UNL1       -0.0003
      5 C         -25.1370   -5.2800   29.2050 C.2     1  UNL1       -0.0000
      6 C         -26.2320   -4.6110   29.7840 C.2     1  UNL1       -0.0003
      7 C         -26.1550   -3.2320   30.0650 C.2     1  UNL1       -0.0026
      8 C         -25.3870   -0.6790   31.5710 C.3     1  UNL1        0.0952
      9 C         -25.1890    0.7730   32.0280 C.3     1  UNL1        0.0209
     10 C         -25.3360    0.6840   33.5440 C.3     1  UNL1        0.0203
     11 C         -24.8290   -0.7150   33.9050 C.3     1  UNL1        0.0888
     12 N         -24.7580   -1.4810   32.6460 N.3     1  UNL1       -0.2174
     13 C         -25.6880    1.6140   26.4610 C.2     1  UNL1        0.0946
     14 C         -26.2500    2.9200   26.3950 C.2     1  UNL1        0.0903
     15 C         -25.6420    4.0930   27.1230 C.2     1  UNL1        0.2676
     16 N         -25.6140    5.2520   26.4490 N.am    1  UNL1       -0.1997
     17 C         -25.0260    6.4790   26.9630 C.3     1  UNL1        0.1388
     18 O         -25.1430    3.9660   28.2430 O.2     1  UNL1       -0.2683
     19 C         -27.4380    3.0910   25.6450 C.2     1  UNL1        0.1080
     20 N         -28.0750    2.0890   25.0030 N.2     1  UNL1       -0.2080
     21 C         -27.5430    0.8490   25.0790 C.2     1  UNL1        0.2546
     22 O         -28.1930   -0.2080   24.4770 O.2     1  UNL1       -0.4558
     23 C         -29.4600    0.0050   23.8660 C.3     1  UNL1        0.2426
     24 C         -30.0650   -1.3770   23.5730 C.3     1  UNL1        0.2292
     25 O         -30.7290   -1.8780   24.7210 O.3     1  UNL1       -0.2162
     26 C         -26.3540    0.5760   25.7770 C.2     1  UNL1        0.2067
     27 F         -25.8600   -0.6810   25.7950 F       1  UNL1       -0.1979
     28 N         -23.5784    1.9124   25.4245 N.3     1  UNL1       -0.1672
     29 N         -23.9304   -0.1927   29.4131 N.am    1  UNL1       -0.2617
     30 C         -24.3398    1.0111   28.8844 C.2     1  UNL1        0.3122
     31 N         -24.6264    1.2948   27.4262 N.am    1  UNL1       -0.2249
     32 C         -22.1795    1.4429   27.2641 C.3     1  UNL1        0.1564
     33 C         -21.4130   -1.1288   29.3727 C.3     1  UNL1        0.0218
     34 C         -20.6128    0.9364   28.4373 C.3     1  UNL1        0.1973
     35 F         -19.6935    1.8359   28.0548 F       1  UNL1       -0.2342
     36 C         -23.4917    1.4883   26.6523 C.3     1  UNL1        0.1847
     37 C         -21.7365    0.9841   28.6214 C.3     1  UNL1        0.0840
     38 C         -22.4355   -0.2251   29.6072 C.3     1  UNL1        0.0823
     39 O         -24.0926    2.0231   29.6829 O.2     1  UNL1       -0.2520
     40 C         -22.4838    2.6037   25.2715 C.3     1  UNL1        0.2361
     41 O         -21.5370    2.1766   26.5004 O.3     1  UNL1       -0.3355
@<TRIPOS>BOND
     1     1     2    1
     2     2     7    1
     3     3     2    2
     4     4     3    1
     5     4     5    2
     6     5     6    1
     7     6     7    2
     8     8     1    1
     9     8     9    1
    10     8    12    1
    11     9    10    1
    12    10    11    1
    13    12    11    1
    14    13    31    1
    15    14    13    1
    16    14    15    1
    17    15    18    2
    18    16    17    1
    19    16    15    1
    20    19    14    2
    21    20    21    2
    22    20    19    1
    23    21    26    1
    24    22    21    1
    25    23    22    1
    26    24    23    1
    27    24    25    1
    28    26    27    1
    29    26    13    2
    30    29    38    1
    31    29     1    1
    32    30    29   am
    33    30    39    2
    34    31    30   am
    35    32    41    1
    36    32    37    1
    37    35    34    1
    38    36    28    1
    39    36    32    1
    40    36    31    1
    41    37    34    1
    42    37    38    1
    43    38    33    1
    44    40    28    1
    45    40    41    1
