@<TRIPOS>MOLECULE
No_1347-gen_results/8p0m/2024-11-27-11-27-31/
 14 15 0 0 0
SMALL
GASTEIGER

@<TRIPOS>ATOM
      1 C         -28.0162   -0.8135   28.8779 C.ar    1  UNL1        0.0045
      2 C         -28.4690   -0.7850   29.8287 C.ar    1  UNL1        0.0001
      3 C         -27.1356    0.2359   28.5352 C.ar    1  UNL1        0.0536
      4 C         -26.3351    0.2900   27.2835 C.2     1  UNL1        0.2490
      5 C         -28.3692    0.1957   30.9236 C.ar    1  UNL1        0.0000
      6 C         -27.5158    1.2655   30.6540 C.ar    1  UNL1        0.0001
      7 C         -26.8411    1.2942   29.4761 C.ar    1  UNL1        0.0045
      8 N         -25.8079    1.4528   26.9401 N.am    1  UNL1       -0.2761
      9 C         -24.4626    1.4551   26.5479 C.3     1  UNL1        0.0937
     10 C         -23.8953    2.8380   26.3523 C.3     1  UNL1        0.0216
     11 C         -26.5710    2.5663   26.7158 C.3     1  UNL1        0.0937
     12 C         -26.0108    3.8743   26.6278 C.3     1  UNL1        0.0216
     13 C         -24.6180    3.9562   26.2724 C.3     1  UNL1        0.0035
     14 O         -26.1849   -0.7069   26.5518 O.2     1  UNL1       -0.2699
@<TRIPOS>BOND
     1     3     4    1
     2     4     8   am
     3     8     9    1
     4     8    11    1
     5    10    13    1
     6    12    13    1
     7     4    14    2
     8     9    10    1
     9    12    11    1
    10     1     2   ar
    11     2     5   ar
    12     5     6   ar
    13     6     7   ar
    14     7     3   ar
    15     3     1   ar
