@<TRIPOS>MOLECULE
outputs/IAG933/test6/raw/output_1349_IAG933_linker_design_.xyz
 47 51 0 0 0
SMALL
GASTEIGER

@<TRIPOS>ATOM
      1 C         -24.8550   -1.0120   30.1430 C.3     1  UNL1        0.0388
      2 C         -24.9730   -2.5050   29.7880 C.2     1  UNL1       -0.0211
      3 C         -23.9060   -3.1730   29.1460 C.2     1  UNL1       -0.0042
      4 C         -23.9890   -4.5490   28.8530 C.2     1  UNL1       -0.0003
      5 C         -25.1370   -5.2800   29.2050 C.2     1  UNL1       -0.0000
      6 C         -26.2320   -4.6110   29.7840 C.2     1  UNL1       -0.0003
      7 C         -26.1550   -3.2320   30.0650 C.2     1  UNL1       -0.0042
      8 C         -25.3870   -0.6790   31.5710 C.3     1  UNL1        0.0768
      9 C         -25.1890    0.7730   32.0280 C.3     1  UNL1        0.0192
     10 C         -25.3360    0.6840   33.5440 C.3     1  UNL1        0.0202
     11 C         -24.8290   -0.7150   33.9050 C.3     1  UNL1        0.0887
     12 N         -24.7580   -1.4810   32.6460 N.3     1  UNL1       -0.2191
     13 C         -25.6880    1.6140   26.4610 C.2     1  UNL1        0.0163
     14 C         -26.2500    2.9200   26.3950 C.2     1  UNL1        0.0726
     15 C         -25.6420    4.0930   27.1230 C.2     1  UNL1        0.2661
     16 N         -25.6140    5.2520   26.4490 N.am    1  UNL1       -0.1997
     17 C         -25.0260    6.4790   26.9630 C.3     1  UNL1        0.1388
     18 O         -25.1430    3.9660   28.2430 O.2     1  UNL1       -0.2683
     19 C         -27.4380    3.0910   25.6450 C.2     1  UNL1        0.1064
     20 N         -28.0750    2.0890   25.0030 N.2     1  UNL1       -0.2081
     21 C         -27.5430    0.8490   25.0790 C.2     1  UNL1        0.2530
     22 O         -28.1930   -0.2080   24.4770 O.2     1  UNL1       -0.4558
     23 C         -29.4600    0.0050   23.8660 C.3     1  UNL1        0.2426
     24 C         -30.0650   -1.3770   23.5730 C.3     1  UNL1        0.2292
     25 O         -30.7290   -1.8780   24.7210 O.3     1  UNL1       -0.2162
     26 C         -26.3540    0.5760   25.7770 C.2     1  UNL1        0.1891
     27 F         -25.8600   -0.6810   25.7950 F       1  UNL1       -0.1996
     28 O         -31.3679   -3.3759   27.5622 O.2     1  UNL1       -0.2835
     29 C         -22.8913    0.6647   28.7190 C.2     1  UNL1        0.2152
     30 C         -21.2007    1.7772   27.1027 C.1     1  UNL1       -0.0063
     31 C         -28.5050   -0.6834   29.1706 C.3     1  UNL1        0.0049
     32 C         -28.2276    0.5908   29.0594 C.3     1  UNL1        0.0074
     33 C         -27.0924   -0.1833   28.6491 C.3     1  UNL1        0.0016
     34 C         -29.2141    1.4949   29.6268 C.3     1  UNL1        0.0569
     35 C         -24.5863    1.3276   27.0735 C.3     1  UNL1        0.0374
     36 C         -24.4026    0.7943   28.2939 C.3     1  UNL1        0.0749
     37 C         -25.3990   -0.0958   29.0087 C.3     1  UNL1        0.0137
     38 C         -30.9321   -1.0710   28.3760 C.2     1  UNL1        0.0226
     39 C         -32.4671    3.0316   29.3398 C.3     1  UNL1        0.2520
     40 C         -31.7978   -1.9557   27.8586 C.2     1  UNL1        0.2300
     41 C         -29.5802   -1.3871   28.6498 C.3     1  UNL1        0.0298
     42 C         -30.5056    1.4257   29.1405 C.2     1  UNL1        0.1155
     43 O         -31.1259    2.6775   29.0177 O.2     1  UNL1       -0.4757
     44 C         -31.2728    0.3066   28.6491 C.2     1  UNL1        0.0313
     45 C         -22.0690    1.2277   27.8862 C.1     1  UNL1       -0.0141
     46 O         -22.4808    0.0176   29.7272 O.2     1  UNL1       -0.2823
     47 C         -28.8242    2.4826   30.8051 C.3     1  UNL1        0.0079
@<TRIPOS>BOND
     1     1    37    1
     2     2     7    1
     3     2     1    1
     4     3     2    2
     5     4     3    1
     6     4     5    2
     7     5     6    1
     8     6     7    2
     9     8     1    1
    10     8     9    1
    11     8    12    1
    12     9    10    1
    13    10    11    1
    14    12    11    1
    15    13    35    1
    16    14    13    1
    17    14    15    1
    18    15    18    2
    19    16    17    1
    20    16    15    1
    21    19    14    2
    22    20    21    2
    23    20    19    1
    24    21    26    1
    25    22    21    1
    26    23    22    1
    27    24    23    1
    28    24    25    1
    29    26    27    1
    30    26    13    2
    31    28    40    1
    32    29    46    2
    33    30    45    3
    34    31    41    1
    35    32    31    1
    36    32    34    1
    37    33    37    1
    38    33    32    1
    39    33    31    1
    40    34    47    1
    41    35    36    1
    42    36    29    1
    43    36    37    1
    44    38    44    1
    45    38    41    1
    46    40    38    2
    47    42    34    1
    48    43    42    1
    49    43    39    1
    50    44    42    2
    51    45    29    1
