@<TRIPOS>MOLECULE
outputs/IAG933/test6/raw/output_1352_IAG933_linker_design_.xyz
 42 46 0 0 0
SMALL
GASTEIGER

@<TRIPOS>ATOM
      1 C         -24.8550   -1.0120   30.1430 C.3     1  UNL1        0.2036
      2 C         -24.9730   -2.5050   29.7880 C.2     1  UNL1        0.0217
      3 C         -23.9060   -3.1730   29.1460 C.2     1  UNL1       -0.0004
      4 C         -23.9890   -4.5490   28.8530 C.2     1  UNL1       -0.0002
      5 C         -25.1370   -5.2800   29.2050 C.2     1  UNL1       -0.0000
      6 C         -26.2320   -4.6110   29.7840 C.2     1  UNL1       -0.0002
      7 C         -26.1550   -3.2320   30.0650 C.2     1  UNL1       -0.0004
      8 C         -25.3870   -0.6790   31.5710 C.3     1  UNL1        0.1201
      9 C         -25.1890    0.7730   32.0280 C.3     1  UNL1        0.0233
     10 C         -25.3360    0.6840   33.5440 C.3     1  UNL1        0.0204
     11 C         -24.8290   -0.7150   33.9050 C.3     1  UNL1        0.0889
     12 N         -24.7580   -1.4810   32.6460 N.3     1  UNL1       -0.2150
     13 C         -25.6880    1.6140   26.4610 C.3     1  UNL1        0.2353
     14 C         -26.2500    2.9200   26.3950 C.2     1  UNL1        0.0977
     15 C         -25.6420    4.0930   27.1230 C.2     1  UNL1        0.2662
     16 N         -25.6140    5.2520   26.4490 N.am    1  UNL1       -0.1999
     17 C         -25.0260    6.4790   26.9630 C.3     1  UNL1        0.1388
     18 O         -25.1430    3.9660   28.2430 O.2     1  UNL1       -0.2685
     19 C         -27.4380    3.0910   25.6450 C.2     1  UNL1        0.1061
     20 N         -28.0750    2.0890   25.0030 N.2     1  UNL1       -0.2116
     21 C         -27.5430    0.8490   25.0790 C.2     1  UNL1        0.2384
     22 O         -28.1930   -0.2080   24.4770 O.2     1  UNL1       -0.4584
     23 C         -29.4600    0.0050   23.8660 C.3     1  UNL1        0.2423
     24 C         -30.0650   -1.3770   23.5730 C.3     1  UNL1        0.2292
     25 O         -30.7290   -1.8780   24.7210 O.3     1  UNL1       -0.2162
     26 C         -26.3540    0.5760   25.7770 C.3     1  UNL1        0.2828
     27 F         -25.8600   -0.6810   25.7950 F       1  UNL1       -0.2224
     28 N         -24.8606    1.3180   27.5165 N.pl3   1  UNL1       -0.1589
     29 O         -30.5326    0.0240   29.1470 O.3     1  UNL1       -0.2145
     30 C         -21.0380    0.0469   28.7938 C.2     1  UNL1        0.0367
     31 C         -28.3864    1.1214   29.2994 C.2     1  UNL1        0.0576
     32 F         -19.8855    1.6634   27.5886 F       1  UNL1       -0.2007
     33 C         -25.6866    0.8774   28.6744 C.2     1  UNL1        0.3176
     34 C         -23.5034    0.1559   28.7075 C.2     1  UNL1        0.1797
     35 C         -21.0609    1.0772   27.8128 C.2     1  UNL1        0.1825
     36 C         -26.8790    1.1823   29.0886 C.1     1  UNL1       -0.0212
     37 N         -24.7365   -0.0568   29.1098 N.pl3   1  UNL1       -0.1636
     38 C         -22.3204   -0.3451   29.3416 C.2     1  UNL1        0.0464
     39 C         -22.1827    1.4081   27.1375 C.2     1  UNL1        0.2628
     40 C         -29.2325   -0.0453   28.5948 C.3     1  UNL1        0.2167
     41 C         -23.5612    0.9936   27.6260 C.2     1  UNL1        0.2178
     42 O         -22.1189    2.1391   26.0333 O.2     1  UNL1       -0.2804
@<TRIPOS>BOND
     1     1     2    1
     2     2     7    1
     3     3     2    2
     4     4     3    1
     5     4     5    2
     6     5     6    1
     7     6     7    2
     8     8     1    1
     9     8     9    1
    10     8    12    1
    11     9    10    1
    12    10    11    1
    13    12    11    1
    14    13    28    1
    15    14    13    1
    16    14    15    1
    17    15    18    2
    18    16    17    1
    19    16    15    1
    20    19    14    2
    21    20    21    2
    22    20    19    1
    23    21    26    1
    24    22    21    1
    25    23    22    1
    26    24    23    1
    27    24    25    1
    28    26    27    1
    29    26    13    1
    30    28    41    1
    31    28    33    1
    32    30    38    1
    33    32    35    1
    34    33    36    2
    35    33    37    1
    36    34    37    1
    37    34    38    2
    38    35    30    2
    39    36    31    2
    40    37     1    1
    41    39    41    2
    42    39    35    1
    43    40    29    1
    44    40    31    1
    45    41    34    1
    46    42    39    1
