@<TRIPOS>MOLECULE
outputs/IAG933/test6/raw/output_1353_IAG933_linker_design_.xyz
 43 46 0 0 0
SMALL
GASTEIGER

@<TRIPOS>ATOM
      1 C         -24.8550   -1.0120   30.1430 C.3     1  UNL1        0.1311
      2 C         -24.9730   -2.5050   29.7880 C.2     1  UNL1       -0.0039
      3 C         -23.9060   -3.1730   29.1460 C.2     1  UNL1       -0.0028
      4 C         -23.9890   -4.5490   28.8530 C.2     1  UNL1       -0.0003
      5 C         -25.1370   -5.2800   29.2050 C.2     1  UNL1       -0.0000
      6 C         -26.2320   -4.6110   29.7840 C.2     1  UNL1       -0.0003
      7 C         -26.1550   -3.2320   30.0650 C.2     1  UNL1       -0.0028
      8 C         -25.3870   -0.6790   31.5710 C.3     1  UNL1        0.0941
      9 C         -25.1890    0.7730   32.0280 C.3     1  UNL1        0.0207
     10 C         -25.3360    0.6840   33.5440 C.3     1  UNL1        0.0203
     11 C         -24.8290   -0.7150   33.9050 C.3     1  UNL1        0.0888
     12 N         -24.7580   -1.4810   32.6460 N.3     1  UNL1       -0.2177
     13 C         -25.6880    1.6140   26.4610 C.2     1  UNL1        0.0259
     14 C         -26.2500    2.9200   26.3950 C.2     1  UNL1        0.0729
     15 C         -25.6420    4.0930   27.1230 C.2     1  UNL1        0.2661
     16 N         -25.6140    5.2520   26.4490 N.am    1  UNL1       -0.1997
     17 C         -25.0260    6.4790   26.9630 C.3     1  UNL1        0.1388
     18 O         -25.1430    3.9660   28.2430 O.2     1  UNL1       -0.2683
     19 C         -27.4380    3.0910   25.6450 C.2     1  UNL1        0.1064
     20 N         -28.0750    2.0890   25.0030 N.2     1  UNL1       -0.2081
     21 C         -27.5430    0.8490   25.0790 C.2     1  UNL1        0.2530
     22 O         -28.1930   -0.2080   24.4770 O.2     1  UNL1       -0.4558
     23 C         -29.4600    0.0050   23.8660 C.3     1  UNL1        0.2426
     24 C         -30.0650   -1.3770   23.5730 C.3     1  UNL1        0.2292
     25 O         -30.7290   -1.8780   24.7210 O.3     1  UNL1       -0.2162
     26 C         -26.3540    0.5760   25.7770 C.2     1  UNL1        0.1894
     27 F         -25.8600   -0.6810   25.7950 F       1  UNL1       -0.1996
     28 C         -23.3809    1.5864   26.1765 C.3     1  UNL1        0.2100
     29 O         -22.1176   -0.2461   30.5313 O.3     1  UNL1       -0.2153
     30 C         -24.3734    0.7873   28.4017 C.3     1  UNL1        0.3427
     31 C         -19.9949    0.3485   28.2655 C.3     1  UNL1        0.2208
     32 C         -21.2422   -0.0645   28.4678 C.2     1  UNL1        0.0560
     33 C         -24.5432    1.3346   27.0987 C.3     1  UNL1        0.1455
     34 N         -25.2549   -0.0380   29.0921 N.3     1  UNL1       -0.0695
     35 O         -24.1901    1.7816   29.3283 O.3     1  UNL1       -0.1625
     36 F         -19.8346    1.7538   27.9282 F       1  UNL1       -0.2293
     37 C         -22.1397    1.4594   26.6280 C.3     1  UNL1        0.2403
     38 F         -23.4987    1.6826   24.8239 F       1  UNL1       -0.2334
     39 O         -26.6304   -0.0433   28.7571 O.3     1  UNL1       -0.1125
     40 O         -23.4216   -0.2016   27.8032 O.2     1  UNL1       -0.4445
     41 O         -21.0851    1.8417   25.8964 O.3     1  UNL1       -0.2120
     42 C         -22.2113    0.4204   27.5812 C.2     1  UNL1        0.1502
     43 C         -21.5987   -0.8187   29.4508 C.3     1  UNL1        0.2098
@<TRIPOS>BOND
     1     1    34    1
     2     2     7    1
     3     2     1    1
     4     3     2    2
     5     4     3    1
     6     4     5    2
     7     5     6    1
     8     6     7    2
     9     8     1    1
    10     8     9    1
    11     8    12    1
    12     9    10    1
    13    10    11    1
    14    12    11    1
    15    14    13    1
    16    14    15    1
    17    15    18    2
    18    16    17    1
    19    16    15    1
    20    19    14    2
    21    20    21    2
    22    20    19    1
    23    21    26    1
    24    22    21    1
    25    23    22    1
    26    24    23    1
    27    24    25    1
    28    26    27    1
    29    26    13    2
    30    28    38    1
    31    28    37    1
    32    28    33    1
    33    30    34    1
    34    30    35    1
    35    31    32    1
    36    32    43    1
    37    33    13    1
    38    33    30    1
    39    36    31    1
    40    37    41    1
    41    37    42    1
    42    39    34    1
    43    40    30    1
    44    42    40    1
    45    42    32    2
    46    43    29    1
