@<TRIPOS>MOLECULE
outputs/IAG933/test6/raw/output_1356_IAG933_linker_design_.xyz
 41 45 0 0 0
SMALL
GASTEIGER

@<TRIPOS>ATOM
      1 C         -24.8550   -1.0120   30.1430 C.3     1  UNL1        0.1167
      2 C         -24.9730   -2.5050   29.7880 C.2     1  UNL1       -0.0125
      3 C         -23.9060   -3.1730   29.1460 C.2     1  UNL1       -0.0038
      4 C         -23.9890   -4.5490   28.8530 C.2     1  UNL1       -0.0003
      5 C         -25.1370   -5.2800   29.2050 C.2     1  UNL1       -0.0000
      6 C         -26.2320   -4.6110   29.7840 C.2     1  UNL1       -0.0003
      7 C         -26.1550   -3.2320   30.0650 C.2     1  UNL1       -0.0038
      8 C         -25.3870   -0.6790   31.5710 C.3     1  UNL1        0.0855
      9 C         -25.1890    0.7730   32.0280 C.3     1  UNL1        0.0197
     10 C         -25.3360    0.6840   33.5440 C.3     1  UNL1        0.0203
     11 C         -24.8290   -0.7150   33.9050 C.3     1  UNL1        0.0887
     12 N         -24.7580   -1.4810   32.6460 N.3     1  UNL1       -0.2186
     13 C         -25.6880    1.6140   26.4610 C.3     1  UNL1        0.1078
     14 C         -26.2500    2.9200   26.3950 C.2     1  UNL1        0.0602
     15 C         -25.6420    4.0930   27.1230 C.2     1  UNL1        0.2628
     16 N         -25.6140    5.2520   26.4490 N.am    1  UNL1       -0.2000
     17 C         -25.0260    6.4790   26.9630 C.3     1  UNL1        0.1388
     18 O         -25.1430    3.9660   28.2430 O.2     1  UNL1       -0.2686
     19 C         -27.4380    3.0910   25.6450 C.2     1  UNL1        0.1025
     20 N         -28.0750    2.0890   25.0030 N.2     1  UNL1       -0.2118
     21 C         -27.5430    0.8490   25.0790 C.2     1  UNL1        0.2345
     22 O         -28.1930   -0.2080   24.4770 O.2     1  UNL1       -0.4585
     23 C         -29.4600    0.0050   23.8660 C.3     1  UNL1        0.2423
     24 C         -30.0650   -1.3770   23.5730 C.3     1  UNL1        0.2292
     25 O         -30.7290   -1.8780   24.7210 O.3     1  UNL1       -0.2162
     26 C         -26.3540    0.5760   25.7770 C.3     1  UNL1        0.2453
     27 F         -25.8600   -0.6810   25.7950 F       1  UNL1       -0.2265
     28 C         -20.8816   -0.2526   28.6621 C.3     1  UNL1        0.1412
     29 C         -23.3819    1.9805   25.7729 C.2     1  UNL1        0.3319
     30 N         -21.4381    1.9451   28.0880 N.3     1  UNL1       -0.0805
     31 O         -20.3993    1.1254   28.6174 O.3     1  UNL1       -0.2685
     32 N         -25.1808    0.8112   28.6411 N.am    1  UNL1       -0.1830
     33 O         -23.3544    1.5687   24.6171 O.2     1  UNL1       -0.2544
     34 C         -24.7790    1.2596   27.3896 C.2     1  UNL1        0.0609
     35 C         -25.7176   -0.2494   29.1684 C.2     1  UNL1        0.2503
     36 O         -26.7888   -0.5880   28.7584 O.2     1  UNL1       -0.2726
     37 C         -21.9191   -0.5810   29.8040 C.3     1  UNL1        0.0361
     38 F         -23.1765    3.3039   25.9020 F       1  UNL1       -0.1589
     39 C         -22.3800   -0.0209   28.5223 C.3     1  UNL1        0.0547
     40 C         -22.4258    1.1705   27.8659 C.3     1  UNL1        0.1339
     41 C         -23.4631    1.4379   26.9612 C.2     1  UNL1        0.0755
@<TRIPOS>BOND
     1     1    35    1
     2     2     7    1
     3     2     1    1
     4     3     2    2
     5     4     3    1
     6     4     5    2
     7     5     6    1
     8     6     7    2
     9     8     1    1
    10     8     9    1
    11     8    12    1
    12     9    10    1
    13    10    11    1
    14    12    11    1
    15    13    34    1
    16    14    13    1
    17    14    15    1
    18    15    18    2
    19    16    17    1
    20    16    15    1
    21    19    14    2
    22    20    21    2
    23    20    19    1
    24    21    26    1
    25    22    21    1
    26    23    22    1
    27    24    23    1
    28    24    25    1
    29    26    27    1
    30    26    13    1
    31    28    37    1
    32    29    38    1
    33    29    41    1
    34    30    31    1
    35    31    28    1
    36    32    35    1
    37    33    29    2
    38    34    32    1
    39    36    35    2
    40    39    28    1
    41    39    37    1
    42    40    41    1
    43    40    30    1
    44    40    39    1
    45    41    34    2
