@<TRIPOS>MOLECULE
No_1357-gen_results/8p0m/2024-11-27-11-27-31/
 8 8 0 0 0
SMALL
GASTEIGER

@<TRIPOS>ATOM
      1 C         -28.0162   -0.8135   28.8779 C.ar    1  UNL1        0.0305
      2 C         -27.0636   -0.1190   28.6079 C.ar    1  UNL1        0.0137
      3 C         -25.7647   -0.3897   29.0360 C.ar    1  UNL1        0.0578
      4 C         -25.5296   -1.5302   29.9014 C.ar    1  UNL1        0.0137
      5 C         -26.6577   -2.2915   30.2035 C.ar    1  UNL1        0.0305
      6 C         -27.8548   -1.9555   29.7630 C.ar    1  UNL1        0.1402
      7 CL        -24.3799    0.5589   28.6862 Cl      1  UNL1       -0.0822
      8 F         -28.9004   -2.7398   30.0868 F       1  UNL1       -0.2042
@<TRIPOS>BOND
     1     3     7    1
     2     6     8    1
     3     1     2   ar
     4     2     3   ar
     5     3     4   ar
     6     4     5   ar
     7     5     6   ar
     8     6     1   ar
