@<TRIPOS>MOLECULE
outputs/IAG933/test6/raw/output_1359_IAG933_linker_design_.xyz
 59 65 0 0 0
SMALL
GASTEIGER

@<TRIPOS>ATOM
      1 C         -24.8550   -1.0120   30.1430 C.3     1  UNL1        0.0963
      2 C         -24.9730   -2.5050   29.7880 C.2     1  UNL1       -0.0064
      3 C         -23.9060   -3.1730   29.1460 C.2     1  UNL1       -0.0029
      4 C         -23.9890   -4.5490   28.8530 C.2     1  UNL1       -0.0003
      5 C         -25.1370   -5.2800   29.2050 C.2     1  UNL1       -0.0000
      6 C         -26.2320   -4.6110   29.7840 C.2     1  UNL1       -0.0003
      7 C         -26.1550   -3.2320   30.0650 C.2     1  UNL1       -0.0029
      8 C         -25.3870   -0.6790   31.5710 C.3     1  UNL1        0.0916
      9 C         -25.1890    0.7730   32.0280 C.3     1  UNL1        0.0206
     10 C         -25.3360    0.6840   33.5440 C.3     1  UNL1        0.0203
     11 C         -24.8290   -0.7150   33.9050 C.3     1  UNL1        0.0888
     12 N         -24.7580   -1.4810   32.6460 N.3     1  UNL1       -0.2178
     13 C         -25.6880    1.6140   26.4610 C.2     1  UNL1        0.0210
     14 C         -26.2500    2.9200   26.3950 C.2     1  UNL1        0.0729
     15 C         -25.6420    4.0930   27.1230 C.2     1  UNL1        0.2661
     16 N         -25.6140    5.2520   26.4490 N.am    1  UNL1       -0.1997
     17 C         -25.0260    6.4790   26.9630 C.3     1  UNL1        0.1388
     18 O         -25.1430    3.9660   28.2430 O.2     1  UNL1       -0.2683
     19 C         -27.4380    3.0910   25.6450 C.2     1  UNL1        0.1064
     20 N         -28.0750    2.0890   25.0030 N.2     1  UNL1       -0.2081
     21 C         -27.5430    0.8490   25.0790 C.2     1  UNL1        0.2530
     22 O         -28.1930   -0.2080   24.4770 O.2     1  UNL1       -0.4558
     23 C         -29.4600    0.0050   23.8660 C.3     1  UNL1        0.2426
     24 C         -30.0650   -1.3770   23.5730 C.3     1  UNL1        0.2292
     25 O         -30.7290   -1.8780   24.7210 O.3     1  UNL1       -0.2162
     26 C         -26.3540    0.5760   25.7770 C.2     1  UNL1        0.1895
     27 F         -25.8600   -0.6810   25.7950 F       1  UNL1       -0.1996
     28 C         -26.5525    0.4187   28.8333 C.3     1  UNL1        0.0181
     29 O         -32.5878    1.5005   27.8707 O.3     1  UNL1       -0.1155
     30 C         -29.3219    2.3193   31.9599 C.2     1  UNL1        0.2336
     31 C         -29.4716    2.6883   29.3968 C.2     1  UNL1        0.0075
     32 C         -30.2008    4.9306   32.4622 C.3     1  UNL1        0.0438
     33 C         -22.0092    2.0142   26.5931 C.2     1  UNL1        0.1681
     34 O         -21.3295    1.3776   27.5650 O.2     1  UNL1       -0.4712
     35 C         -34.1138    4.8812   33.6612 C.3     1  UNL1        0.0897
     36 C         -33.9874    2.3522   31.3145 C.3     1  UNL1        0.1863
     37 C         -29.4307    3.5984   28.2909 C.2     1  UNL1       -0.0019
     38 C         -32.8517    2.5988   32.3954 C.3     1  UNL1        0.1069
     39 C         -28.0777    0.5914   29.2949 C.3     1  UNL1        0.0329
     40 C         -31.5837    0.5675   30.1973 C.3     1  UNL1        0.2477
     41 C         -27.6811   -0.0177   27.9434 C.3     1  UNL1        0.0043
     42 C         -21.9517    0.7043   28.4637 C.3     1  UNL1        0.2228
     43 C         -23.4286    1.9681   26.6224 C.2     1  UNL1        0.0193
     44 C         -31.6008    4.7230   33.1368 C.3     1  UNL1        0.0769
     45 N         -32.3724    1.6618   29.3548 N.3     1  UNL1       -0.1004
     46 C         -24.9931    1.1051   28.8020 C.3     1  UNL1        0.0661
     47 C         -29.5250    3.1584   30.8034 C.2     1  UNL1        0.0366
     48 N         -32.9622    3.9164   33.2796 N.3     1  UNL1       -0.2690
     49 N         -24.0584   -0.0436   29.3979 N.3     1  UNL1       -0.2667
     50 C         -29.5201    1.1945   29.1708 C.3     1  UNL1        0.1392
     51 O         -29.1673    2.6372   33.0801 O.2     1  UNL1       -0.2832
     52 O         -34.5224    3.6290   30.9695 O.3     1  UNL1       -0.2201
     53 C         -24.5047    1.4926   27.3146 C.3     1  UNL1        0.0646
     54 C         -29.7913    4.5069   31.0594 C.2     1  UNL1       -0.0178
     55 C         -22.8465    0.3601   29.3660 C.3     1  UNL1        0.1203
     56 C         -33.7793    1.6747   29.9316 C.3     1  UNL1        0.1410
     57 O         -30.1634    0.5148   30.2613 O.3     1  UNL1       -0.3338
     58 C         -29.6731    5.4106   29.9438 C.2     1  UNL1       -0.0041
     59 C         -29.4858    4.9941   28.5848 C.2     1  UNL1       -0.0006
@<TRIPOS>BOND
     1     1     2    1
     2     2     7    1
     3     3     2    2
     4     4     3    1
     5     4     5    2
     6     5     6    1
     7     6     7    2
     8     8     1    1
     9     8     9    1
    10     8    12    1
    11     9    10    1
    12    10    11    1
    13    12    11    1
    14    14    13    1
    15    14    15    1
    16    15    18    2
    17    16    17    1
    18    16    15    1
    19    19    14    2
    20    20    21    2
    21    20    19    1
    22    21    26    1
    23    22    21    1
    24    23    22    1
    25    24    23    1
    26    24    25    1
    27    26    27    1
    28    26    13    2
    29    28    41    1
    30    28    39    1
    31    29    45    1
    32    30    51    2
    33    31    47    1
    34    32    44    1
    35    33    43    2
    36    33    34    1
    37    34    42    1
    38    36    52    1
    39    36    38    1
    40    37    59    1
    41    37    31    2
    42    38    48    1
    43    39    41    1
    44    40    57    1
    45    42    55    1
    46    43    53    1
    47    44    48    1
    48    45    56    1
    49    45    40    1
    50    46    28    1
    51    46    49    1
    52    47    54    2
    53    47    30    1
    54    48    35    1
    55    49     1    1
    56    50    39    1
    57    50    31    1
    58    50    57    1
    59    53    13    1
    60    53    46    1
    61    54    32    1
    62    55    49    1
    63    56    36    1
    64    58    54    1
    65    59    58    2
