@<TRIPOS>MOLECULE
No_136-gen_results/8p0m/2024-11-27-11-27-31/
 21 23 0 0 0
SMALL
GASTEIGER

@<TRIPOS>ATOM
      1 C         -28.0162   -0.8135   28.8779 C.ar    1  UNL1        0.1152
      2 C         -27.0636   -0.1189   28.6079 C.ar    1  UNL1        0.0211
      3 C         -26.9716    0.7139   27.5060 C.ar    1  UNL1        0.0582
      4 C         -28.1053    0.7744   26.6421 C.ar    1  UNL1        0.0190
      5 C         -29.2008    0.1044   27.0527 C.ar    1  UNL1        0.0894
      6 C         -29.2096   -0.6029   28.1853 C.ar    1  UNL1        0.1560
      7 C         -30.3702    0.2264   26.1604 C.2     1  UNL1        0.2558
      8 O         -30.3387    0.2161   24.9661 O.2     1  UNL1       -0.2695
      9 N         -31.6346    0.1197   26.7803 N.am    1  UNL1       -0.2506
     10 C         -32.7984    0.0964   25.9807 C.3     1  UNL1        0.1204
     11 C         -28.0264   -1.6624   30.1436 C.2     1  UNL1        0.3907
     12 O         -28.6624   -1.7637   30.9309 O.co2   1  UNL1       -0.2404
     13 O         -26.7566   -2.2492   30.2693 O.co2   1  UNL1       -0.2404
     14 CL        -25.5018    1.5262   27.0335 Cl      1  UNL1       -0.0822
     15 C         -31.8891    0.1986   28.2166 C.ar    1  UNL1        0.0889
     16 C         -32.9939    0.6129   28.4974 C.ar    1  UNL1        0.0180
     17 C         -33.3602    0.9505   29.7711 C.ar    1  UNL1        0.0015
     18 C         -32.4122    0.6599   30.8459 C.ar    1  UNL1        0.0032
     19 C         -31.1676    0.2098   30.4831 C.ar    1  UNL1        0.0388
     20 C         -30.8706    0.0507   29.2308 C.ar    1  UNL1        0.1588
     21 O         -29.6759   -0.2719   29.0822 O.3     1  UNL1       -0.4519
@<TRIPOS>BOND
     1     5     7    1
     2     7     8    2
     3     7     9   am
     4     9    10    1
     5     1    11    1
     6    11    12   ar
     7    11    13   ar
     8     3    14    1
     9     9    15    1
    10     6    21    1
    11    20    21    1
    12    15    16   ar
    13    16    17   ar
    14    17    18   ar
    15    18    19   ar
    16    19    20   ar
    17    20    15   ar
    18     1     2   ar
    19     2     3   ar
    20     3     4   ar
    21     4     5   ar
    22     5     6   ar
    23     6     1   ar
