@<TRIPOS>MOLECULE
outputs/IAG933/test6/raw/output_1360_IAG933_linker_design_.xyz
 46 50 0 0 0
SMALL
GASTEIGER

@<TRIPOS>ATOM
      1 C         -24.8550   -1.0120   30.1430 C.3     1  UNL1        0.0623
      2 C         -24.9730   -2.5050   29.7880 C.2     1  UNL1       -0.0192
      3 C         -23.9060   -3.1730   29.1460 C.2     1  UNL1       -0.0042
      4 C         -23.9890   -4.5490   28.8530 C.2     1  UNL1       -0.0003
      5 C         -25.1370   -5.2800   29.2050 C.2     1  UNL1       -0.0000
      6 C         -26.2320   -4.6110   29.7840 C.2     1  UNL1       -0.0003
      7 C         -26.1550   -3.2320   30.0650 C.2     1  UNL1       -0.0042
      8 C         -25.3870   -0.6790   31.5710 C.3     1  UNL1        0.0788
      9 C         -25.1890    0.7730   32.0280 C.3     1  UNL1        0.0193
     10 C         -25.3360    0.6840   33.5440 C.3     1  UNL1        0.0202
     11 C         -24.8290   -0.7150   33.9050 C.3     1  UNL1        0.0887
     12 N         -24.7580   -1.4810   32.6460 N.3     1  UNL1       -0.2191
     13 C         -25.6880    1.6140   26.4610 C.2     1  UNL1        0.0373
     14 C         -26.2500    2.9200   26.3950 C.2     1  UNL1        0.0765
     15 C         -25.6420    4.0930   27.1230 C.2     1  UNL1        0.2664
     16 N         -25.6140    5.2520   26.4490 N.am    1  UNL1       -0.1997
     17 C         -25.0260    6.4790   26.9630 C.3     1  UNL1        0.1388
     18 O         -25.1430    3.9660   28.2430 O.2     1  UNL1       -0.2683
     19 C         -27.4380    3.0910   25.6450 C.2     1  UNL1        0.1067
     20 N         -28.0750    2.0890   25.0030 N.2     1  UNL1       -0.2081
     21 C         -27.5430    0.8490   25.0790 C.2     1  UNL1        0.2533
     22 O         -28.1930   -0.2080   24.4770 O.2     1  UNL1       -0.4558
     23 C         -29.4600    0.0050   23.8660 C.3     1  UNL1        0.2426
     24 C         -30.0650   -1.3770   23.5730 C.3     1  UNL1        0.2292
     25 O         -30.7290   -1.8780   24.7210 O.3     1  UNL1       -0.2162
     26 C         -26.3540    0.5760   25.7770 C.2     1  UNL1        0.1930
     27 F         -25.8600   -0.6810   25.7950 F       1  UNL1       -0.1992
     28 N         -22.4281   -0.2343   29.7457 N.3     1  UNL1       -0.1236
     29 C         -24.4721    0.6216   28.4664 C.2     1  UNL1       -0.0032
     30 C         -29.4666    5.2247   28.6083 C.2     1  UNL1        0.3189
     31 C         -28.6803    2.2223   31.3116 C.3     1  UNL1        0.1166
     32 C         -23.2133    1.6986   26.9176 C.2     1  UNL1       -0.0248
     33 C         -30.4858    3.1868   28.4107 C.3     1  UNL1        0.2286
     34 C         -24.5463    1.2863   27.2770 C.2     1  UNL1       -0.0064
     35 C         -23.1929    0.7051   28.9423 C.3     1  UNL1        0.1334
     36 C         -28.2097    1.0453   28.9828 C.2     1  UNL1        0.3236
     37 O         -28.9260    5.9903   27.5032 O.2     1  UNL1       -0.2500
     38 C         -28.7783    4.4181   29.6317 C.3     1  UNL1        0.1331
     39 C         -22.8393    2.1999   25.5582 C.3     1  UNL1        0.0307
     40 N         -28.8177    2.0704   29.8379 N.am    1  UNL1       -0.2585
     41 O         -28.8548    0.4427   28.1597 O.2     1  UNL1       -0.2508
     42 O         -30.5580    4.5320   28.0330 O.3     1  UNL1       -0.4466
     43 C         -29.3051    3.1466   29.2841 C.3     1  UNL1        0.1317
     44 C         -25.6365   -0.2015   29.0583 C.3     1  UNL1        0.1221
     45 C         -22.4513    1.4492   28.0077 C.2     1  UNL1       -0.0076
     46 N         -26.8093    0.7545   29.0836 N.am    1  UNL1       -0.1856
@<TRIPOS>BOND
     1     1    44    1
     2     2     7    1
     3     2     1    1
     4     3     2    2
     5     4     3    1
     6     4     5    2
     7     5     6    1
     8     6     7    2
     9     8     1    1
    10     8     9    1
    11     8    12    1
    12     9    10    1
    13    10    11    1
    14    12    11    1
    15    13    34    1
    16    14    13    1
    17    14    15    1
    18    15    18    2
    19    16    17    1
    20    16    15    1
    21    19    14    2
    22    20    21    2
    23    20    19    1
    24    21    26    1
    25    22    21    1
    26    23    22    1
    27    24    23    1
    28    24    25    1
    29    26    27    1
    30    26    13    2
    31    29    35    1
    32    29    44    1
    33    30    38    1
    34    32    34    1
    35    32    45    2
    36    33    43    1
    37    34    29    2
    38    35    28    1
    39    36    46    1
    40    36    40   am
    41    37    30    2
    42    39    32    1
    43    40    31    1
    44    41    36    2
    45    42    33    1
    46    42    30    1
    47    43    38    1
    48    43    40    1
    49    44    46    1
    50    45    35    1
