@<TRIPOS>MOLECULE
No_1361-gen_results/8p0m/2024-11-27-11-27-31/
 35 37 0 0 0
SMALL
GASTEIGER

@<TRIPOS>ATOM
      1 C         -28.0162   -0.8135   28.8779 C.ar    1  UNL1        0.0554
      2 C         -28.4690   -0.7850   29.8287 C.2     1  UNL1        0.2691
      3 C         -28.1816    0.4277   28.1134 C.ar    1  UNL1        0.0043
      4 C         -27.4498    0.6435   26.8500 C.ar    1  UNL1       -0.0038
      5 C         -26.1815    0.0357   26.7145 C.ar    1  UNL1       -0.0178
      6 C         -25.7800   -0.9326   27.6938 C.ar    1  UNL1       -0.0038
      7 C         -26.5568   -1.2134   28.7413 C.ar    1  UNL1        0.0043
      8 N         -28.3021   -1.9782   30.6613 N.am    1  UNL1       -0.1722
      9 O         -29.1868    0.0184   30.4724 O.2     1  UNL1       -0.2680
     10 C         -29.0869   -2.6283   31.0087 C.ar    1  UNL1        0.1125
     11 C         -25.3143    0.3231   25.5876 C.3     1  UNL1        0.0524
     12 C         -29.0747   -4.1134   30.6119 C.ar    1  UNL1        0.2109
     13 C         -30.2159   -4.9690   30.8000 C.ar    1  UNL1        0.0434
     14 C         -31.3503   -4.3420   31.3684 C.ar    1  UNL1        0.0034
     15 C         -31.4058   -3.0141   31.6998 C.ar    1  UNL1        0.0015
     16 C         -30.3445   -2.1660   31.4881 C.ar    1  UNL1        0.0199
     17 C         -24.4581    1.3989   25.7156 C.2     1  UNL1       -0.0185
     18 C         -24.6959    2.4882   26.4778 C.2     1  UNL1        0.0334
     19 C         -24.2768    3.0051   27.3964 C.2     1  UNL1        0.1774
     20 C         -23.3494    2.1992   28.2321 C.3     1  UNL1        0.1243
     21 C         -23.4111    2.1062   29.6450 C.3     1  UNL1        0.1524
     22 C         -22.1638    1.6540   27.5931 C.3     1  UNL1        0.1922
     23 O         -24.1820    1.3788   29.9298 O.3     1  UNL1       -0.3532
     24 C         -24.6135    1.2818   31.3075 C.3     1  UNL1        0.1425
     25 C         -25.3796    2.3039   31.7889 C.3     1  UNL1        0.0367
     26 C         -26.7461    2.0597   31.7397 C.3     1  UNL1        0.0289
     27 C         -27.3304    1.6820   33.0223 C.ar    1  UNL1       -0.0221
     28 C         -26.8938    0.7293   33.7098 C.ar    1  UNL1       -0.0043
     29 C         -27.3632    0.1412   34.4855 C.ar    1  UNL1       -0.0003
     30 C         -28.7733    0.3908   34.8586 C.ar    1  UNL1       -0.0000
     31 C         -29.4166    1.3506   34.1082 C.ar    1  UNL1       -0.0003
     32 C         -28.7541    1.9276   33.1025 C.ar    1  UNL1       -0.0043
     33 O         -21.3717    1.0782   28.4226 O.3     1  UNL1       -0.2199
     34 O         -27.9818   -4.5993   30.1320 O.3     1  UNL1       -0.2852
     35 O         -24.7329    4.0966   28.0683 O.2     1  UNL1       -0.2912
@<TRIPOS>BOND
     1     1     2    1
     2     2     8   am
     3     2     9    2
     4     5    11    1
     5    11    17    1
     6    17    18    2
     7    18    19    1
     8    19    20    1
     9    20    21    1
    10    20    22    1
    11    21    23    1
    12    23    24    1
    13    24    25    1
    14    25    26    1
    15    26    27    1
    16    22    33    1
    17    12    34    1
    18    19    35    2
    19     8    10    1
    20    10    12   ar
    21    12    13   ar
    22    13    14   ar
    23    14    15   ar
    24    15    16   ar
    25    16    10   ar
    26    27    28   ar
    27    28    29   ar
    28    29    30   ar
    29    30    31   ar
    30    31    32   ar
    31    32    27   ar
    32     1     3   ar
    33     3     4   ar
    34     4     5   ar
    35     5     6   ar
    36     6     7   ar
    37     7     1   ar
