@<TRIPOS>MOLECULE
outputs/IAG933/test6/raw/output_1362_IAG933_linker_design_.xyz
 49 54 0 0 0
SMALL
GASTEIGER

@<TRIPOS>ATOM
      1 C         -24.8550   -1.0120   30.1430 C.3     1  UNL1        0.1159
      2 C         -24.9730   -2.5050   29.7880 C.2     1  UNL1       -0.0029
      3 C         -23.9060   -3.1730   29.1460 C.2     1  UNL1       -0.0026
      4 C         -23.9890   -4.5490   28.8530 C.2     1  UNL1       -0.0003
      5 C         -25.1370   -5.2800   29.2050 C.2     1  UNL1       -0.0000
      6 C         -26.2320   -4.6110   29.7840 C.2     1  UNL1       -0.0003
      7 C         -26.1550   -3.2320   30.0650 C.2     1  UNL1       -0.0026
      8 C         -25.3870   -0.6790   31.5710 C.3     1  UNL1        0.0952
      9 C         -25.1890    0.7730   32.0280 C.3     1  UNL1        0.0209
     10 C         -25.3360    0.6840   33.5440 C.3     1  UNL1        0.0203
     11 C         -24.8290   -0.7150   33.9050 C.3     1  UNL1        0.0888
     12 N         -24.7580   -1.4810   32.6460 N.3     1  UNL1       -0.2174
     13 C         -25.6880    1.6140   26.4610 C.2     1  UNL1        0.0392
     14 C         -26.2500    2.9200   26.3950 C.2     1  UNL1        0.0764
     15 C         -25.6420    4.0930   27.1230 C.2     1  UNL1        0.2664
     16 N         -25.6140    5.2520   26.4490 N.am    1  UNL1       -0.1997
     17 C         -25.0260    6.4790   26.9630 C.3     1  UNL1        0.1388
     18 O         -25.1430    3.9660   28.2430 O.2     1  UNL1       -0.2683
     19 C         -27.4380    3.0910   25.6450 C.2     1  UNL1        0.1067
     20 N         -28.0750    2.0890   25.0030 N.2     1  UNL1       -0.2081
     21 C         -27.5430    0.8490   25.0790 C.2     1  UNL1        0.2533
     22 O         -28.1930   -0.2080   24.4770 O.2     1  UNL1       -0.4558
     23 C         -29.4600    0.0050   23.8660 C.3     1  UNL1        0.2426
     24 C         -30.0650   -1.3770   23.5730 C.3     1  UNL1        0.2292
     25 O         -30.7290   -1.8780   24.7210 O.3     1  UNL1       -0.2162
     26 C         -26.3540    0.5760   25.7770 C.2     1  UNL1        0.1929
     27 F         -25.8600   -0.6810   25.7950 F       1  UNL1       -0.1992
     28 N         -29.8502    3.3568   28.7915 N.3     1  UNL1       -0.2472
     29 C         -27.0545    0.3444   29.2367 C.2     1  UNL1        0.3239
     30 O         -28.1800    4.7739   30.2830 O.3     1  UNL1       -0.3369
     31 F         -20.9269    1.2971   27.6833 F       1  UNL1       -0.1987
     32 C         -30.5827    4.3475   27.9646 C.3     1  UNL1        0.0744
     33 C         -30.1972    2.8534   29.9539 C.3     1  UNL1        0.0960
     34 C         -24.5368    1.3319   27.2160 C.2     1  UNL1        0.0461
     35 N         -25.4155   -0.0124   29.2203 N.am    1  UNL1       -0.2510
     36 C         -22.2637    1.2062   27.7876 C.2     1  UNL1        0.2035
     37 O         -27.6975   -0.5420   29.2861 O.2     1  UNL1       -0.2507
     38 C         -28.9602    1.8076   30.2314 C.3     1  UNL1        0.1154
     39 C         -23.2034    1.7654   26.9258 C.2     1  UNL1        0.2229
     40 C         -28.3517    4.1822   29.2528 C.3     1  UNL1        0.2037
     41 C         -32.0616    4.3136   28.1427 C.3     1  UNL1        0.0174
     42 C         -27.5688    3.7889   30.3850 C.3     1  UNL1        0.1613
     43 C         -22.9985    0.5048   28.7010 C.2     1  UNL1        0.1704
     44 N         -27.8925    1.5001   29.2099 N.am    1  UNL1       -0.1887
     45 C         -24.4041    0.5635   28.4160 C.3     1  UNL1        0.1554
     46 F         -22.3897   -0.0894   29.6831 F       1  UNL1       -0.2043
     47 C         -32.8305    3.4271   29.0978 C.3     1  UNL1        0.0015
     48 O         -22.8620    2.5289   25.9131 O.2     1  UNL1       -0.2844
     49 C         -28.2287    2.5930   31.2668 C.3     1  UNL1        0.0568
@<TRIPOS>BOND
     1     1    35    1
     2     2     7    1
     3     2     1    1
     4     3     2    2
     5     4     3    1
     6     4     5    2
     7     5     6    1
     8     6     7    2
     9     8     1    1
    10     8     9    1
    11     8    12    1
    12     9    10    1
    13    10    11    1
    14    12    11    1
    15    13    34    1
    16    14    13    1
    17    14    15    1
    18    15    18    2
    19    16    17    1
    20    16    15    1
    21    19    14    2
    22    20    21    2
    23    20    19    1
    24    21    26    1
    25    22    21    1
    26    23    22    1
    27    24    23    1
    28    24    25    1
    29    26    27    1
    30    26    13    2
    31    28    40    1
    32    28    33    1
    33    29    37    2
    34    30    42    1
    35    31    36    1
    36    32    41    1
    37    32    28    1
    38    33    38    1
    39    34    45    1
    40    35    29   am
    41    36    43    2
    42    38    44    1
    43    38    49    1
    44    39    34    2
    45    39    36    1
    46    40    30    1
    47    40    42    1
    48    41    47    1
    49    42    49    1
    50    43    46    1
    51    44    29    1
    52    45    43    1
    53    45    35    1
    54    48    39    1
