@<TRIPOS>MOLECULE
No_1365-gen_results/8p0m/2024-11-27-11-27-31/
 28 30 0 0 0
SMALL
GASTEIGER

@<TRIPOS>ATOM
      1 C         -28.0162   -0.8135   28.8779 C.ar    1  UNL1        0.0668
      2 C         -27.0636   -0.1189   28.6079 C.ar    1  UNL1        0.1437
      3 C         -25.7923   -0.4302   29.0761 C.ar    1  UNL1        0.0126
      4 C         -24.5456    0.3494   28.8225 C.3     1  UNL1        0.0327
      5 C         -23.2409    0.0217   29.3323 C.3     1  UNL1        0.0053
      6 C         -22.1362    0.7695   29.0059 C.3     1  UNL1        0.0081
      7 C         -27.9050   -1.8984   29.8729 C.ar    1  UNL1        0.1432
      8 C         -26.6795   -2.3145   30.3184 C.ar    1  UNL1        0.0295
      9 C         -25.5203   -1.5564   29.9775 C.ar    1  UNL1        0.0010
     10 C         -22.1155    1.7338   28.0257 C.3     1  UNL1        0.0645
     11 C         -24.5222    1.3908   27.7909 C.3     1  UNL1        0.0689
     12 C         -23.3248    2.0519   27.4472 C.2     1  UNL1        0.1510
     13 F         -28.9445   -2.6425   30.2016 F       1  UNL1       -0.2041
     14 O         -23.4184    2.9909   26.4900 O.2     1  UNL1       -0.2960
     15 O         -27.1543    0.9158   27.7321 O.3     1  UNL1       -0.4501
     16 C         -28.4096    1.3377   27.3279 C.ar    1  UNL1        0.1873
     17 C         -29.1307    2.1337   28.0540 C.ar    1  UNL1        0.2009
     18 C         -30.4017    2.4562   27.7649 C.ar    1  UNL1        0.1769
     19 C         -28.8438    0.9308   26.0826 C.ar    1  UNL1        0.0722
     20 C         -30.1341    1.1976   25.6803 C.ar    1  UNL1        0.0123
     21 C         -30.8896    2.0834   26.4661 C.ar    1  UNL1        0.0335
     22 BR        -27.8001   -0.1745   24.9864 Br      1  UNL1       -0.0457
     23 F         -31.1569    3.2766   28.4830 F       1  UNL1       -0.2009
     24 O         -28.6514    2.5108   29.3174 O.3     1  UNL1       -0.4653
     25 C         -27.6953    3.4641   29.3620 C.3     1  UNL1        0.2317
     26 C         -27.9379    4.5370   30.2765 C.2     1  UNL1        0.0161
     27 C         -28.3178    4.4857   31.3486 C.2     1  UNL1       -0.0267
     28 C         -28.5355    5.5828   32.2656 C.3     1  UNL1        0.0305
@<TRIPOS>BOND
     1     3     4    1
     2     4     5    1
     3     6    10    1
     4     4    11    1
     5    10    12    1
     6    11    12    1
     7     7    13    1
     8    12    14    2
     9     2    15    1
    10    15    16    1
    11    19    22    1
    12    18    23    1
    13    17    24    1
    14    24    25    1
    15    25    26    1
    16    26    27    2
    17    27    28    1
    18     6     5    1
    19     1     2   ar
    20     2     3   ar
    21     3     9   ar
    22     9     8   ar
    23     8     7   ar
    24     7     1   ar
    25    16    17   ar
    26    17    18   ar
    27    18    21   ar
    28    21    20   ar
    29    20    19   ar
    30    19    16   ar
