@<TRIPOS>MOLECULE
No_1366-gen_results/8p0m/2024-11-27-11-27-31/
 17 17 0 0 0
SMALL
GASTEIGER

@<TRIPOS>ATOM
      1 C         -28.0162   -0.8135   28.8779 C.ar    1  UNL1        0.0104
      2 C         -27.0636   -0.1189   28.6079 C.ar    1  UNL1        0.0716
      3 C         -25.7923   -0.4302   29.0761 C.ar    1  UNL1        0.0077
      4 C         -25.5756   -1.5654   29.9363 C.ar    1  UNL1        0.0716
      5 C         -26.7354   -2.3004   30.2173 C.ar    1  UNL1        0.0104
      6 C         -27.9184   -1.9537   29.7629 C.ar    1  UNL1        0.0797
      7 C         -27.1057    1.1023   27.7593 C.3     1  UNL1        0.4186
      8 F         -28.1026    1.2424   27.1566 F       1  UNL1       -0.1659
      9 F         -26.9077    2.2808   28.5196 F       1  UNL1       -0.1659
     10 F         -25.9872    1.1458   26.8902 F       1  UNL1       -0.1659
     11 C         -29.0694   -2.7534   30.2050 C.2     1  UNL1        0.3877
     12 O         -29.0090   -3.9801   30.2994 O.co2   1  UNL1       -0.2406
     13 O         -30.1948   -2.1934   30.4312 O.co2   1  UNL1       -0.2406
     14 C         -24.2246   -1.8458   30.3935 C.3     1  UNL1        0.4186
     15 F         -23.7164   -2.6886   29.7550 F       1  UNL1       -0.1659
     16 F         -23.4172   -0.6880   30.3193 F       1  UNL1       -0.1659
     17 F         -24.2876   -2.0096   31.7695 F       1  UNL1       -0.1659
@<TRIPOS>BOND
     1     2     7    1
     2     7     8    1
     3     7     9    1
     4     7    10    1
     5     6    11    1
     6    11    12   ar
     7    11    13   ar
     8     4    14    1
     9    14    15    1
    10    14    16    1
    11    14    17    1
    12     1     2   ar
    13     2     3   ar
    14     3     4   ar
    15     4     5   ar
    16     5     6   ar
    17     6     1   ar
