@<TRIPOS>MOLECULE
No_1367-gen_results/8p0m/2024-11-27-11-27-31/
 25 27 0 0 0
SMALL
GASTEIGER

@<TRIPOS>ATOM
      1 C         -28.0162   -0.8135   28.8779 C.ar    1  UNL1        0.0094
      2 C         -28.4690   -0.7850   29.8287 C.ar    1  UNL1        0.0799
      3 C         -28.1960    0.3478   28.0550 C.ar    1  UNL1        0.0352
      4 C         -29.0191    1.3501   28.3782 C.ar    1  UNL1        0.0028
      5 C         -29.4107    0.1803   30.3782 C.ar    1  UNL1        0.0066
      6 C         -29.2236    2.4924   27.5425 C.ar    1  UNL1        0.0001
      7 C         -29.5873    1.2242   29.6185 C.ar    1  UNL1        0.0003
      8 C         -29.6214    2.7611   26.5108 C.ar    1  UNL1        0.0000
      9 C         -29.7045    4.0306   25.7684 C.ar    1  UNL1        0.0000
     10 C         -29.1860    5.1635   26.4111 C.ar    1  UNL1        0.0000
     11 C         -28.6218    5.0147   27.6303 C.ar    1  UNL1        0.0000
     12 C         -28.5665    3.7934   28.2435 C.ar    1  UNL1        0.0000
     13 C         -27.4638    0.3642   26.7155 C.2     1  UNL1        0.1767
     14 C         -26.0277    0.2856   26.7426 C.3     1  UNL1        0.0841
     15 C         -25.3035    0.1463   27.9331 C.ar    1  UNL1       -0.0152
     16 C         -24.4016    1.0230   28.3535 C.ar    1  UNL1       -0.0039
     17 C         -23.3184    0.6116   29.1370 C.ar    1  UNL1       -0.0003
     18 C         -23.3030   -0.6901   29.7068 C.ar    1  UNL1       -0.0000
     19 C         -24.3085   -1.5703   29.3257 C.ar    1  UNL1       -0.0003
     20 C         -25.2064   -1.2219   28.4049 C.ar    1  UNL1       -0.0039
     21 C         -25.3793    0.4627   25.4879 C.3     1  UNL1        0.0129
     22 O         -28.1331    0.4257   25.6915 O.2     1  UNL1       -0.2910
     23 C         -28.3000   -2.0576   30.8534 C.2     1  UNL1        0.3878
     24 O         -28.0150   -1.7409   31.9402 O.co2   1  UNL1       -0.2406
     25 O         -28.7102   -3.2036   30.4590 O.co2   1  UNL1       -0.2406
@<TRIPOS>BOND
     1     4     6    1
     2     3    13    1
     3    13    14    1
     4    14    15    1
     5    14    21    1
     6    13    22    2
     7     2    23    1
     8    23    24   ar
     9    23    25   ar
    10    15    16   ar
    11    16    17   ar
    12    17    18   ar
    13    18    19   ar
    14    19    20   ar
    15    20    15   ar
    16     6     8   ar
    17     8     9   ar
    18     9    10   ar
    19    10    11   ar
    20    11    12   ar
    21    12     6   ar
    22     1     2   ar
    23     2     5   ar
    24     5     7   ar
    25     7     4   ar
    26     4     3   ar
    27     3     1   ar
