@<TRIPOS>MOLECULE
No_137-gen_results/8p0m/2024-11-27-11-27-31/
 16 17 0 0 0
SMALL
GASTEIGER

@<TRIPOS>ATOM
      1 C         -28.0162   -0.8135   28.8779 C.3     1  UNL1        0.0526
      2 C         -27.0636   -0.1190   28.6079 C.ar    1  UNL1       -0.0180
      3 C         -25.7923   -0.4302   29.0761 C.ar    1  UNL1       -0.0074
      4 C         -24.5456    0.3494   28.8225 C.ar    1  UNL1       -0.0119
      5 C         -24.6586    1.4196   27.8878 C.ar    1  UNL1        0.0537
      6 C         -25.9471    1.6811   27.3792 C.ar    1  UNL1        0.0108
      7 C         -27.0439    0.9739   27.6871 C.ar    1  UNL1       -0.0031
      8 C         -28.6597   -0.4600   30.2006 C.ar    1  UNL1       -0.0178
      9 C         -29.7497   -1.2486   30.6773 C.ar    1  UNL1       -0.0039
     10 C         -30.3742   -0.9765   31.8467 C.ar    1  UNL1       -0.0003
     11 C         -29.8609    0.1125   32.6395 C.ar    1  UNL1       -0.0000
     12 C         -28.7739    0.8228   32.2214 C.ar    1  UNL1       -0.0003
     13 C         -28.1596    0.5415   31.0324 C.ar    1  UNL1       -0.0039
     14 CL        -23.2663    2.2837   27.4932 Cl      1  UNL1       -0.0826
     15 C         -23.2596   -0.0837   29.3550 C.3     1  UNL1        0.0272
     16 C         -22.2591    0.6145   29.2049 C.3     1  UNL1        0.0050
@<TRIPOS>BOND
     1     1     2    1
     2     1     8    1
     3     5    14    1
     4     4    15    1
     5    15    16    1
     6     2     3   ar
     7     3     4   ar
     8     4     5   ar
     9     5     6   ar
    10     6     7   ar
    11     7     2   ar
    12     8     9   ar
    13     9    10   ar
    14    10    11   ar
    15    11    12   ar
    16    12    13   ar
    17    13     8   ar
