@<TRIPOS>MOLECULE
outputs/IAG933/test6/raw/output_1370_IAG933_linker_design_.xyz
 41 46 0 0 0
SMALL
GASTEIGER

@<TRIPOS>ATOM
      1 C         -24.8550   -1.0120   30.1430 C.3     1  UNL1        0.1111
      2 C         -24.9730   -2.5050   29.7880 C.2     1  UNL1       -0.0030
      3 C         -23.9060   -3.1730   29.1460 C.2     1  UNL1       -0.0026
      4 C         -23.9890   -4.5490   28.8530 C.2     1  UNL1       -0.0003
      5 C         -25.1370   -5.2800   29.2050 C.2     1  UNL1       -0.0000
      6 C         -26.2320   -4.6110   29.7840 C.2     1  UNL1       -0.0003
      7 C         -26.1550   -3.2320   30.0650 C.2     1  UNL1       -0.0026
      8 C         -25.3870   -0.6790   31.5710 C.3     1  UNL1        0.0950
      9 C         -25.1890    0.7730   32.0280 C.3     1  UNL1        0.0209
     10 C         -25.3360    0.6840   33.5440 C.3     1  UNL1        0.0203
     11 C         -24.8290   -0.7150   33.9050 C.3     1  UNL1        0.0888
     12 N         -24.7580   -1.4810   32.6460 N.3     1  UNL1       -0.2174
     13 C         -25.6880    1.6140   26.4610 C.2     1  UNL1        0.0279
     14 C         -26.2500    2.9200   26.3950 C.2     1  UNL1        0.0735
     15 C         -25.6420    4.0930   27.1230 C.2     1  UNL1        0.2661
     16 N         -25.6140    5.2520   26.4490 N.am    1  UNL1       -0.1997
     17 C         -25.0260    6.4790   26.9630 C.3     1  UNL1        0.1388
     18 O         -25.1430    3.9660   28.2430 O.2     1  UNL1       -0.2683
     19 C         -27.4380    3.0910   25.6450 C.2     1  UNL1        0.1064
     20 N         -28.0750    2.0890   25.0030 N.2     1  UNL1       -0.2081
     21 C         -27.5430    0.8490   25.0790 C.2     1  UNL1        0.2530
     22 O         -28.1930   -0.2080   24.4770 O.2     1  UNL1       -0.4558
     23 C         -29.4600    0.0050   23.8660 C.3     1  UNL1        0.2426
     24 C         -30.0650   -1.3770   23.5730 C.3     1  UNL1        0.2292
     25 O         -30.7290   -1.8780   24.7210 O.3     1  UNL1       -0.2162
     26 C         -26.3540    0.5760   25.7770 C.2     1  UNL1        0.1900
     27 F         -25.8600   -0.6810   25.7950 F       1  UNL1       -0.1995
     28 C         -21.6473    1.2690   27.8813 C.2     1  UNL1        0.0415
     29 C         -25.2449    0.4184   28.5721 C.2     1  UNL1        0.0361
     30 C         -27.9616    1.1653   29.2734 C.3     1  UNL1        0.0214
     31 C         -24.4607    1.2900   27.2536 C.3     1  UNL1        0.0933
     32 C         -30.4234    0.4675   29.2142 C.3     1  UNL1        0.0001
     33 C         -22.5303    0.5896   28.6521 C.2     1  UNL1        0.1935
     34 O         -22.2601   -0.2237   29.6986 O.2     1  UNL1       -0.2868
     35 C         -22.1001    1.9774   26.7462 C.2     1  UNL1       -0.0003
     36 C         -29.9796    0.3633   27.8080 C.3     1  UNL1        0.0001
     37 C         -27.4688   -0.2222   28.9392 C.3     1  UNL1        0.0908
     38 C         -23.9628    0.6696   28.4285 C.2     1  UNL1        0.0388
     39 C         -29.4334    1.4647   29.0787 C.3     1  UNL1        0.0017
     40 N         -25.9557   -0.3113   29.2157 N.pl3   1  UNL1       -0.3068
     41 C         -23.4454    1.9116   26.3749 C.2     1  UNL1       -0.0130
@<TRIPOS>BOND
     1     1    40    1
     2     2     7    1
     3     2     1    1
     4     3     2    2
     5     4     3    1
     6     4     5    2
     7     5     6    1
     8     6     7    2
     9     8     1    1
    10     8     9    1
    11     8    12    1
    12     9    10    1
    13    10    11    1
    14    12    11    1
    15    14    13    1
    16    14    15    1
    17    15    18    2
    18    16    17    1
    19    16    15    1
    20    19    14    2
    21    20    21    2
    22    20    19    1
    23    21    26    1
    24    22    21    1
    25    23    22    1
    26    24    23    1
    27    24    25    1
    28    26    27    1
    29    26    13    2
    30    28    33    2
    31    29    40    1
    32    31    13    1
    33    31    38    1
    34    31    29    1
    35    33    34    1
    36    35    28    1
    37    36    39    1
    38    36    32    1
    39    37    40    1
    40    37    30    1
    41    38    29    2
    42    38    33    1
    43    39    32    1
    44    39    30    1
    45    41    35    2
    46    41    31    1
