@<TRIPOS>MOLECULE
No_1371-gen_results/8p0m/2024-11-27-11-27-31/
 32 33 0 0 0
SMALL
GASTEIGER

@<TRIPOS>ATOM
      1 C         -28.0162   -0.8135   28.8779 C.ar    1  UNL1        0.0234
      2 C         -27.0636   -0.1189   28.6079 C.ar    1  UNL1       -0.0005
      3 C         -26.9716    0.7139   27.5060 C.ar    1  UNL1        0.0037
      4 C         -28.1053    0.7744   26.6421 C.ar    1  UNL1        0.0714
      5 C         -29.2008    0.1044   27.0527 C.ar    1  UNL1        0.0037
      6 C         -28.0219   -1.5899   30.0879 C.3     1  UNL1        0.2375
      7 C         -29.1640   -0.6394   28.1484 C.ar    1  UNL1       -0.0005
      8 O         -27.1149   -2.3776   30.3500 O.3     1  UNL1       -0.1998
      9 N         -29.1169   -1.6536   30.9061 N.3     1  UNL1       -0.2179
     10 C         -29.1873   -2.5920   31.9877 C.3     1  UNL1        0.2229
     11 C         -28.0052    1.6585   25.4549 C.3     1  UNL1        0.4186
     12 F         -28.4224    2.6037   25.6680 F       1  UNL1       -0.1659
     13 F         -26.6924    1.7281   25.0537 F       1  UNL1       -0.1659
     14 F         -28.6133    0.9867   24.3864 F       1  UNL1       -0.1659
     15 C         -30.2462   -0.7725   30.7954 C.3     1  UNL1        0.0944
     16 C         -30.4831   -2.7730   32.3991 C.3     1  UNL1        0.1200
     17 C         -31.0879   -3.5194   31.7788 C.3     1  UNL1        0.0387
     18 C         -30.6122   -4.1356   30.7085 C.2     1  UNL1       -0.0216
     19 C         -29.4108   -4.8430   30.9984 C.2     1  UNL1       -0.0046
     20 C         -31.4868   -4.9923   29.7158 C.ar    1  UNL1       -0.0040
     21 C         -31.0419   -5.3462   28.6112 C.ar    1  UNL1       -0.0003
     22 C         -31.6177   -5.4770   27.7460 C.ar    1  UNL1       -0.0000
     23 C         -32.9859   -5.5360   27.6593 C.ar    1  UNL1       -0.0000
     24 C         -33.6127   -5.1424   28.8500 C.ar    1  UNL1       -0.0000
     25 C         -32.8629   -4.7389   29.8505 C.ar    1  UNL1       -0.0003
     26 O         -28.3344   -2.0690   33.0953 O.3     1  UNL1       -0.2044
     27 C         -30.8763   -2.2104   33.6763 C.2     1  UNL1        0.2132
     28 N         -31.7504   -2.3131   34.2147 N.2     1  UNL1       -0.0316
     29 C         -32.1416   -1.7179   35.3994 C.2     1  UNL1        0.4269
     30 N         -33.3187   -1.8877   36.0248 N.2     1  UNL1        0.1999
     31 C         -31.1646   -0.7585   35.9825 C.2     1  UNL1        0.1005
     32 C         -29.9651   -0.5614   35.3671 C.2     1  UNL1        0.0084
@<TRIPOS>BOND
     1     1     6    1
     2     6     8    1
     3     6     9    1
     4     9    10    1
     5     4    11    1
     6    11    12    1
     7    11    13    1
     8    11    14    1
     9     9    15    1
    10    10    16    1
    11    16    17    1
    12    17    18    1
    13    18    19    2
    14    18    20    1
    15    10    26    1
    16    16    27    1
    17    27    28    2
    18    28    29    1
    19    29    30    2
    20    29    31    1
    21    31    32    2
    22     1     2   ar
    23     2     3   ar
    24     3     4   ar
    25     4     5   ar
    26     5     7   ar
    27     7     1   ar
    28    20    21   ar
    29    21    22   ar
    30    22    23   ar
    31    23    24   ar
    32    24    25   ar
    33    25    20   ar
