@<TRIPOS>MOLECULE
outputs/IAG933/test6/raw/output_1372_IAG933_linker_design_.xyz
 42 45 0 0 0
SMALL
GASTEIGER

@<TRIPOS>ATOM
      1 C         -24.8550   -1.0120   30.1430 C.3     1  UNL1        0.0438
      2 C         -24.9730   -2.5050   29.7880 C.2     1  UNL1       -0.0208
      3 C         -23.9060   -3.1730   29.1460 C.2     1  UNL1       -0.0042
      4 C         -23.9890   -4.5490   28.8530 C.2     1  UNL1       -0.0003
      5 C         -25.1370   -5.2800   29.2050 C.2     1  UNL1       -0.0000
      6 C         -26.2320   -4.6110   29.7840 C.2     1  UNL1       -0.0003
      7 C         -26.1550   -3.2320   30.0650 C.2     1  UNL1       -0.0042
      8 C         -25.3870   -0.6790   31.5710 C.3     1  UNL1        0.0789
      9 C         -25.1890    0.7730   32.0280 C.3     1  UNL1        0.0427
     10 C         -25.3360    0.6840   33.5440 C.3     1  UNL1        0.0221
     11 C         -24.8290   -0.7150   33.9050 C.3     1  UNL1        0.0888
     12 N         -24.7580   -1.4810   32.6460 N.3     1  UNL1       -0.2191
     13 C         -25.6880    1.6140   26.4610 C.3     1  UNL1        0.0881
     14 C         -26.2500    2.9200   26.3950 C.2     1  UNL1        0.0586
     15 C         -25.6420    4.0930   27.1230 C.2     1  UNL1        0.2627
     16 N         -25.6140    5.2520   26.4490 N.am    1  UNL1       -0.2000
     17 C         -25.0260    6.4790   26.9630 C.3     1  UNL1        0.1388
     18 O         -25.1430    3.9660   28.2430 O.2     1  UNL1       -0.2686
     19 C         -27.4380    3.0910   25.6450 C.2     1  UNL1        0.1025
     20 N         -28.0750    2.0890   25.0030 N.2     1  UNL1       -0.2118
     21 C         -27.5430    0.8490   25.0790 C.2     1  UNL1        0.2344
     22 O         -28.1930   -0.2080   24.4770 O.2     1  UNL1       -0.4585
     23 C         -29.4600    0.0050   23.8660 C.3     1  UNL1        0.2423
     24 C         -30.0650   -1.3770   23.5730 C.3     1  UNL1        0.2292
     25 O         -30.7290   -1.8780   24.7210 O.3     1  UNL1       -0.2162
     26 C         -26.3540    0.5760   25.7770 C.3     1  UNL1        0.2437
     27 F         -25.8600   -0.6810   25.7950 F       1  UNL1       -0.2265
     28 C         -21.7852    1.2063   28.7793 C.2     1  UNL1       -0.0289
     29 C         -24.1718    0.4731   27.9227 C.3     1  UNL1        0.0279
     30 C         -21.0142    1.6722   27.5771 C.2     1  UNL1       -0.0260
     31 C         -23.7682    1.9710   29.7690 C.3     1  UNL1        0.0938
     32 O         -24.6249    3.9332   32.3183 O.2     1  UNL1       -0.2734
     33 C         -21.7788    2.0700   26.2379 C.3     1  UNL1        0.0510
     34 C         -25.6939    3.3309   32.3425 C.2     1  UNL1        0.2416
     35 C         -23.3217    2.0793   25.9900 C.2     1  UNL1       -0.0295
     36 C         -23.2387    1.2289   28.7429 C.3     1  UNL1        0.0431
     37 N         -26.7889    3.8256   33.0547 N.am    1  UNL1       -0.2749
     38 N         -25.1266    2.3915   30.0379 N.3     1  UNL1       -0.2099
     39 C         -25.7923    2.0817   31.4035 C.3     1  UNL1        0.1502
     40 C         -27.0197    5.2466   32.6512 C.3     1  UNL1        0.1149
     41 C         -26.7523    3.8221   34.5375 C.3     1  UNL1        0.1149
     42 C         -24.4095    1.4036   26.8327 C.2     1  UNL1       -0.0407
@<TRIPOS>BOND
     1     2     7    1
     2     2     1    1
     3     3     2    2
     4     4     3    1
     5     4     5    2
     6     5     6    1
     7     6     7    2
     8     8     1    1
     9     8     9    1
    10     8    12    1
    11     9    39    1
    12     9    10    1
    13    10    11    1
    14    12    11    1
    15    13    42    1
    16    14    13    1
    17    14    15    1
    18    15    18    2
    19    16    17    1
    20    16    15    1
    21    19    14    2
    22    20    21    2
    23    20    19    1
    24    21    26    1
    25    22    21    1
    26    23    22    1
    27    24    23    1
    28    24    25    1
    29    26    27    1
    30    26    13    1
    31    29    36    1
    32    30    28    2
    33    31    38    1
    34    32    34    2
    35    33    30    1
    36    34    37   am
    37    35    33    1
    38    35    42    2
    39    36    28    1
    40    36    31    1
    41    37    41    1
    42    39    38    1
    43    39    34    1
    44    40    37    1
    45    42    29    1
