@<TRIPOS>MOLECULE
No_1374-gen_results/8p0m/2024-11-27-11-27-31/
 13 14 0 0 0
SMALL
GASTEIGER

@<TRIPOS>ATOM
      1 C         -28.0162   -0.8135   28.8779 C.ar    1  UNL1       -0.0003
      2 C         -28.4690   -0.7850   29.8287 C.ar    1  UNL1       -0.0000
      3 C         -26.5042   -0.7777   28.8766 C.ar    1  UNL1       -0.0039
      4 C         -25.8103   -0.8531   30.1028 C.ar    1  UNL1       -0.0178
      5 C         -27.9906   -0.8916   31.2257 C.ar    1  UNL1       -0.0003
      6 C         -24.3976   -0.8364   30.1775 C.3     1  UNL1        0.0526
      7 C         -26.5754   -0.8899   31.2661 C.ar    1  UNL1       -0.0039
      8 C         -23.7964    0.4357   29.9090 C.ar    1  UNL1       -0.0178
      9 C         -24.1689    1.5903   30.3140 C.ar    1  UNL1       -0.0039
     10 C         -23.6595    2.8048   29.7958 C.ar    1  UNL1       -0.0003
     11 C         -22.8262    2.6459   28.6399 C.ar    1  UNL1       -0.0000
     12 C         -22.8783    0.6031   28.7315 C.ar    1  UNL1       -0.0039
     13 C         -22.4020    1.5943   28.2172 C.ar    1  UNL1       -0.0003
@<TRIPOS>BOND
     1     4     6    1
     2     6     8    1
     3     8     9   ar
     4     9    10   ar
     5    10    11   ar
     6    11    13   ar
     7    13    12   ar
     8    12     8   ar
     9     1     2   ar
    10     2     5   ar
    11     5     7   ar
    12     7     4   ar
    13     4     3   ar
    14     3     1   ar
