@<TRIPOS>MOLECULE
outputs/IAG933/test6/raw/output_1375_IAG933_linker_design_.xyz
 45 49 0 0 0
SMALL
GASTEIGER

@<TRIPOS>ATOM
      1 C         -24.8550   -1.0120   30.1430 C.3     1  UNL1        0.0827
      2 C         -24.9730   -2.5050   29.7880 C.2     1  UNL1       -0.0173
      3 C         -23.9060   -3.1730   29.1460 C.2     1  UNL1       -0.0041
      4 C         -23.9890   -4.5490   28.8530 C.2     1  UNL1       -0.0003
      5 C         -25.1370   -5.2800   29.2050 C.2     1  UNL1       -0.0000
      6 C         -26.2320   -4.6110   29.7840 C.2     1  UNL1       -0.0003
      7 C         -26.1550   -3.2320   30.0650 C.2     1  UNL1       -0.0041
      8 C         -25.3870   -0.6790   31.5710 C.3     1  UNL1        0.0806
      9 C         -25.1890    0.7730   32.0280 C.3     1  UNL1        0.0193
     10 C         -25.3360    0.6840   33.5440 C.3     1  UNL1        0.0202
     11 C         -24.8290   -0.7150   33.9050 C.3     1  UNL1        0.0887
     12 N         -24.7580   -1.4810   32.6460 N.3     1  UNL1       -0.2190
     13 C         -25.6880    1.6140   26.4610 C.3     1  UNL1        0.0922
     14 C         -26.2500    2.9200   26.3950 C.2     1  UNL1        0.0589
     15 C         -25.6420    4.0930   27.1230 C.2     1  UNL1        0.2628
     16 N         -25.6140    5.2520   26.4490 N.am    1  UNL1       -0.2000
     17 C         -25.0260    6.4790   26.9630 C.3     1  UNL1        0.1388
     18 O         -25.1430    3.9660   28.2430 O.2     1  UNL1       -0.2686
     19 C         -27.4380    3.0910   25.6450 C.2     1  UNL1        0.1025
     20 N         -28.0750    2.0890   25.0030 N.2     1  UNL1       -0.2118
     21 C         -27.5430    0.8490   25.0790 C.2     1  UNL1        0.2344
     22 O         -28.1930   -0.2080   24.4770 O.2     1  UNL1       -0.4585
     23 C         -29.4600    0.0050   23.8660 C.3     1  UNL1        0.2423
     24 C         -30.0650   -1.3770   23.5730 C.3     1  UNL1        0.2292
     25 O         -30.7290   -1.8780   24.7210 O.3     1  UNL1       -0.2162
     26 C         -26.3540    0.5760   25.7770 C.3     1  UNL1        0.2440
     27 F         -25.8600   -0.6810   25.7950 F       1  UNL1       -0.2265
     28 N         -28.0154    1.9056   29.8315 N.2     1  UNL1       -0.2114
     29 C         -27.1460    0.8225   29.6325 C.2     1  UNL1        0.2006
     30 C         -24.9925   -0.0735   28.8910 C.3     1  UNL1        0.1944
     31 O         -30.6297    3.4767   28.1188 O.2     1  UNL1       -0.2650
     32 C         -27.6072   -0.4680   29.5889 C.3     1  UNL1        0.0892
     33 C         -23.3033    1.8941   26.0243 C.2     1  UNL1       -0.0041
     34 C         -28.8644   -0.5676   29.0972 C.3     1  UNL1        0.0334
     35 C         -24.2752    1.3628   26.8794 C.2     1  UNL1       -0.0157
     36 C         -23.8899    0.6501   28.0501 C.2     1  UNL1        0.0140
     37 C         -29.6404    3.1801   28.7465 C.2     1  UNL1        0.3014
     38 C         -21.5887    1.3202   27.5891 C.2     1  UNL1       -0.0002
     39 O         -25.8722    1.0289   29.3113 O.2     1  UNL1       -0.4621
     40 N         -28.8209    4.2478   29.0770 N.am    1  UNL1       -0.0824
     41 C         -29.1578    1.8469   29.1200 C.2     1  UNL1        0.1326
     42 C         -22.5459    0.6882   28.4047 C.2     1  UNL1       -0.0011
     43 C         -21.9797    1.9325   26.4018 C.2     1  UNL1       -0.0003
     44 C         -29.5167    0.5674   28.6360 C.2     1  UNL1       -0.0211
     45 C         -30.4803    0.2964   27.5119 C.3     1  UNL1        0.0281
@<TRIPOS>BOND
     1     1    30    1
     2     2     7    1
     3     2     1    1
     4     3     2    2
     5     4     3    1
     6     4     5    2
     7     5     6    1
     8     6     7    2
     9     8     1    1
    10     8     9    1
    11     8    12    1
    12     9    10    1
    13    10    11    1
    14    12    11    1
    15    13    35    1
    16    14    13    1
    17    14    15    1
    18    15    18    2
    19    16    17    1
    20    16    15    1
    21    19    14    2
    22    20    21    2
    23    20    19    1
    24    21    26    1
    25    22    21    1
    26    23    22    1
    27    24    23    1
    28    24    25    1
    29    26    27    1
    30    26    13    1
    31    29    28    2
    32    30    39    1
    33    31    37    2
    34    32    29    1
    35    33    43    2
    36    33    35    1
    37    34    32    1
    38    35    36    2
    39    36    42    1
    40    36    30    1
    41    37    40    1
    42    37    41    1
    43    38    42    2
    44    39    29    1
    45    41    28    1
    46    43    38    1
    47    44    34    1
    48    44    41    2
    49    45    44    1
