@<TRIPOS>MOLECULE
No_1378-gen_results/8p0m/2024-11-27-11-27-31/
 20 21 0 0 0
SMALL
GASTEIGER

@<TRIPOS>ATOM
      1 C         -28.0162   -0.8135   28.8779 C.ar    1  UNL1        0.0385
      2 C         -27.0636   -0.1189   28.6079 C.ar    1  UNL1        0.0144
      3 C         -25.7647   -0.3897   29.0360 C.ar    1  UNL1        0.0684
      4 C         -25.5296   -1.5302   29.9014 C.ar    1  UNL1        0.0712
      5 C         -26.6888   -2.2893   30.1810 C.ar    1  UNL1        0.0498
      6 C         -27.8727   -1.9508   29.7373 C.ar    1  UNL1        0.1499
      7 CL        -24.3819    0.5593   28.6789 Cl      1  UNL1       -0.0814
      8 O         -28.9605   -2.7338   30.0969 O.3     1  UNL1       -0.4164
      9 C         -30.0552   -2.1400   30.6083 C.2     1  UNL1        0.4267
     10 C         -30.6149   -2.9276   31.6189 C.2     1  UNL1        0.4625
     11 O         -31.5873   -2.4956   32.1700 O.co2   1  UNL1       -0.2332
     12 O         -29.9005   -3.7751   32.2153 O.co2   1  UNL1       -0.2332
     13 O         -30.5987   -1.3140   30.0168 O.2     1  UNL1       -0.2370
     14 C         -27.1509    1.0785   27.6404 C.ar    1  UNL1        0.0009
     15 C         -27.0648    2.2547   28.1524 C.ar    1  UNL1        0.0000
     16 C         -27.1488    3.3861   27.2927 C.ar    1  UNL1        0.0000
     17 C         -27.2641    3.1572   25.8971 C.ar    1  UNL1        0.0000
     18 C         -27.2174    0.9472   26.2595 C.ar    1  UNL1        0.0000
     19 C         -27.2824    1.9190   25.4114 C.ar    1  UNL1        0.0000
     20 CL        -23.9744   -1.8892   30.4185 Cl      1  UNL1       -0.0813
@<TRIPOS>BOND
     1     3     7    1
     2     6     8    1
     3     8     9    1
     4     9    10    1
     5    10    11   ar
     6    10    12   ar
     7     9    13    2
     8     2    14    1
     9     4    20    1
    10     1     2   ar
    11     2     3   ar
    12     3     4   ar
    13     4     5   ar
    14     5     6   ar
    15     6     1   ar
    16    14    15   ar
    17    15    16   ar
    18    16    17   ar
    19    17    19   ar
    20    19    18   ar
    21    18    14   ar
