@<TRIPOS>MOLECULE
No_1381-gen_results/8p0m/2024-11-27-11-27-31/
 35 39 0 0 0
SMALL
GASTEIGER

@<TRIPOS>ATOM
      1 C         -28.0162   -0.8135   28.8779 C.ar    1  UNL1        0.0001
      2 C         -28.4690   -0.7850   29.8287 C.ar    1  UNL1       -0.0003
      3 C         -27.0871    0.2903   28.6377 C.ar    1  UNL1        0.0041
      4 C         -26.8317    1.2487   29.5869 C.ar    1  UNL1        0.0524
      5 C         -28.3914    0.0801   31.0065 C.ar    1  UNL1       -0.0032
      6 C         -27.4940    1.1521   30.7841 C.ar    1  UNL1       -0.0020
      7 C         -26.3109    0.3918   27.3640 C.ar    1  UNL1        0.0001
      8 C         -26.7672    1.0252   26.3723 C.ar    1  UNL1        0.0000
      9 C         -26.0109    1.0160   25.1236 C.ar    1  UNL1        0.0000
     10 C         -25.0722   -0.2318   27.3154 C.ar    1  UNL1        0.0002
     11 C         -24.5434   -0.9182   28.5813 C.ar    1  UNL1        0.0064
     12 C         -24.6766    0.4704   25.1098 C.ar    1  UNL1        0.0000
     13 C         -24.2773   -0.1545   26.2174 C.ar    1  UNL1        0.0000
     14 C         -23.4684   -0.2725   29.2231 C.ar    1  UNL1        0.0798
     15 C         -22.8098    0.9308   28.8287 C.2     1  UNL1        0.3878
     16 C         -24.8999   -2.2124   28.8469 C.ar    1  UNL1        0.0002
     17 C         -24.6294   -2.7989   29.8195 C.ar    1  UNL1        0.0000
     18 C         -23.5948   -2.1812   30.7432 C.ar    1  UNL1        0.0002
     19 C         -23.0221   -1.0068   30.4055 C.ar    1  UNL1        0.0066
     20 C         -25.9551    2.4077   29.4107 C.2     1  UNL1        0.2710
     21 O         -25.5304    2.7377   28.4816 O.2     1  UNL1       -0.2679
     22 N         -25.6205    3.0591   30.6034 N.am    1  UNL1       -0.1403
     23 C         -26.0038    2.7055   31.9245 C.2     1  UNL1        0.2592
     24 C         -27.0591    1.8223   32.0779 C.3     1  UNL1        0.1625
     25 O         -21.6530    0.7962   28.5502 O.co2   1  UNL1       -0.2406
     26 C         -27.5309    1.5235   33.3875 C.2     1  UNL1        0.1855
     27 C         -27.1485    0.3567   33.9307 C.ar    1  UNL1        0.0355
     28 C         -25.9846   -0.1061   33.8155 C.ar    1  UNL1        0.0029
     29 C         -25.5044   -1.2477   34.6594 C.ar    1  UNL1        0.0001
     30 C         -26.3336   -1.6372   35.6740 C.ar    1  UNL1        0.0000
     31 C         -27.4197   -1.0262   35.8714 C.ar    1  UNL1        0.0001
     32 C         -27.9184    0.0235   35.1191 C.ar    1  UNL1        0.0029
     33 O         -28.4553    2.3506   33.7250 O.2     1  UNL1       -0.2905
     34 O         -25.4616    3.4300   32.8450 O.2     1  UNL1       -0.2721
     35 O         -23.4051    2.0697   28.8026 O.co2   1  UNL1       -0.2406
@<TRIPOS>BOND
     1     3     7    1
     2    10    11    1
     3    14    15    1
     4     4    20    1
     5    20    21    2
     6    20    22   am
     7    22    23   am
     8     6    24    1
     9    23    24    1
    10    15    25   ar
    11    24    26    1
    12    26    27    1
    13    26    33    2
    14    23    34    2
    15    15    35   ar
    16     7     8   ar
    17     8     9   ar
    18     9    12   ar
    19    12    13   ar
    20    13    10   ar
    21    10     7   ar
    22    27    28   ar
    23    28    29   ar
    24    29    30   ar
    25    30    31   ar
    26    31    32   ar
    27    32    27   ar
    28    11    14   ar
    29    14    19   ar
    30    19    18   ar
    31    18    17   ar
    32    17    16   ar
    33    16    11   ar
    34     1     2   ar
    35     2     5   ar
    36     5     6   ar
    37     6     4   ar
    38     4     3   ar
    39     3     1   ar
