@<TRIPOS>MOLECULE
No_1383-gen_results/8p0m/2024-11-27-11-27-31/
 22 23 0 0 0
SMALL
GASTEIGER

@<TRIPOS>ATOM
      1 C         -28.0162   -0.8135   28.8779 C.ar    1  UNL1       -0.0003
      2 C         -28.4690   -0.7850   29.8287 C.ar    1  UNL1       -0.0000
      3 C         -26.5042   -0.7777   28.8766 C.ar    1  UNL1       -0.0039
      4 C         -25.8103   -0.8531   30.1028 C.ar    1  UNL1       -0.0178
      5 C         -27.9906   -0.8916   31.2257 C.ar    1  UNL1       -0.0003
      6 C         -26.6042   -0.8676   31.2652 C.ar    1  UNL1       -0.0039
      7 C         -24.3894   -0.8049   30.1638 C.3     1  UNL1        0.0520
      8 C         -23.8172    0.4762   29.9118 C.2     1  UNL1       -0.0260
      9 C         -22.5010    0.5449   29.4097 C.2     1  UNL1       -0.0304
     10 C         -21.9695    1.7500   28.9289 C.3     1  UNL1        0.0260
     11 C         -22.4910    1.9927   27.5925 C.3     1  UNL1        0.0128
     12 C         -23.8754    2.4372   27.5369 C.3     1  UNL1        0.0969
     13 C         -24.3252    2.5587   26.2246 C.3     1  UNL1        0.0342
     14 C         -25.3757    1.8369   25.8677 C.ar    1  UNL1       -0.0219
     15 C         -25.2176    0.6224   25.1512 C.ar    1  UNL1       -0.0043
     16 C         -26.3014   -0.2504   24.8941 C.ar    1  UNL1       -0.0003
     17 C         -27.5329    0.3416   24.7373 C.ar    1  UNL1       -0.0000
     18 C         -27.8163    1.5800   25.3490 C.ar    1  UNL1       -0.0003
     19 C         -26.7432    2.4040   25.8457 C.ar    1  UNL1       -0.0043
     20 C         -24.7133    1.5509   28.4761 C.3     1  UNL1        0.4260
     21 O         -25.5978    2.2470   29.3229 O.2     1  UNL1       -0.2671
     22 O         -25.1501    0.4210   27.8264 O.2     1  UNL1       -0.2671
@<TRIPOS>BOND
     1     4     7    1
     2     7     8    1
     3     8     9    2
     4     9    10    1
     5    10    11    1
     6    11    12    1
     7    12    13    1
     8    13    14    1
     9    12    20    1
    10    20    21    1
    11    20    22    1
    12    14    15   ar
    13    15    16   ar
    14    16    17   ar
    15    17    18   ar
    16    18    19   ar
    17    19    14   ar
    18     1     2   ar
    19     2     5   ar
    20     5     6   ar
    21     6     4   ar
    22     4     3   ar
    23     3     1   ar
