@<TRIPOS>MOLECULE
outputs/IAG933/test6/raw/output_1384_IAG933_linker_design_.xyz
 43 46 0 0 0
SMALL
GASTEIGER

@<TRIPOS>ATOM
      1 C         -24.8550   -1.0120   30.1430 C.3     1  UNL1        0.0438
      2 C         -24.9730   -2.5050   29.7880 C.2     1  UNL1       -0.0210
      3 C         -23.9060   -3.1730   29.1460 C.2     1  UNL1       -0.0042
      4 C         -23.9890   -4.5490   28.8530 C.2     1  UNL1       -0.0003
      5 C         -25.1370   -5.2800   29.2050 C.2     1  UNL1       -0.0000
      6 C         -26.2320   -4.6110   29.7840 C.2     1  UNL1       -0.0003
      7 C         -26.1550   -3.2320   30.0650 C.2     1  UNL1       -0.0042
      8 C         -25.3870   -0.6790   31.5710 C.3     1  UNL1        0.0770
      9 C         -25.1890    0.7730   32.0280 C.3     1  UNL1        0.0192
     10 C         -25.3360    0.6840   33.5440 C.3     1  UNL1        0.0202
     11 C         -24.8290   -0.7150   33.9050 C.3     1  UNL1        0.0887
     12 N         -24.7580   -1.4810   32.6460 N.3     1  UNL1       -0.2191
     13 C         -25.6880    1.6140   26.4610 C.2     1  UNL1        0.1058
     14 C         -26.2500    2.9200   26.3950 C.2     1  UNL1        0.0915
     15 C         -25.6420    4.0930   27.1230 C.2     1  UNL1        0.2677
     16 N         -25.6140    5.2520   26.4490 N.am    1  UNL1       -0.1997
     17 C         -25.0260    6.4790   26.9630 C.3     1  UNL1        0.1388
     18 O         -25.1430    3.9660   28.2430 O.2     1  UNL1       -0.2683
     19 C         -27.4380    3.0910   25.6450 C.2     1  UNL1        0.1080
     20 N         -28.0750    2.0890   25.0030 N.2     1  UNL1       -0.2080
     21 C         -27.5430    0.8490   25.0790 C.2     1  UNL1        0.2546
     22 O         -28.1930   -0.2080   24.4770 O.2     1  UNL1       -0.4558
     23 C         -29.4600    0.0050   23.8660 C.3     1  UNL1        0.2426
     24 C         -30.0650   -1.3770   23.5730 C.3     1  UNL1        0.2292
     25 O         -30.7290   -1.8780   24.7210 O.3     1  UNL1       -0.2162
     26 C         -26.3540    0.5760   25.7770 C.2     1  UNL1        0.2078
     27 F         -25.8600   -0.6810   25.7950 F       1  UNL1       -0.1979
     28 C         -26.7593    0.2744   29.1462 C.3     1  UNL1        0.0772
     29 N         -24.3990    1.3313   26.9541 N.pl3   1  UNL1       -0.2079
     30 C         -25.3340    0.0207   29.1509 C.3     1  UNL1        0.0697
     31 C         -24.5030    0.9322   28.5617 C.3     1  UNL1        0.2099
     32 O         -23.3598    1.3748   29.2416 O.3     1  UNL1       -0.3363
     33 C         -21.7051    1.8873   26.6932 C.3     1  UNL1        0.0027
     34 C         -29.3691    1.4405   28.7771 C.3     1  UNL1        0.0200
     35 C         -27.6449   -0.6826   28.6401 C.3     1  UNL1        0.0202
     36 C         -29.6804   -0.7411   29.6237 C.3     1  UNL1        0.1821
     37 N         -27.0916    1.5144   29.5389 N.3     1  UNL1       -0.2207
     38 C         -22.2449    0.4481   29.1566 C.3     1  UNL1        0.1441
     39 O         -29.7069   -2.0938   29.2354 O.3     1  UNL1       -0.2204
     40 C         -28.5025    3.6768   29.5326 C.3     1  UNL1        0.0188
     41 C         -28.1227    2.2987   28.9974 C.3     1  UNL1        0.0729
     42 C         -28.9464   -0.0250   28.5227 C.3     1  UNL1        0.0358
     43 C         -21.2849    1.0870   27.9650 C.3     1  UNL1        0.0321
@<TRIPOS>BOND
     1     1    30    1
     2     2     7    1
     3     2     1    1
     4     3     2    2
     5     4     3    1
     6     4     5    2
     7     5     6    1
     8     6     7    2
     9     8     1    1
    10     8     9    1
    11     8    12    1
    12     9    10    1
    13    10    11    1
    14    12    11    1
    15    13    29    1
    16    14    13    1
    17    14    15    1
    18    15    18    2
    19    16    17    1
    20    16    15    1
    21    19    14    2
    22    20    21    2
    23    20    19    1
    24    21    26    1
    25    22    21    1
    26    23    22    1
    27    24    23    1
    28    24    25    1
    29    26    27    1
    30    26    13    2
    31    28    30    1
    32    28    37    1
    33    30    31    1
    34    31    29    1
    35    31    32    1
    36    33    43    1
    37    34    41    1
    38    35    28    1
    39    38    32    1
    40    39    36    1
    41    41    40    1
    42    41    37    1
    43    42    35    1
    44    42    34    1
    45    42    36    1
    46    43    38    1
