@<TRIPOS>MOLECULE
outputs/IAG933/test6/raw/output_1385_IAG933_linker_design_.xyz
 45 50 0 0 0
SMALL
GASTEIGER

@<TRIPOS>ATOM
      1 C         -24.8550   -1.0120   30.1430 C.3     1  UNL1        0.0441
      2 C         -24.9730   -2.5050   29.7880 C.2     1  UNL1       -0.0208
      3 C         -23.9060   -3.1730   29.1460 C.2     1  UNL1       -0.0042
      4 C         -23.9890   -4.5490   28.8530 C.2     1  UNL1       -0.0003
      5 C         -25.1370   -5.2800   29.2050 C.2     1  UNL1       -0.0000
      6 C         -26.2320   -4.6110   29.7840 C.2     1  UNL1       -0.0003
      7 C         -26.1550   -3.2320   30.0650 C.2     1  UNL1       -0.0042
      8 C         -25.3870   -0.6790   31.5710 C.3     1  UNL1        0.0840
      9 C         -25.1890    0.7730   32.0280 C.3     1  UNL1        0.0761
     10 C         -25.3360    0.6840   33.5440 C.3     1  UNL1        0.0276
     11 C         -24.8290   -0.7150   33.9050 C.3     1  UNL1        0.0891
     12 N         -24.7580   -1.4810   32.6460 N.3     1  UNL1       -0.2187
     13 C         -25.6880    1.6140   26.4610 C.2     1  UNL1        0.0234
     14 C         -26.2500    2.9200   26.3950 C.2     1  UNL1        0.0520
     15 C         -25.6420    4.0930   27.1230 C.2     1  UNL1        0.2120
     16 N         -25.6140    5.2520   26.4490 N.pl3   1  UNL1       -0.2035
     17 C         -25.0260    6.4790   26.9630 C.3     1  UNL1        0.1387
     18 O         -25.1430    3.9660   28.2430 O.2     1  UNL1       -0.4422
     19 C         -27.4380    3.0910   25.6450 C.3     1  UNL1        0.1590
     20 N         -28.0750    2.0890   25.0030 N.2     1  UNL1       -0.2341
     21 C         -27.5430    0.8490   25.0790 C.2     1  UNL1        0.2341
     22 O         -28.1930   -0.2080   24.4770 O.2     1  UNL1       -0.4585
     23 C         -29.4600    0.0050   23.8660 C.3     1  UNL1        0.2423
     24 C         -30.0650   -1.3770   23.5730 C.3     1  UNL1        0.2292
     25 O         -30.7290   -1.8780   24.7210 O.3     1  UNL1       -0.2162
     26 C         -26.3540    0.5760   25.7770 C.3     1  UNL1        0.2578
     27 F         -25.8600   -0.6810   25.7950 F       1  UNL1       -0.2223
     28 C         -22.9374    1.5501   25.9914 C.2     1  UNL1        0.1401
     29 C         -29.8477    4.1462   29.2242 C.2     1  UNL1       -0.0000
     30 F         -22.8146    1.5290   24.5982 F       1  UNL1       -0.2042
     31 C         -25.4968    2.1827   31.5239 C.2     1  UNL1        0.1625
     32 C         -26.0048    2.5706   30.1570 C.3     1  UNL1        0.1371
     33 O         -25.3801    3.1663   32.2969 O.2     1  UNL1       -0.2952
     34 O         -22.9885    1.6549   30.1866 O.2     1  UNL1       -0.2865
     35 C         -29.6472    3.5844   30.4743 C.2     1  UNL1       -0.0003
     36 C         -28.7279    4.4511   28.4561 C.2     1  UNL1       -0.0003
     37 C         -24.1855    1.6610   26.8192 C.2     1  UNL1        0.0322
     38 C         -24.0319    1.9396   28.2013 C.2     1  UNL1        0.0720
     39 C         -27.4661    4.1497   28.9445 C.2     1  UNL1       -0.0034
     40 C         -27.2977    3.3648   30.0724 C.2     1  UNL1       -0.0084
     41 C         -22.8302    1.7387   28.8872 C.2     1  UNL1        0.1984
     42 C         -21.7023    1.5239   26.6638 C.2     1  UNL1        0.0329
     43 C         -21.6603    1.5870   28.0768 C.2     1  UNL1        0.0444
     44 C         -25.0810    2.5830   28.9730 C.2     1  UNL1        0.1381
     45 C         -28.3982    3.1840   30.9145 C.2     1  UNL1       -0.0034
@<TRIPOS>BOND
     1     2     7    1
     2     2     1    1
     3     3     2    2
     4     4     3    1
     5     4     5    2
     6     5     6    1
     7     6     7    2
     8     8     1    1
     9     8     9    1
    10     8    12    1
    11     9    31    1
    12     9    10    1
    13    10    11    1
    14    12    11    1
    15    13    37    2
    16    14    13    1
    17    14    15    2
    18    15    18    1
    19    16    17    1
    20    16    15    1
    21    18    44    1
    22    19    14    1
    23    20    21    2
    24    20    19    1
    25    21    26    1
    26    22    21    1
    27    23    22    1
    28    24    23    1
    29    24    25    1
    30    26    27    1
    31    26    13    1
    32    28    42    2
    33    28    37    1
    34    29    35    1
    35    30    28    1
    36    31    33    2
    37    32    31    1
    38    35    45    2
    39    36    39    1
    40    36    29    2
    41    37    38    1
    42    38    41    1
    43    38    44    2
    44    39    40    2
    45    40    32    1
    46    40    45    1
    47    41    34    1
    48    42    43    1
    49    43    41    2
    50    44    32    1
