@<TRIPOS>MOLECULE
outputs/IAG933/test6/raw/output_1386_IAG933_linker_design_.xyz
 44 48 0 0 0
SMALL
GASTEIGER

@<TRIPOS>ATOM
      1 C         -24.8550   -1.0120   30.1430 C.3     1  UNL1        0.0621
      2 C         -24.9730   -2.5050   29.7880 C.2     1  UNL1       -0.0193
      3 C         -23.9060   -3.1730   29.1460 C.2     1  UNL1       -0.0042
      4 C         -23.9890   -4.5490   28.8530 C.2     1  UNL1       -0.0003
      5 C         -25.1370   -5.2800   29.2050 C.2     1  UNL1       -0.0000
      6 C         -26.2320   -4.6110   29.7840 C.2     1  UNL1       -0.0003
      7 C         -26.1550   -3.2320   30.0650 C.2     1  UNL1       -0.0042
      8 C         -25.3870   -0.6790   31.5710 C.3     1  UNL1        0.0786
      9 C         -25.1890    0.7730   32.0280 C.3     1  UNL1        0.0193
     10 C         -25.3360    0.6840   33.5440 C.3     1  UNL1        0.0202
     11 C         -24.8290   -0.7150   33.9050 C.3     1  UNL1        0.0887
     12 N         -24.7580   -1.4810   32.6460 N.3     1  UNL1       -0.2191
     13 C         -25.6880    1.6140   26.4610 C.2     1  UNL1        0.0378
     14 C         -26.2500    2.9200   26.3950 C.2     1  UNL1        0.0765
     15 C         -25.6420    4.0930   27.1230 C.2     1  UNL1        0.2664
     16 N         -25.6140    5.2520   26.4490 N.am    1  UNL1       -0.1997
     17 C         -25.0260    6.4790   26.9630 C.3     1  UNL1        0.1388
     18 O         -25.1430    3.9660   28.2430 O.2     1  UNL1       -0.2683
     19 C         -27.4380    3.0910   25.6450 C.2     1  UNL1        0.1067
     20 N         -28.0750    2.0890   25.0030 N.2     1  UNL1       -0.2081
     21 C         -27.5430    0.8490   25.0790 C.2     1  UNL1        0.2533
     22 O         -28.1930   -0.2080   24.4770 O.2     1  UNL1       -0.4558
     23 C         -29.4600    0.0050   23.8660 C.3     1  UNL1        0.2426
     24 C         -30.0650   -1.3770   23.5730 C.3     1  UNL1        0.2292
     25 O         -30.7290   -1.8780   24.7210 O.3     1  UNL1       -0.2162
     26 C         -26.3540    0.5760   25.7770 C.2     1  UNL1        0.1930
     27 F         -25.8600   -0.6810   25.7950 F       1  UNL1       -0.1992
     28 C         -29.7869    3.0312   29.3610 C.2     1  UNL1        0.0031
     29 C         -21.8881    1.6586   26.6710 C.2     1  UNL1       -0.0000
     30 C         -23.2029    1.6747   26.1164 C.2     1  UNL1       -0.0002
     31 N         -26.3398   -0.1605   28.4650 N.3     1  UNL1       -0.0242
     32 O         -28.6481   -1.0780   29.1467 O.2     1  UNL1       -0.2836
     33 C         -22.7551    0.7982   28.8717 C.2     1  UNL1       -0.0028
     34 C         -24.0677    0.6607   28.3007 C.2     1  UNL1       -0.0025
     35 C         -25.0995   -0.1792   28.9439 C.3     1  UNL1        0.1432
     36 C         -21.6833    1.2878   28.0256 C.2     1  UNL1       -0.0003
     37 C         -24.3019    1.3054   26.9595 C.2     1  UNL1       -0.0000
     38 C         -28.5304    2.5950   29.8567 C.2     1  UNL1        0.0428
     39 O         -26.7892    0.9158   29.2596 O.2     1  UNL1       -0.3809
     40 C         -31.0124   -0.0600   27.4946 C.3     1  UNL1        0.0345
     41 C         -28.9608    0.3080   29.0214 C.2     1  UNL1        0.2278
     42 C         -30.5581    2.1509   28.5647 C.2     1  UNL1       -0.0009
     43 C         -30.1839    0.7946   28.3912 C.2     1  UNL1        0.0202
     44 C         -28.0971    1.2984   29.5273 C.2     1  UNL1        0.2053
@<TRIPOS>BOND
     1     1    35    1
     2     2     7    1
     3     2     1    1
     4     3     2    2
     5     4     3    1
     6     4     5    2
     7     5     6    1
     8     6     7    2
     9     8     1    1
    10     8     9    1
    11     8    12    1
    12     9    10    1
    13    10    11    1
    14    12    11    1
    15    13    37    1
    16    14    13    1
    17    14    15    1
    18    15    18    2
    19    16    17    1
    20    16    15    1
    21    19    14    2
    22    20    21    2
    23    20    19    1
    24    21    26    1
    25    22    21    1
    26    23    22    1
    27    24    23    1
    28    24    25    1
    29    26    27    1
    30    26    13    2
    31    28    38    1
    32    29    36    1
    33    30    29    2
    34    30    37    1
    35    31    39    1
    36    34    33    1
    37    34    35    1
    38    35    31    1
    39    36    33    2
    40    37    34    2
    41    39    44    1
    42    40    43    1
    43    41    32    1
    44    41    44    1
    45    42    28    2
    46    43    42    1
    47    43    41    2
    48    44    38    2
