@<TRIPOS>MOLECULE
outputs/IAG933/test6/raw/output_1389_IAG933_linker_design_.xyz
 42 44 0 0 0
SMALL
GASTEIGER

@<TRIPOS>ATOM
      1 C         -24.8550   -1.0120   30.1430 C.3     1  UNL1        0.0519
      2 C         -24.9730   -2.5050   29.7880 C.2     1  UNL1       -0.0205
      3 C         -23.9060   -3.1730   29.1460 C.2     1  UNL1       -0.0042
      4 C         -23.9890   -4.5490   28.8530 C.2     1  UNL1       -0.0003
      5 C         -25.1370   -5.2800   29.2050 C.2     1  UNL1       -0.0000
      6 C         -26.2320   -4.6110   29.7840 C.2     1  UNL1       -0.0003
      7 C         -26.1550   -3.2320   30.0650 C.2     1  UNL1       -0.0042
      8 C         -25.3870   -0.6790   31.5710 C.3     1  UNL1        0.0774
      9 C         -25.1890    0.7730   32.0280 C.3     1  UNL1        0.0192
     10 C         -25.3360    0.6840   33.5440 C.3     1  UNL1        0.0202
     11 C         -24.8290   -0.7150   33.9050 C.3     1  UNL1        0.0887
     12 N         -24.7580   -1.4810   32.6460 N.3     1  UNL1       -0.2191
     13 C         -25.6880    1.6140   26.4610 C.2     1  UNL1        0.0393
     14 C         -26.2500    2.9200   26.3950 C.2     1  UNL1        0.0764
     15 C         -25.6420    4.0930   27.1230 C.2     1  UNL1        0.2664
     16 N         -25.6140    5.2520   26.4490 N.am    1  UNL1       -0.1997
     17 C         -25.0260    6.4790   26.9630 C.3     1  UNL1        0.1388
     18 O         -25.1430    3.9660   28.2430 O.2     1  UNL1       -0.2683
     19 C         -27.4380    3.0910   25.6450 C.2     1  UNL1        0.1067
     20 N         -28.0750    2.0890   25.0030 N.2     1  UNL1       -0.2081
     21 C         -27.5430    0.8490   25.0790 C.2     1  UNL1        0.2533
     22 O         -28.1930   -0.2080   24.4770 O.2     1  UNL1       -0.4558
     23 C         -29.4600    0.0050   23.8660 C.3     1  UNL1        0.2426
     24 C         -30.0650   -1.3770   23.5730 C.3     1  UNL1        0.2292
     25 O         -30.7290   -1.8780   24.7210 O.3     1  UNL1       -0.2162
     26 C         -26.3540    0.5760   25.7770 C.2     1  UNL1        0.1929
     27 F         -25.8600   -0.6810   25.7950 F       1  UNL1       -0.1992
     28 C         -23.2498    1.7202   26.3986 C.2     1  UNL1        0.1985
     29 C         -22.1533    1.6103   26.9001 C.3     1  UNL1        0.2380
     30 C         -20.4950    0.2815   28.6904 C.3     1  UNL1        0.1076
     31 O         -23.2250    2.2344   25.1677 O.2     1  UNL1       -0.2938
     32 N         -21.7006    0.2929   28.6704 N.3     1  UNL1       -0.2132
     33 F         -22.0697    2.1819   24.8039 F       1  UNL1        0.0135
     34 C         -25.2242   -0.1517   28.9554 C.3     1  UNL1        0.1433
     35 C         -24.4532    1.3743   27.1413 C.2     1  UNL1        0.0475
     36 C         -24.4430    1.0217   28.4040 C.3     1  UNL1        0.1881
     37 F         -20.9937    1.9135   27.0325 F       1  UNL1       -0.2274
     38 O         -26.4711    1.7071   29.6232 O.co2   1  UNL1       -0.2456
     39 O         -23.9104    1.8330   29.4472 O.3     1  UNL1       -0.2176
     40 C         -21.7608    1.3107   27.8956 C.3     1  UNL1        0.1319
     41 O         -27.5585   -0.1665   28.8605 O.co2   1  UNL1       -0.2456
     42 C         -26.4862    0.5298   29.1058 C.2     1  UNL1        0.3675
@<TRIPOS>BOND
     1     1    34    1
     2     2     7    1
     3     2     1    1
     4     3     2    2
     5     4     3    1
     6     4     5    2
     7     5     6    1
     8     6     7    2
     9     8     1    1
    10     8     9    1
    11     8    12    1
    12     9    10    1
    13    10    11    1
    14    12    11    1
    15    13    35    1
    16    14    13    1
    17    14    15    1
    18    15    18    2
    19    16    17    1
    20    16    15    1
    21    19    14    2
    22    20    21    2
    23    20    19    1
    24    21    26    1
    25    22    21    1
    26    23    22    1
    27    24    23    1
    28    24    25    1
    29    26    27    1
    30    26    13    2
    31    28    29    1
    32    28    35    2
    33    29    37    1
    34    29    40    1
    35    31    28    1
    36    32    30    1
    37    33    31    1
    38    34    42    1
    39    35    36    1
    40    36    34    1
    41    36    39    1
    42    40    32    1
    43    41    42   ar
    44    42    38   ar
