@<TRIPOS>MOLECULE
outputs/IAG933/test6/raw/output_1390_IAG933_linker_design_.xyz
 42 46 0 0 0
SMALL
GASTEIGER

@<TRIPOS>ATOM
      1 C         -24.8550   -1.0120   30.1430 C.3     1  UNL1        0.1241
      2 C         -24.9730   -2.5050   29.7880 C.2     1  UNL1       -0.0004
      3 C         -23.9060   -3.1730   29.1460 C.2     1  UNL1       -0.0024
      4 C         -23.9890   -4.5490   28.8530 C.2     1  UNL1       -0.0003
      5 C         -25.1370   -5.2800   29.2050 C.2     1  UNL1       -0.0000
      6 C         -26.2320   -4.6110   29.7840 C.2     1  UNL1       -0.0003
      7 C         -26.1550   -3.2320   30.0650 C.2     1  UNL1       -0.0024
      8 C         -25.3870   -0.6790   31.5710 C.3     1  UNL1        0.0977
      9 C         -25.1890    0.7730   32.0280 C.3     1  UNL1        0.0211
     10 C         -25.3360    0.6840   33.5440 C.3     1  UNL1        0.0203
     11 C         -24.8290   -0.7150   33.9050 C.3     1  UNL1        0.0888
     12 N         -24.7580   -1.4810   32.6460 N.3     1  UNL1       -0.2172
     13 C         -25.6880    1.6140   26.4610 C.2     1  UNL1        0.0229
     14 C         -26.2500    2.9200   26.3950 C.2     1  UNL1        0.0563
     15 C         -25.6420    4.0930   27.1230 C.2     1  UNL1        0.2625
     16 N         -25.6140    5.2520   26.4490 N.am    1  UNL1       -0.2000
     17 C         -25.0260    6.4790   26.9630 C.3     1  UNL1        0.1388
     18 O         -25.1430    3.9660   28.2430 O.2     1  UNL1       -0.2687
     19 C         -27.4380    3.0910   25.6450 C.3     1  UNL1        0.1591
     20 N         -28.0750    2.0890   25.0030 N.2     1  UNL1       -0.2341
     21 C         -27.5430    0.8490   25.0790 C.2     1  UNL1        0.2341
     22 O         -28.1930   -0.2080   24.4770 O.2     1  UNL1       -0.4585
     23 C         -29.4600    0.0050   23.8660 C.3     1  UNL1        0.2423
     24 C         -30.0650   -1.3770   23.5730 C.3     1  UNL1        0.2292
     25 O         -30.7290   -1.8780   24.7210 O.3     1  UNL1       -0.2162
     26 C         -26.3540    0.5760   25.7770 C.3     1  UNL1        0.2578
     27 F         -25.8600   -0.6810   25.7950 F       1  UNL1       -0.2223
     28 O         -21.2994    0.7861   27.6287 O.2     1  UNL1       -0.4299
     29 F         -21.7241   -0.5602   29.5811 F       1  UNL1       -0.1613
     30 C         -23.3201    0.3334   28.5656 C.ar    1  UNL1        0.1275
     31 O         -27.6092    0.0883   29.1025 O.2     1  UNL1       -0.2668
     32 N         -27.4193    2.3889   29.1425 N.am    1  UNL1       -0.1985
     33 C         -22.2048    1.2267   26.8463 C.ar    1  UNL1        0.1601
     34 C         -25.3964    1.0720   28.7169 C.ar    1  UNL1        0.1159
     35 C         -24.8079    1.2852   27.3222 C.ar    1  UNL1        0.0236
     36 O         -23.0731    1.8400   24.7710 O.3     1  UNL1       -0.2117
     37 N         -24.5029    0.1054   29.2525 N.ar    1  UNL1       -0.3158
     38 C         -23.5524    1.0416   27.4363 C.ar    1  UNL1        0.0555
     39 C         -22.0260    0.1881   28.6267 C.ar    1  UNL1        0.3036
     40 C         -28.6701    2.7073   29.8574 C.3     1  UNL1        0.1389
     41 C         -21.8047    1.9527   25.5664 C.3     1  UNL1        0.2460
     42 C         -26.9047    1.0694   29.0688 C.2     1  UNL1        0.2807
@<TRIPOS>BOND
     1     1     2    1
     2     2     7    1
     3     3     2    2
     4     4     3    1
     5     4     5    2
     6     5     6    1
     7     6     7    2
     8     8     1    1
     9     8     9    1
    10     8    12    1
    11     9    10    1
    12    10    11    1
    13    12    11    1
    14    13    35    1
    15    14    13    2
    16    14    15    1
    17    15    18    2
    18    16    17    1
    19    16    15    1
    20    19    14    1
    21    20    21    2
    22    20    19    1
    23    21    26    1
    24    22    21    1
    25    23    22    1
    26    24    23    1
    27    24    25    1
    28    26    27    1
    29    26    13    1
    30    28    39   ar
    31    30    39   ar
    32    30    37   ar
    33    32    40    1
    34    33    38   ar
    35    33    28   ar
    36    34    42    1
    37    34    37   ar
    38    35    38   ar
    39    35    34   ar
    40    36    41    1
    41    37     1    1
    42    38    30   ar
    43    39    29    1
    44    41    33    1
    45    42    31    2
    46    42    32    1
