@<TRIPOS>MOLECULE
outputs/IAG933/test6/raw/output_1393_IAG933_linker_design_.xyz
 42 44 0 0 0
SMALL
GASTEIGER

@<TRIPOS>ATOM
      1 C         -24.8550   -1.0120   30.1430 C.3     1  UNL1        0.1157
      2 C         -24.9730   -2.5050   29.7880 C.2     1  UNL1       -0.0029
      3 C         -23.9060   -3.1730   29.1460 C.2     1  UNL1       -0.0026
      4 C         -23.9890   -4.5490   28.8530 C.2     1  UNL1       -0.0003
      5 C         -25.1370   -5.2800   29.2050 C.2     1  UNL1       -0.0000
      6 C         -26.2320   -4.6110   29.7840 C.2     1  UNL1       -0.0003
      7 C         -26.1550   -3.2320   30.0650 C.2     1  UNL1       -0.0026
      8 C         -25.3870   -0.6790   31.5710 C.3     1  UNL1        0.0952
      9 C         -25.1890    0.7730   32.0280 C.3     1  UNL1        0.0209
     10 C         -25.3360    0.6840   33.5440 C.3     1  UNL1        0.0203
     11 C         -24.8290   -0.7150   33.9050 C.3     1  UNL1        0.0888
     12 N         -24.7580   -1.4810   32.6460 N.3     1  UNL1       -0.2174
     13 C         -25.6880    1.6140   26.4610 C.2     1  UNL1        0.0932
     14 C         -26.2500    2.9200   26.3950 C.2     1  UNL1        0.0903
     15 C         -25.6420    4.0930   27.1230 C.2     1  UNL1        0.2676
     16 N         -25.6140    5.2520   26.4490 N.am    1  UNL1       -0.1997
     17 C         -25.0260    6.4790   26.9630 C.3     1  UNL1        0.1388
     18 O         -25.1430    3.9660   28.2430 O.2     1  UNL1       -0.2683
     19 C         -27.4380    3.0910   25.6450 C.2     1  UNL1        0.1080
     20 N         -28.0750    2.0890   25.0030 N.2     1  UNL1       -0.2080
     21 C         -27.5430    0.8490   25.0790 C.2     1  UNL1        0.2546
     22 O         -28.1930   -0.2080   24.4770 O.2     1  UNL1       -0.4558
     23 C         -29.4600    0.0050   23.8660 C.3     1  UNL1        0.2426
     24 C         -30.0650   -1.3770   23.5730 C.3     1  UNL1        0.2292
     25 O         -30.7290   -1.8780   24.7210 O.3     1  UNL1       -0.2162
     26 C         -26.3540    0.5760   25.7770 C.2     1  UNL1        0.2067
     27 F         -25.8600   -0.6810   25.7950 F       1  UNL1       -0.1979
     28 C         -21.9256    1.8331   27.4176 C.3     1  UNL1        0.0237
     29 O         -32.1157    1.9845   29.5764 O.2     1  UNL1       -0.2698
     30 C         -30.6590    0.0668   29.2053 C.3     1  UNL1        0.1745
     31 N         -25.4465   -0.0458   29.1022 N.am    1  UNL1       -0.2516
     32 N         -24.4415    1.2042   27.0927 N.am    1  UNL1       -0.2406
     33 C         -30.5240   -0.1095   27.6567 C.3     1  UNL1        0.0334
     34 C         -28.1730   -0.3372   29.3360 C.2     1  UNL1        0.2621
     35 C         -24.3226    0.3255   28.0810 C.2     1  UNL1        0.3116
     36 N         -31.5442    0.8171   31.2435 N.am    1  UNL1       -0.0863
     37 N         -29.3585    0.1547   29.8281 N.am    1  UNL1       -0.1963
     38 C         -23.1393    1.6304   26.4411 C.3     1  UNL1        0.0999
     39 O         -23.2226   -0.2668   28.2992 O.2     1  UNL1       -0.2520
     40 O         -28.1196   -1.5050   29.1045 O.2     1  UNL1       -0.2715
     41 C         -31.5274    1.0364   30.0440 C.2     1  UNL1        0.2806
     42 C         -26.8464    0.5586   29.1034 C.3     1  UNL1        0.1823
@<TRIPOS>BOND
     1     1    31    1
     2     2     7    1
     3     2     1    1
     4     3     2    2
     5     4     3    1
     6     4     5    2
     7     5     6    1
     8     6     7    2
     9     8     1    1
    10     8     9    1
    11     8    12    1
    12     9    10    1
    13    10    11    1
    14    12    11    1
    15    13    32    1
    16    14    13    1
    17    14    15    1
    18    15    18    2
    19    16    17    1
    20    16    15    1
    21    19    14    2
    22    20    21    2
    23    20    19    1
    24    21    26    1
    25    22    21    1
    26    23    22    1
    27    24    23    1
    28    24    25    1
    29    26    27    1
    30    26    13    2
    31    29    41    2
    32    30    33    1
    33    30    37    1
    34    30    41    1
    35    31    42    1
    36    32    35   am
    37    34    37    1
    38    35    39    2
    39    35    31   am
    40    38    32    1
    41    38    28    1
    42    40    34    2
    43    41    36    1
    44    42    34    1
