@<TRIPOS>MOLECULE
No_1396-gen_results/8p0m/2024-11-27-11-27-31/
 17 18 0 0 0
SMALL
GASTEIGER

@<TRIPOS>ATOM
      1 C         -28.0162   -0.8135   28.8779 C.ar    1  UNL1        0.0114
      2 C         -27.0636   -0.1189   28.6079 C.ar    1  UNL1        0.0008
      3 C         -25.7923   -0.4302   29.0761 C.ar    1  UNL1        0.0001
      4 C         -25.5756   -1.5654   29.9363 C.ar    1  UNL1        0.0009
      5 C         -26.7354   -2.3004   30.2173 C.ar    1  UNL1        0.0114
      6 C         -27.9184   -1.9537   29.7629 C.ar    1  UNL1        0.0577
      7 C         -27.1057    1.1023   27.7593 C.ar    1  UNL1       -0.0000
      8 C         -27.8576    1.5309   27.2156 C.ar    1  UNL1       -0.0000
      9 C         -27.8433    2.7213   26.2861 C.ar    1  UNL1       -0.0001
     10 C         -26.6217    3.3253   26.0566 C.ar    1  UNL1        0.0039
     11 C         -25.4854    2.7960   26.6725 C.ar    1  UNL1        0.0714
     12 C         -25.6222    1.7365   27.5193 C.ar    1  UNL1        0.0039
     13 CL        -29.2680   -2.8719   30.2587 Cl      1  UNL1       -0.0822
     14 C         -24.1942    3.4371   26.4639 C.3     1  UNL1        0.4186
     15 F         -23.2132    2.8298   26.9980 F       1  UNL1       -0.1659
     16 F         -24.1581    4.7116   27.0561 F       1  UNL1       -0.1659
     17 F         -23.8770    3.6540   25.1499 F       1  UNL1       -0.1659
@<TRIPOS>BOND
     1     2     7    1
     2     6    13    1
     3    11    14    1
     4    14    15    1
     5    14    16    1
     6    14    17    1
     7     1     2   ar
     8     2     3   ar
     9     3     4   ar
    10     4     5   ar
    11     5     6   ar
    12     6     1   ar
    13     7     8   ar
    14     8     9   ar
    15     9    10   ar
    16    10    11   ar
    17    11    12   ar
    18    12     7   ar
