@<TRIPOS>MOLECULE
outputs/IAG933/test6/raw/output_1397_IAG933_linker_design_.xyz
 39 44 0 0 0
SMALL
GASTEIGER

@<TRIPOS>ATOM
      1 C         -24.8550   -1.0120   30.1430 C.3     1  UNL1        0.1104
      2 C         -24.9730   -2.5050   29.7880 C.2     1  UNL1       -0.0053
      3 C         -23.9060   -3.1730   29.1460 C.2     1  UNL1       -0.0029
      4 C         -23.9890   -4.5490   28.8530 C.2     1  UNL1       -0.0003
      5 C         -25.1370   -5.2800   29.2050 C.2     1  UNL1       -0.0000
      6 C         -26.2320   -4.6110   29.7840 C.2     1  UNL1       -0.0003
      7 C         -26.1550   -3.2320   30.0650 C.2     1  UNL1       -0.0029
      8 C         -25.3870   -0.6790   31.5710 C.3     1  UNL1        0.0927
      9 C         -25.1890    0.7730   32.0280 C.3     1  UNL1        0.0206
     10 C         -25.3360    0.6840   33.5440 C.3     1  UNL1        0.0203
     11 C         -24.8290   -0.7150   33.9050 C.3     1  UNL1        0.0888
     12 N         -24.7580   -1.4810   32.6460 N.3     1  UNL1       -0.2177
     13 C         -25.6880    1.6140   26.4610 C.3     1  UNL1        0.1315
     14 C         -26.2500    2.9200   26.3950 C.2     1  UNL1        0.0622
     15 C         -25.6420    4.0930   27.1230 C.2     1  UNL1        0.2629
     16 N         -25.6140    5.2520   26.4490 N.am    1  UNL1       -0.2000
     17 C         -25.0260    6.4790   26.9630 C.3     1  UNL1        0.1388
     18 O         -25.1430    3.9660   28.2430 O.2     1  UNL1       -0.2686
     19 C         -27.4380    3.0910   25.6450 C.2     1  UNL1        0.1026
     20 N         -28.0750    2.0890   25.0030 N.2     1  UNL1       -0.2118
     21 C         -27.5430    0.8490   25.0790 C.2     1  UNL1        0.2345
     22 O         -28.1930   -0.2080   24.4770 O.2     1  UNL1       -0.4585
     23 C         -29.4600    0.0050   23.8660 C.3     1  UNL1        0.2423
     24 C         -30.0650   -1.3770   23.5730 C.3     1  UNL1        0.2292
     25 O         -30.7290   -1.8780   24.7210 O.3     1  UNL1       -0.2162
     26 C         -26.3540    0.5760   25.7770 C.3     1  UNL1        0.2472
     27 F         -25.8600   -0.6810   25.7950 F       1  UNL1       -0.2264
     28 C         -22.1949    1.4546   27.0018 C.2     1  UNL1        0.2818
     29 O         -23.4112    1.9739   25.3034 O.2     1  UNL1       -0.2906
     30 C         -24.1699    1.5786   26.4167 C.2     1  UNL1        0.1795
     31 C         -23.7953    1.3933   28.5464 C.3     1  UNL1        0.0548
     32 O         -22.0365    2.0266   25.7389 O.2     1  UNL1       -0.2793
     33 C         -23.8663    0.2758   29.5023 C.3     1  UNL1        0.1292
     34 N         -21.4101    0.2646   29.1193 N.pl3   1  UNL1       -0.0251
     35 C         -22.4440   -0.2671   30.0319 C.3     1  UNL1        0.2689
     36 N         -19.9527    1.1428   27.5213 N.pl3   1  UNL1        0.2172
     37 C         -21.2729    0.9229   27.9671 C.2     1  UNL1        0.4401
     38 C         -23.4548    1.4667   27.2944 C.2     1  UNL1        0.0609
     39 N         -25.4034   -0.1238   29.2249 N.3     1  UNL1       -0.2103
@<TRIPOS>BOND
     1     1     2    1
     2     1     8    1
     3     2     7    1
     4     3     2    2
     5     4     3    1
     6     4     5    2
     7     5     6    1
     8     6     7    2
     9     8     9    1
    10     8    12    1
    11     9    10    1
    12    10    11    1
    13    12    11    1
    14    13    30    1
    15    14    13    1
    16    14    15    1
    17    15    18    2
    18    16    17    1
    19    16    15    1
    20    19    14    2
    21    20    21    2
    22    20    19    1
    23    21    26    1
    24    22    21    1
    25    23    22    1
    26    24    23    1
    27    24    25    1
    28    26    27    1
    29    26    13    1
    30    28    38    1
    31    28    37    2
    32    29    32    1
    33    29    30    1
    34    30    38    2
    35    32    28    1
    36    33    31    1
    37    33    35    1
    38    33     1    1
    39    34    35    1
    40    36    37    1
    41    37    34    1
    42    38    31    1
    43    39    33    1
    44    39     1    1
