@<TRIPOS>MOLECULE
outputs/IAG933/test6/raw/output_140_IAG933_linker_design_.xyz
 42 45 0 0 0
SMALL
GASTEIGER

@<TRIPOS>ATOM
      1 C         -24.8550   -1.0120   30.1430 C.3     1  UNL1        0.0656
      2 C         -24.9730   -2.5050   29.7880 C.2     1  UNL1       -0.0188
      3 C         -23.9060   -3.1730   29.1460 C.2     1  UNL1       -0.0042
      4 C         -23.9890   -4.5490   28.8530 C.2     1  UNL1       -0.0003
      5 C         -25.1370   -5.2800   29.2050 C.2     1  UNL1       -0.0000
      6 C         -26.2320   -4.6110   29.7840 C.2     1  UNL1       -0.0003
      7 C         -26.1550   -3.2320   30.0650 C.2     1  UNL1       -0.0042
      8 C         -25.3870   -0.6790   31.5710 C.3     1  UNL1        0.0792
      9 C         -25.1890    0.7730   32.0280 C.3     1  UNL1        0.0193
     10 C         -25.3360    0.6840   33.5440 C.3     1  UNL1        0.0202
     11 C         -24.8290   -0.7150   33.9050 C.3     1  UNL1        0.0887
     12 N         -24.7580   -1.4810   32.6460 N.3     1  UNL1       -0.2190
     13 C         -25.6880    1.6140   26.4610 C.2     1  UNL1        0.0452
     14 C         -26.2500    2.9200   26.3950 C.2     1  UNL1        0.0749
     15 C         -25.6420    4.0930   27.1230 C.2     1  UNL1        0.2662
     16 N         -25.6140    5.2520   26.4490 N.am    1  UNL1       -0.1997
     17 C         -25.0260    6.4790   26.9630 C.3     1  UNL1        0.1388
     18 O         -25.1430    3.9660   28.2430 O.2     1  UNL1       -0.2683
     19 C         -27.4380    3.0910   25.6450 C.2     1  UNL1        0.1065
     20 N         -28.0750    2.0890   25.0030 N.2     1  UNL1       -0.2081
     21 C         -27.5430    0.8490   25.0790 C.2     1  UNL1        0.2530
     22 O         -28.1930   -0.2080   24.4770 O.2     1  UNL1       -0.4558
     23 C         -29.4600    0.0050   23.8660 C.3     1  UNL1        0.2426
     24 C         -30.0650   -1.3770   23.5730 C.3     1  UNL1        0.2292
     25 O         -30.7290   -1.8780   24.7210 O.3     1  UNL1       -0.2162
     26 C         -26.3540    0.5760   25.7770 C.2     1  UNL1        0.1915
     27 F         -25.8600   -0.6810   25.7950 F       1  UNL1       -0.1995
     28 O         -22.2992    1.8702   26.0387 O.3     1  UNL1       -0.1862
     29 C         -23.9769   -0.2656   29.1499 C.3     1  UNL1        0.1234
     30 O         -25.1825    5.2500   31.0737 O.2     1  UNL1       -0.2703
     31 O         -24.8106    4.2084   33.5654 O.3     1  UNL1       -0.1514
     32 O         -21.3478    0.6568   28.4414 O.3     1  UNL1       -0.2202
     33 CL        -27.1288    3.6489   32.2446 Cl      1  UNL1       -0.0237
     34 O         -22.8994    2.7540   25.2758 O.3     1  UNL1       -0.0345
     35 C         -22.4659    1.4909   28.4246 C.3     1  UNL1        0.1873
     36 C         -24.4291    2.1572   29.8860 C.3     1  UNL1        0.0166
     37 C         -24.0783    2.8302   31.2540 C.3     1  UNL1        0.1048
     38 P         -25.1952    4.1859   31.9510 P.3     1  UNL1        0.3286
     39 C         -24.4818    0.9727   27.1173 C.3     1  UNL1        0.1727
     40 O         -24.6606   -0.2011   27.8765 O.3     1  UNL1       -0.3511
     41 C         -23.1874    1.5079   27.1214 C.3     1  UNL1        0.2164
     42 C         -23.4647    1.0857   29.5960 C.3     1  UNL1        0.0613
@<TRIPOS>BOND
     1     1     2    1
     2     2     7    1
     3     3     2    2
     4     4     3    1
     5     4     5    2
     6     5     6    1
     7     6     7    2
     8     8     1    1
     9     8     9    1
    10     8    12    1
    11     9    10    1
    12    10    11    1
    13    12    11    1
    14    14    13    1
    15    14    15    1
    16    15    18    2
    17    16    17    1
    18    16    15    1
    19    19    14    2
    20    20    21    2
    21    20    19    1
    22    21    26    1
    23    22    21    1
    24    23    22    1
    25    24    23    1
    26    24    25    1
    27    26    27    1
    28    26    13    2
    29    29    42    1
    30    29     1    1
    31    34    28    1
    32    35    32    1
    33    35    42    1
    34    36    37    1
    35    37    38    1
    36    38    30    2
    37    38    33    1
    38    38    31    1
    39    39    13    1
    40    39    41    1
    41    39    40    1
    42    40    29    1
    43    41    28    1
    44    41    35    1
    45    42    36    1
