@<TRIPOS>MOLECULE
No_1400-gen_results/8p0m/2024-11-27-11-27-31/
 24 26 0 0 0
SMALL
GASTEIGER

@<TRIPOS>ATOM
      1 O         -28.1229   -1.3353   28.4874 O.2     1  UNL1       -0.2696
      2 C         -27.4806   -0.4044   28.7094 C.2     1  UNL1        0.2525
      3 C         -26.3804   -0.0867   27.9394 C.ar    1  UNL1        0.0525
      4 N         -27.6664    0.4468   29.8988 N.am    1  UNL1       -0.2543
      5 C         -26.4086    0.8567   26.8802 C.ar    1  UNL1        0.0146
      6 C         -25.0824   -0.6970   28.1699 C.ar    1  UNL1        0.0043
      7 C         -25.2842    1.0488   26.0470 C.ar    1  UNL1       -0.0015
      8 C         -23.9159   -0.3440   27.4444 C.ar    1  UNL1        0.0001
      9 C         -24.0618    0.5290   26.3707 C.ar    1  UNL1       -0.0002
     10 C         -28.7784    0.1033   30.7872 C.3     1  UNL1        0.0985
     11 C         -26.8454    1.5246   30.2211 C.2     1  UNL1        0.0632
     12 C         -27.2475    2.6214   30.2572 C.2     1  UNL1       -0.0100
     13 C         -28.1791    3.2074   30.4550 C.3     1  UNL1        0.0274
     14 C         -29.3990    2.4975   30.6944 C.3     1  UNL1        0.0065
     15 C         -29.6682    1.2265   30.8782 C.3     1  UNL1        0.0222
     16 C         -27.6967    1.5103   26.5392 C.3     1  UNL1        0.1877
     17 F         -28.5869    1.7426   27.0101 F       1  UNL1       -0.2321
     18 C         -27.6898    1.9200   25.1065 C.3     1  UNL1        0.0662
     19 C         -28.7840    2.7549   24.8818 C.ar    1  UNL1       -0.0191
     20 C         -29.0563    3.8912   25.5376 C.ar    1  UNL1       -0.0042
     21 C         -30.1350    4.0416   26.2707 C.ar    1  UNL1       -0.0003
     22 C         -31.2286    3.2674   26.1226 C.ar    1  UNL1       -0.0000
     23 C         -31.2582    2.3900   25.0356 C.ar    1  UNL1       -0.0003
     24 C         -29.9337    2.1629   24.2329 C.ar    1  UNL1       -0.0042
@<TRIPOS>BOND
     1     1     2    2
     2     2     3    1
     3     2     4   am
     4     4    10    1
     5     4    11    1
     6    11    12    2
     7    12    13    1
     8    13    14    1
     9    10    15    1
    10    14    15    1
    11     5    16    1
    12    16    17    1
    13    16    18    1
    14    18    19    1
    15    19    20   ar
    16    20    21   ar
    17    21    22   ar
    18    22    23   ar
    19    23    24   ar
    20    24    19   ar
    21     3     5   ar
    22     5     7   ar
    23     7     9   ar
    24     9     8   ar
    25     8     6   ar
    26     6     3   ar
