@<TRIPOS>MOLECULE
No_1402-gen_results/8p0m/2024-11-27-11-27-31/
 19 20 0 0 0
SMALL
GASTEIGER

@<TRIPOS>ATOM
      1 C         -28.0162   -0.8135   28.8779 C.ar    1  UNL1        0.0375
      2 C         -28.4690   -0.7850   29.8287 C.ar    1  UNL1        0.1453
      3 C         -27.0871    0.2903   28.6377 C.ar    1  UNL1        0.0027
      4 C         -26.0239    0.3644   29.2526 C.ar    1  UNL1        0.0002
      5 C         -27.5370   -0.6187   31.0883 C.ar    1  UNL1        0.0375
      6 C         -26.3844    0.1834   30.8012 C.ar    1  UNL1        0.0031
      7 O         -29.5244   -1.6146   30.2656 O.3     1  UNL1       -0.4535
      8 C         -30.7330   -1.2675   29.8544 C.ar    1  UNL1        0.1455
      9 C         -31.6769   -1.2275   30.8277 C.ar    1  UNL1        0.0375
     10 C         -32.9232   -0.7833   30.4519 C.ar    1  UNL1        0.0033
     11 C         -33.1490   -0.5803   29.0864 C.ar    1  UNL1        0.0068
     12 C         -32.1944   -0.7029   28.1289 C.ar    1  UNL1        0.0828
     13 C         -30.9410   -1.0471   28.5141 C.ar    1  UNL1        0.0441
     14 C         -32.4592   -0.4186   26.7047 C.2     1  UNL1        0.3879
     15 O         -32.7214   -1.3402   25.9337 O.co2   1  UNL1       -0.2406
     16 O         -32.3291    0.7595   26.2392 O.co2   1  UNL1       -0.2406
     17 C         -26.9514    0.7679   27.1592 C.2     1  UNL1       -0.0045
     18 C         -25.8729    0.8967   26.5447 C.2     1  UNL1       -0.0258
     19 C         -24.5805    0.8542   27.3519 C.3     1  UNL1        0.0307
@<TRIPOS>BOND
     1     2     7    1
     2     7     8    1
     3    12    14    1
     4    14    15   ar
     5    14    16   ar
     6     3    17    1
     7    17    18    2
     8    18    19    1
     9     8     9   ar
    10     9    10   ar
    11    10    11   ar
    12    11    12   ar
    13    12    13   ar
    14    13     8   ar
    15     1     2   ar
    16     2     5   ar
    17     5     6   ar
    18     6     4   ar
    19     4     3   ar
    20     3     1   ar
