@<TRIPOS>MOLECULE
outputs/IAG933/test6/raw/output_1407_IAG933_linker_design_.xyz
 43 48 0 0 0
SMALL
GASTEIGER

@<TRIPOS>ATOM
      1 C         -24.8550   -1.0120   30.1430 C.3     1  UNL1        0.0608
      2 C         -24.9730   -2.5050   29.7880 C.2     1  UNL1       -0.0171
      3 C         -23.9060   -3.1730   29.1460 C.2     1  UNL1       -0.0039
      4 C         -23.9890   -4.5490   28.8530 C.2     1  UNL1       -0.0003
      5 C         -25.1370   -5.2800   29.2050 C.2     1  UNL1       -0.0000
      6 C         -26.2320   -4.6110   29.7840 C.2     1  UNL1       -0.0003
      7 C         -26.1550   -3.2320   30.0650 C.2     1  UNL1       -0.0039
      8 C         -25.3870   -0.6790   31.5710 C.3     1  UNL1        0.0808
      9 C         -25.1890    0.7730   32.0280 C.3     1  UNL1        0.0195
     10 C         -25.3360    0.6840   33.5440 C.3     1  UNL1        0.0203
     11 C         -24.8290   -0.7150   33.9050 C.3     1  UNL1        0.0887
     12 N         -24.7580   -1.4810   32.6460 N.3     1  UNL1       -0.2188
     13 C         -25.6880    1.6140   26.4610 C.3     1  UNL1        0.0924
     14 C         -26.2500    2.9200   26.3950 C.2     1  UNL1        0.0589
     15 C         -25.6420    4.0930   27.1230 C.2     1  UNL1        0.2628
     16 N         -25.6140    5.2520   26.4490 N.am    1  UNL1       -0.2000
     17 C         -25.0260    6.4790   26.9630 C.3     1  UNL1        0.1388
     18 O         -25.1430    3.9660   28.2430 O.2     1  UNL1       -0.2686
     19 C         -27.4380    3.0910   25.6450 C.2     1  UNL1        0.1025
     20 N         -28.0750    2.0890   25.0030 N.2     1  UNL1       -0.2118
     21 C         -27.5430    0.8490   25.0790 C.2     1  UNL1        0.2344
     22 O         -28.1930   -0.2080   24.4770 O.2     1  UNL1       -0.4585
     23 C         -29.4600    0.0050   23.8660 C.3     1  UNL1        0.2423
     24 C         -30.0650   -1.3770   23.5730 C.3     1  UNL1        0.2292
     25 O         -30.7290   -1.8780   24.7210 O.3     1  UNL1       -0.2162
     26 C         -26.3540    0.5760   25.7770 C.3     1  UNL1        0.2440
     27 F         -25.8600   -0.6810   25.7950 F       1  UNL1       -0.2265
     28 C         -24.4728   -0.0821   29.2102 C.2     1  UNL1       -0.0100
     29 C         -22.8912    0.0349   29.1416 C.2     1  UNL1        0.0329
     30 C         -28.5646    2.1513   31.1050 C.3     1  UNL1        0.0035
     31 C         -24.8975    1.4444   27.6223 C.2     1  UNL1       -0.0085
     32 C         -27.7207    2.2201   28.8314 C.3     1  UNL1        0.0937
     33 C         -22.6014    2.0676   26.0926 C.3     1  UNL1        0.2347
     34 C         -29.2259    0.4855   29.2788 C.3     1  UNL1        0.0937
     35 C         -28.1353    3.1367   29.9883 C.3     1  UNL1        0.0216
     36 C         -25.4241    0.6619   28.6624 C.2     1  UNL1        0.0464
     37 N         -27.8303    0.8471   29.0355 N.am    1  UNL1       -0.2761
     38 C         -29.6857    1.3484   30.4759 C.3     1  UNL1        0.0216
     39 O         -27.6403   -1.2863   28.2706 O.2     1  UNL1       -0.2699
     40 C         -22.2262    0.8453   28.0019 C.2     1  UNL1        0.1379
     41 C         -23.4379    1.5477   27.2028 C.2     1  UNL1        0.0517
     42 O         -21.7360    1.5068   27.0748 O.2     1  UNL1       -0.4708
     43 C         -26.8189   -0.0098   28.3395 C.2     1  UNL1        0.2484
@<TRIPOS>BOND
     1     1    28    1
     2     2     7    1
     3     2     1    1
     4     3     2    2
     5     4     3    1
     6     4     5    2
     7     5     6    1
     8     6     7    2
     9     8     1    1
    10     8     9    1
    11     8    12    1
    12     9    10    1
    13    10    11    1
    14    12    11    1
    15    13    31    1
    16    14    13    1
    17    14    15    1
    18    15    18    2
    19    16    17    1
    20    16    15    1
    21    19    14    2
    22    20    21    2
    23    20    19    1
    24    21    26    1
    25    22    21    1
    26    23    22    1
    27    24    23    1
    28    24    25    1
    29    26    27    1
    30    26    13    1
    31    29    28    1
    32    31    36    1
    33    32    37    1
    34    32    35    1
    35    33    42    1
    36    33    41    1
    37    34    38    1
    38    35    30    1
    39    36    28    2
    40    37    34    1
    41    38    30    1
    42    39    43    2
    43    40    29    2
    44    41    31    2
    45    41    40    1
    46    42    40    1
    47    43    36    1
    48    43    37   am
