@<TRIPOS>MOLECULE
outputs/IAG933/test6/raw/output_1408_IAG933_linker_design_.xyz
 46 49 0 0 0
SMALL
GASTEIGER

@<TRIPOS>ATOM
      1 C         -24.8550   -1.0120   30.1430 C.3     1  UNL1        0.1209
      2 C         -24.9730   -2.5050   29.7880 C.2     1  UNL1       -0.0025
      3 C         -23.9060   -3.1730   29.1460 C.2     1  UNL1       -0.0026
      4 C         -23.9890   -4.5490   28.8530 C.2     1  UNL1       -0.0003
      5 C         -25.1370   -5.2800   29.2050 C.2     1  UNL1       -0.0000
      6 C         -26.2320   -4.6110   29.7840 C.2     1  UNL1       -0.0003
      7 C         -26.1550   -3.2320   30.0650 C.2     1  UNL1       -0.0026
      8 C         -25.3870   -0.6790   31.5710 C.3     1  UNL1        0.0955
      9 C         -25.1890    0.7730   32.0280 C.3     1  UNL1        0.0209
     10 C         -25.3360    0.6840   33.5440 C.3     1  UNL1        0.0203
     11 C         -24.8290   -0.7150   33.9050 C.3     1  UNL1        0.0888
     12 N         -24.7580   -1.4810   32.6460 N.3     1  UNL1       -0.2174
     13 C         -25.6880    1.6140   26.4610 C.2     1  UNL1        0.0234
     14 C         -26.2500    2.9200   26.3950 C.2     1  UNL1        0.0730
     15 C         -25.6420    4.0930   27.1230 C.2     1  UNL1        0.2661
     16 N         -25.6140    5.2520   26.4490 N.am    1  UNL1       -0.1997
     17 C         -25.0260    6.4790   26.9630 C.3     1  UNL1        0.1388
     18 O         -25.1430    3.9660   28.2430 O.2     1  UNL1       -0.2683
     19 C         -27.4380    3.0910   25.6450 C.2     1  UNL1        0.1064
     20 N         -28.0750    2.0890   25.0030 N.2     1  UNL1       -0.2081
     21 C         -27.5430    0.8490   25.0790 C.2     1  UNL1        0.2530
     22 O         -28.1930   -0.2080   24.4770 O.2     1  UNL1       -0.4558
     23 C         -29.4600    0.0050   23.8660 C.3     1  UNL1        0.2426
     24 C         -30.0650   -1.3770   23.5730 C.3     1  UNL1        0.2292
     25 O         -30.7290   -1.8780   24.7210 O.3     1  UNL1       -0.2162
     26 C         -26.3540    0.5760   25.7770 C.2     1  UNL1        0.1895
     27 F         -25.8600   -0.6810   25.7950 F       1  UNL1       -0.1996
     28 C         -28.9501    0.3460   29.1551 C.2     1  UNL1        0.0167
     29 O         -22.4868   -0.1730   29.9066 O.2     1  UNL1       -0.2710
     30 C         -26.9525    1.5367   29.5549 C.2     1  UNL1        0.0491
     31 C         -29.3533    2.7123   29.8979 C.3     1  UNL1        0.0558
     32 C         -30.6581    3.7506   26.9887 C.3     1  UNL1        0.1740
     33 N         -24.6738    0.0304   29.1650 N.am    1  UNL1       -0.2238
     34 O         -22.8953    2.3775   25.9230 O.2     1  UNL1       -0.2923
     35 C         -23.2625    1.6500   26.8793 C.2     1  UNL1        0.1965
     36 C         -28.1776   -0.6094   28.3996 C.3     1  UNL1        0.2329
     37 C         -31.5514    3.6449   29.4565 C.3     1  UNL1        0.0324
     38 C         -30.5064    2.6473   28.8863 C.3     1  UNL1        0.1197
     39 C         -23.2175    0.2514   29.0414 C.2     1  UNL1        0.2718
     40 C         -28.3957    1.4924   29.6142 C.2     1  UNL1       -0.0161
     41 O         -26.8809   -0.4720   28.2520 O.2     1  UNL1       -0.4580
     42 C         -22.5948    0.9690   27.8800 C.3     1  UNL1        0.2934
     43 C         -24.3574    1.4177   27.0678 C.3     1  UNL1        0.0968
     44 F         -21.2281    1.1325   27.7513 F       1  UNL1       -0.2192
     45 C         -26.2052    0.4460   28.9496 C.2     1  UNL1        0.1996
     46 O         -30.1099    2.6269   27.6944 O.3     1  UNL1       -0.3532
@<TRIPOS>BOND
     1     1    33    1
     2     2     7    1
     3     2     1    1
     4     3     2    2
     5     4     3    1
     6     4     5    2
     7     5     6    1
     8     6     7    2
     9     8     1    1
    10     8     9    1
    11     8    12    1
    12     9    10    1
    13    10    11    1
    14    12    11    1
    15    13    43    1
    16    14    13    1
    17    14    15    1
    18    15    18    2
    19    16    17    1
    20    16    15    1
    21    19    14    2
    22    20    21    2
    23    20    19    1
    24    21    26    1
    25    22    21    1
    26    23    22    1
    27    24    23    1
    28    24    25    1
    29    26    27    1
    30    26    13    2
    31    28    40    2
    32    30    40    1
    33    32    46    1
    34    34    35    2
    35    35    43    1
    36    35    42    1
    37    36    28    1
    38    38    37    1
    39    38    31    1
    40    39    33   am
    41    39    29    2
    42    40    31    1
    43    41    36    1
    44    41    45    1
    45    42    44    1
    46    42    39    1
    47    45    33    1
    48    45    30    2
    49    46    38    1
