@<TRIPOS>MOLECULE
outputs/IAG933/test6/raw/output_1410_IAG933_linker_design_.xyz
 50 54 0 0 0
SMALL
GASTEIGER

@<TRIPOS>ATOM
      1 C         -24.8550   -1.0120   30.1430 C.3     1  UNL1        0.0438
      2 C         -24.9730   -2.5050   29.7880 C.2     1  UNL1       -0.0208
      3 C         -23.9060   -3.1730   29.1460 C.2     1  UNL1       -0.0042
      4 C         -23.9890   -4.5490   28.8530 C.2     1  UNL1       -0.0003
      5 C         -25.1370   -5.2800   29.2050 C.2     1  UNL1       -0.0000
      6 C         -26.2320   -4.6110   29.7840 C.2     1  UNL1       -0.0003
      7 C         -26.1550   -3.2320   30.0650 C.2     1  UNL1       -0.0042
      8 C         -25.3870   -0.6790   31.5710 C.3     1  UNL1        0.0794
      9 C         -25.1890    0.7730   32.0280 C.3     1  UNL1        0.0460
     10 C         -25.3360    0.6840   33.5440 C.3     1  UNL1        0.0226
     11 C         -24.8290   -0.7150   33.9050 C.3     1  UNL1        0.0888
     12 N         -24.7580   -1.4810   32.6460 N.3     1  UNL1       -0.2190
     13 C         -25.6880    1.6140   26.4610 C.2     1  UNL1        0.1764
     14 C         -26.2500    2.9200   26.3950 C.2     1  UNL1        0.1105
     15 C         -25.6420    4.0930   27.1230 C.2     1  UNL1        0.2694
     16 N         -25.6140    5.2520   26.4490 N.am    1  UNL1       -0.1996
     17 C         -25.0260    6.4790   26.9630 C.3     1  UNL1        0.1388
     18 O         -25.1430    3.9660   28.2430 O.2     1  UNL1       -0.2682
     19 C         -27.4380    3.0910   25.6450 C.2     1  UNL1        0.1098
     20 N         -28.0750    2.0890   25.0030 N.2     1  UNL1       -0.2079
     21 C         -27.5430    0.8490   25.0790 C.2     1  UNL1        0.2564
     22 O         -28.1930   -0.2080   24.4770 O.2     1  UNL1       -0.4558
     23 C         -29.4600    0.0050   23.8660 C.3     1  UNL1        0.2426
     24 C         -30.0650   -1.3770   23.5730 C.3     1  UNL1        0.2292
     25 O         -30.7290   -1.8780   24.7210 O.3     1  UNL1       -0.2162
     26 C         -26.3540    0.5760   25.7770 C.2     1  UNL1        0.2267
     27 F         -25.8600   -0.6810   25.7950 F       1  UNL1       -0.1960
     28 O         -27.0390    4.3256   33.4927 O.3     1  UNL1       -0.3561
     29 N         -26.4666    2.8933   31.2249 N.3     1  UNL1       -0.2050
     30 C         -22.7014    7.1244   32.7727 C.3     1  UNL1        0.1422
     31 C         -27.4300    7.3487   29.8543 C.3     1  UNL1        0.0897
     32 C         -21.0018    1.4695   27.5049 C.3     1  UNL1        0.0165
     33 C         -22.4125    0.8525   27.5863 C.3     1  UNL1        0.1027
     34 C         -28.3435    4.5007   34.3781 C.3     1  UNL1        0.1421
     35 C         -23.2657    1.3514   26.3299 C.3     1  UNL1        0.2171
     36 C         -25.1875    2.0326   31.1095 C.3     1  UNL1        0.1362
     37 C         -26.0383    5.6441   32.7573 C.3     1  UNL1        0.0718
     38 S         -23.0868    1.6433   29.1577 S.3     1  UNL1       -0.0720
     39 N         -26.5535    6.8305   30.8682 N.3     1  UNL1       -0.2692
     40 C         -27.7541    4.8052   35.7871 C.3     1  UNL1        0.0346
     41 O         -23.6722    6.1261   32.8103 O.3     1  UNL1       -0.3547
     42 C         -24.8851    6.4874   32.3280 C.3     1  UNL1        0.1347
     43 C         -21.5037    6.7092   33.6197 C.3     1  UNL1        0.0346
     44 O         -24.5398    1.2694   26.9750 O.2     1  UNL1       -0.4719
     45 C         -24.1514    2.1078   30.2990 C.1     1  UNL1       -0.0800
     46 C         -25.3384    7.3406   31.3163 C.3     1  UNL1        0.1021
     47 C         -27.1551    4.3188   30.8731 C.3     1  UNL1        0.1058
     48 C         -26.7005    5.5791   31.4294 C.3     1  UNL1        0.0797
     49 C         -25.9846    5.1176   33.8666 C.3     1  UNL1        0.1190
     50 C         -26.3813    5.2864   35.3833 C.3     1  UNL1        0.0323
@<TRIPOS>BOND
     1     2     7    1
     2     2     1    1
     3     3     2    2
     4     4     3    1
     5     4     5    2
     6     5     6    1
     7     6     7    2
     8     8     1    1
     9     8     9    1
    10     8    12    1
    11     9    36    1
    12     9    10    1
    13    10    11    1
    14    12    11    1
    15    13    44    1
    16    14    13    1
    17    14    15    1
    18    15    18    2
    19    16    17    1
    20    16    15    1
    21    19    14    2
    22    20    21    2
    23    20    19    1
    24    21    26    1
    25    22    21    1
    26    23    22    1
    27    24    23    1
    28    24    25    1
    29    26    27    1
    30    26    13    2
    31    28    49    1
    32    28    34    1
    33    30    41    1
    34    30    43    1
    35    31    39    1
    36    33    32    1
    37    33    38    1
    38    34    40    1
    39    35    44    1
    40    35    33    1
    41    36    45    1
    42    36    29    1
    43    37    49    1
    44    38    45    3
    45    39    46    1
    46    39    48    1
    47    42    37    1
    48    42    41    1
    49    46    42    1
    50    47    29    1
    51    48    47    1
    52    48    37    1
    53    49    50    1
    54    50    40    1
