@<TRIPOS>MOLECULE
No_1415-gen_results/8p0m/2024-11-27-11-27-31/
 16 17 0 0 0
SMALL
GASTEIGER

@<TRIPOS>ATOM
      1 O         -28.1229   -1.3353   28.4874 O.2     1  UNL1       -0.2730
      2 C         -27.4806   -0.4044   28.7094 C.2     1  UNL1        0.2452
      3 C         -27.1904    0.2460   29.5268 C.3     1  UNL1        0.1005
      4 N         -26.6021   -0.1576   27.5515 N.am    1  UNL1       -0.2024
      5 C         -25.6821    0.8355   27.5846 C.3     1  UNL1        0.1169
      6 C         -25.5035    1.5913   28.7199 C.3     1  UNL1        0.0270
      7 C         -26.2633    1.2802   29.7996 C.3     1  UNL1        0.0157
      8 C         -28.0146   -0.0262   30.9338 C.ar    1  UNL1       -0.0138
      9 C         -27.4668   -0.3529   31.9249 C.ar    1  UNL1       -0.0038
     10 C         -28.1860   -0.5258   33.2222 C.ar    1  UNL1       -0.0003
     11 C         -29.5588   -0.5661   33.1627 C.ar    1  UNL1       -0.0000
     12 C         -30.1650   -0.3033   31.9453 C.ar    1  UNL1       -0.0003
     13 C         -29.4202   -0.0148   30.8015 C.ar    1  UNL1       -0.0038
     14 C         -24.8243    1.1561   26.4029 C.2     1  UNL1       -0.0095
     15 C         -23.7095    2.0499   26.5527 C.2     1  UNL1       -0.0287
     16 C         -23.5705    2.7120   27.7891 C.3     1  UNL1        0.0304
@<TRIPOS>BOND
     1     1     2    2
     2     2     3    1
     3     2     4   am
     4     4     5    1
     5     3     7    1
     6     6     7    1
     7     3     8    1
     8     5    14    1
     9    14    15    2
    10    15    16    1
    11     6     5    1
    12     8     9   ar
    13     9    10   ar
    14    10    11   ar
    15    11    12   ar
    16    12    13   ar
    17    13     8   ar
