@<TRIPOS>MOLECULE
outputs/IAG933/test6/raw/output_1416_IAG933_linker_design_.xyz
 44 48 0 0 0
SMALL
GASTEIGER

@<TRIPOS>ATOM
      1 C         -24.8550   -1.0120   30.1430 C.3     1  UNL1        0.0966
      2 C         -24.9730   -2.5050   29.7880 C.2     1  UNL1       -0.0064
      3 C         -23.9060   -3.1730   29.1460 C.2     1  UNL1       -0.0029
      4 C         -23.9890   -4.5490   28.8530 C.2     1  UNL1       -0.0003
      5 C         -25.1370   -5.2800   29.2050 C.2     1  UNL1       -0.0000
      6 C         -26.2320   -4.6110   29.7840 C.2     1  UNL1       -0.0003
      7 C         -26.1550   -3.2320   30.0650 C.2     1  UNL1       -0.0029
      8 C         -25.3870   -0.6790   31.5710 C.3     1  UNL1        0.0916
      9 C         -25.1890    0.7730   32.0280 C.3     1  UNL1        0.0206
     10 C         -25.3360    0.6840   33.5440 C.3     1  UNL1        0.0203
     11 C         -24.8290   -0.7150   33.9050 C.3     1  UNL1        0.0888
     12 N         -24.7580   -1.4810   32.6460 N.3     1  UNL1       -0.2178
     13 C         -25.6880    1.6140   26.4610 C.2     1  UNL1        0.0349
     14 C         -26.2500    2.9200   26.3950 C.2     1  UNL1        0.0763
     15 C         -25.6420    4.0930   27.1230 C.2     1  UNL1        0.2664
     16 N         -25.6140    5.2520   26.4490 N.am    1  UNL1       -0.1997
     17 C         -25.0260    6.4790   26.9630 C.3     1  UNL1        0.1388
     18 O         -25.1430    3.9660   28.2430 O.2     1  UNL1       -0.2683
     19 C         -27.4380    3.0910   25.6450 C.2     1  UNL1        0.1067
     20 N         -28.0750    2.0890   25.0030 N.2     1  UNL1       -0.2081
     21 C         -27.5430    0.8490   25.0790 C.2     1  UNL1        0.2533
     22 O         -28.1930   -0.2080   24.4770 O.2     1  UNL1       -0.4558
     23 C         -29.4600    0.0050   23.8660 C.3     1  UNL1        0.2426
     24 C         -30.0650   -1.3770   23.5730 C.3     1  UNL1        0.2292
     25 O         -30.7290   -1.8780   24.7210 O.3     1  UNL1       -0.2162
     26 C         -26.3540    0.5760   25.7770 C.2     1  UNL1        0.1928
     27 F         -25.8600   -0.6810   25.7950 F       1  UNL1       -0.1992
     28 C         -26.6661    1.1988   29.1971 C.3     1  UNL1        0.0849
     29 O         -21.4436    1.5933   28.3150 O.3     1  UNL1       -0.3506
     30 F         -21.6775    1.8488   25.5745 F       1  UNL1       -0.2294
     31 C         -28.9040    0.4376   29.8784 C.3     1  UNL1        0.0723
     32 C         -27.6390   -0.0199   29.2053 C.2     1  UNL1        0.1528
     33 O         -27.6199   -1.1174   28.5402 O.2     1  UNL1       -0.2960
     34 C         -22.0051   -0.6051   29.5663 C.3     1  UNL1        0.1717
     35 C         -25.1490    1.1730   28.7195 C.3     1  UNL1        0.0874
     36 N         -24.4340    0.0276   29.2041 N.3     1  UNL1       -0.2632
     37 C         -23.0182   -0.2023   28.6875 C.3     1  UNL1        0.1201
     38 C         -20.7990   -0.5282   28.7766 C.3     1  UNL1        0.0664
     39 C         -23.3859    1.2100   26.9270 C.2     1  UNL1        0.0162
     40 C         -20.2690    0.5817   28.2431 C.3     1  UNL1        0.1452
     41 C         -24.6178    1.3861   27.3298 C.2     1  UNL1       -0.0078
     42 O         -22.0338    0.1188   30.8060 O.3     1  UNL1       -0.2215
     43 C         -22.5626    1.0140   27.8498 C.3     1  UNL1        0.1529
     44 C         -23.0059    1.2184   25.4104 C.3     1  UNL1        0.2176
@<TRIPOS>BOND
     1     1     2    1
     2     2     7    1
     3     3     2    2
     4     4     3    1
     5     4     5    2
     6     5     6    1
     7     6     7    2
     8     8     1    1
     9     8     9    1
    10     8    12    1
    11     9    10    1
    12    10    11    1
    13    12    11    1
    14    13    41    1
    15    14    13    1
    16    14    15    1
    17    15    18    2
    18    16    17    1
    19    16    15    1
    20    19    14    2
    21    20    21    2
    22    20    19    1
    23    21    26    1
    24    22    21    1
    25    23    22    1
    26    24    23    1
    27    24    25    1
    28    26    27    1
    29    26    13    2
    30    28    32    1
    31    32    31    1
    32    33    32    2
    33    34    42    1
    34    35    28    1
    35    35    36    1
    36    36     1    1
    37    37    36    1
    38    37    34    1
    39    38    34    1
    40    39    41    2
    41    40    29    1
    42    40    38    1
    43    41    35    1
    44    43    39    1
    45    43    29    1
    46    43    37    1
    47    44    30    1
    48    44    39    1
