@<TRIPOS>MOLECULE
No_1418-gen_results/8p0m/2024-11-27-11-27-31/
 25 27 0 0 0
SMALL
GASTEIGER

@<TRIPOS>ATOM
      1 C         -28.0162   -0.8135   28.8779 C.ar    1  UNL1        0.0128
      2 C         -28.4690   -0.7850   29.8287 C.ar    1  UNL1        0.0211
      3 C         -28.1960    0.3478   28.0550 C.ar    1  UNL1        0.0578
      4 C         -29.0191    1.3501   28.3782 C.ar    1  UNL1        0.0128
      5 C         -29.4107    0.1803   30.3782 C.ar    1  UNL1        0.1255
      6 C         -29.6059    1.2495   29.6193 C.ar    1  UNL1        0.0211
      7 CL        -27.3362    0.3775   26.5214 Cl      1  UNL1       -0.0822
      8 S         -30.1362   -0.0582   31.9825 S.O2    1  UNL1        0.0766
      9 O         -29.8535    0.7958   32.7483 O.2     1  UNL1       -0.1497
     10 O         -31.6274   -0.1954   31.6807 O.2     1  UNL1       -0.1497
     11 N         -29.6359   -1.5240   32.5088 N.pl3   1  UNL1       -0.1879
     12 C         -28.5793   -1.6229   33.1806 C.3     1  UNL1        0.1392
     13 C         -30.3673   -2.7286   32.2371 C.2     1  UNL1        0.0794
     14 C         -30.3033   -3.6323   33.0205 C.2     1  UNL1       -0.0040
     15 C         -30.8861   -3.8610   33.8155 C.3     1  UNL1        0.0537
     16 C         -32.0141   -2.9760   34.1618 C.ar    1  UNL1       -0.0178
     17 C         -33.0391   -3.1469   33.2772 C.ar    1  UNL1       -0.0039
     18 C         -34.1082   -2.2117   33.4592 C.ar    1  UNL1       -0.0003
     19 C         -35.1762   -2.1442   32.4950 C.ar    1  UNL1       -0.0000
     20 C         -36.2143   -1.2478   32.6247 C.ar    1  UNL1       -0.0000
     21 C         -36.2110   -0.3539   33.7133 C.ar    1  UNL1       -0.0000
     22 C         -35.1859   -0.3711   34.6345 C.ar    1  UNL1       -0.0000
     23 C         -34.1485   -1.2459   34.4864 C.ar    1  UNL1       -0.0000
     24 C         -32.0788   -2.2141   35.3493 C.ar    1  UNL1       -0.0039
     25 C         -33.0733   -1.3082   35.4523 C.ar    1  UNL1       -0.0003
@<TRIPOS>BOND
     1     3     7    1
     2     5     8    1
     3     8     9    2
     4     8    10    2
     5     8    11    1
     6    11    12    1
     7    11    13    1
     8    13    14    2
     9    14    15    1
    10    15    16    1
    11    18    19   ar
    12    19    20   ar
    13    20    21   ar
    14    21    22   ar
    15    22    23   ar
    16     1     2   ar
    17     2     5   ar
    18     5     6   ar
    19     6     4   ar
    20     4     3   ar
    21     3     1   ar
    22    16    17   ar
    23    17    18   ar
    24    18    23   ar
    25    23    25   ar
    26    25    24   ar
    27    24    16   ar
