@<TRIPOS>MOLECULE
outputs/IAG933/test6/raw/output_1419_IAG933_linker_design_.xyz
 42 45 0 0 0
SMALL
GASTEIGER

@<TRIPOS>ATOM
      1 C         -24.8550   -1.0120   30.1430 C.3     1  UNL1        0.0437
      2 C         -24.9730   -2.5050   29.7880 C.2     1  UNL1       -0.0208
      3 C         -23.9060   -3.1730   29.1460 C.2     1  UNL1       -0.0042
      4 C         -23.9890   -4.5490   28.8530 C.2     1  UNL1       -0.0003
      5 C         -25.1370   -5.2800   29.2050 C.2     1  UNL1       -0.0000
      6 C         -26.2320   -4.6110   29.7840 C.2     1  UNL1       -0.0003
      7 C         -26.1550   -3.2320   30.0650 C.2     1  UNL1       -0.0042
      8 C         -25.3870   -0.6790   31.5710 C.3     1  UNL1        0.0781
      9 C         -25.1890    0.7730   32.0280 C.3     1  UNL1        0.0347
     10 C         -25.3360    0.6840   33.5440 C.3     1  UNL1        0.0212
     11 C         -24.8290   -0.7150   33.9050 C.3     1  UNL1        0.0887
     12 N         -24.7580   -1.4810   32.6460 N.3     1  UNL1       -0.2191
     13 C         -25.6880    1.6140   26.4610 C.2     1  UNL1        0.0588
     14 C         -26.2500    2.9200   26.3950 C.2     1  UNL1        0.0781
     15 C         -25.6420    4.0930   27.1230 C.2     1  UNL1        0.2665
     16 N         -25.6140    5.2520   26.4490 N.am    1  UNL1       -0.1997
     17 C         -25.0260    6.4790   26.9630 C.3     1  UNL1        0.1388
     18 O         -25.1430    3.9660   28.2430 O.2     1  UNL1       -0.2683
     19 C         -27.4380    3.0910   25.6450 C.2     1  UNL1        0.1068
     20 N         -28.0750    2.0890   25.0030 N.2     1  UNL1       -0.2081
     21 C         -27.5430    0.8490   25.0790 C.2     1  UNL1        0.2533
     22 O         -28.1930   -0.2080   24.4770 O.2     1  UNL1       -0.4558
     23 C         -29.4600    0.0050   23.8660 C.3     1  UNL1        0.2426
     24 C         -30.0650   -1.3770   23.5730 C.3     1  UNL1        0.2292
     25 O         -30.7290   -1.8780   24.7210 O.3     1  UNL1       -0.2162
     26 C         -26.3540    0.5760   25.7770 C.2     1  UNL1        0.1946
     27 F         -25.8600   -0.6810   25.7950 F       1  UNL1       -0.1992
     28 C         -21.7701    0.5867   28.5726 C.2     1  UNL1       -0.0168
     29 N         -24.6399    1.7890   28.5686 N.2     1  UNL1       -0.2497
     30 C         -23.3124    0.9925   26.5621 C.2     1  UNL1        0.2060
     31 C         -24.0328    1.4782   29.6614 C.2     1  UNL1        0.0526
     32 C         -24.5134    1.3926   27.2380 C.2     1  UNL1        0.1211
     33 C         -22.1042    0.7099   27.1704 C.2     1  UNL1        0.0387
     34 C         -26.2179    5.1211   32.9844 C.3     1  UNL1        0.1839
     35 O         -26.1598    3.7640   32.7134 O.3     1  UNL1       -0.2897
     36 O         -23.2010    1.2108   25.3536 O.2     1  UNL1       -0.2904
     37 C         -24.8621    1.7638   30.9082 C.3     1  UNL1        0.1440
     38 P         -25.4089    3.3597   31.3876 P.3     1  UNL1        0.3744
     39 O         -23.9842    4.0492   31.6711 O.3     1  UNL1       -0.1395
     40 C         -22.6394    0.9781   29.5912 C.3     1  UNL1        0.0680
     41 F         -21.9955    2.0159   25.2794 F       1  UNL1        0.0138
     42 O         -26.2856    3.6893   30.2039 O.2     1  UNL1       -0.2551
@<TRIPOS>BOND
     1     2     7    1
     2     2     1    1
     3     3     2    2
     4     4     3    1
     5     4     5    2
     6     5     6    1
     7     6     7    2
     8     8     1    1
     9     8     9    1
    10     8    12    1
    11     9    37    1
    12     9    10    1
    13    10    11    1
    14    12    11    1
    15    13    32    1
    16    14    13    1
    17    14    15    1
    18    15    18    2
    19    16    17    1
    20    16    15    1
    21    19    14    2
    22    20    21    2
    23    20    19    1
    24    21    26    1
    25    22    21    1
    26    23    22    1
    27    24    23    1
    28    24    25    1
    29    26    27    1
    30    26    13    2
    31    28    40    1
    32    29    31    2
    33    30    33    1
    34    30    32    2
    35    32    29    1
    36    33    28    2
    37    35    34    1
    38    36    30    1
    39    37    31    1
    40    37    38    1
    41    38    42    2
    42    38    39    1
    43    38    35    1
    44    40    31    1
    45    41    36    1
