@<TRIPOS>MOLECULE
outputs/IAG933/test6/raw/output_142_IAG933_linker_design_.xyz
 42 45 0 0 0
SMALL
GASTEIGER

@<TRIPOS>ATOM
      1 C         -24.8550   -1.0120   30.1430 C.3     1  UNL1        0.1553
      2 C         -24.9730   -2.5050   29.7880 C.2     1  UNL1        0.0060
      3 C         -23.9060   -3.1730   29.1460 C.2     1  UNL1       -0.0019
      4 C         -23.9890   -4.5490   28.8530 C.2     1  UNL1       -0.0002
      5 C         -25.1370   -5.2800   29.2050 C.2     1  UNL1       -0.0000
      6 C         -26.2320   -4.6110   29.7840 C.2     1  UNL1       -0.0002
      7 C         -26.1550   -3.2320   30.0650 C.2     1  UNL1       -0.0019
      8 C         -25.3870   -0.6790   31.5710 C.3     1  UNL1        0.1042
      9 C         -25.1890    0.7730   32.0280 C.3     1  UNL1        0.0217
     10 C         -25.3360    0.6840   33.5440 C.3     1  UNL1        0.0203
     11 C         -24.8290   -0.7150   33.9050 C.3     1  UNL1        0.0888
     12 N         -24.7580   -1.4810   32.6460 N.3     1  UNL1       -0.2166
     13 C         -25.6880    1.6140   26.4610 C.2     1  UNL1        0.0905
     14 C         -26.2500    2.9200   26.3950 C.2     1  UNL1        0.0900
     15 C         -25.6420    4.0930   27.1230 C.2     1  UNL1        0.2676
     16 N         -25.6140    5.2520   26.4490 N.am    1  UNL1       -0.1997
     17 C         -25.0260    6.4790   26.9630 C.3     1  UNL1        0.1388
     18 O         -25.1430    3.9660   28.2430 O.2     1  UNL1       -0.2683
     19 C         -27.4380    3.0910   25.6450 C.2     1  UNL1        0.1080
     20 N         -28.0750    2.0890   25.0030 N.2     1  UNL1       -0.2080
     21 C         -27.5430    0.8490   25.0790 C.2     1  UNL1        0.2546
     22 O         -28.1930   -0.2080   24.4770 O.2     1  UNL1       -0.4558
     23 C         -29.4600    0.0050   23.8660 C.3     1  UNL1        0.2426
     24 C         -30.0650   -1.3770   23.5730 C.3     1  UNL1        0.2292
     25 O         -30.7290   -1.8780   24.7210 O.3     1  UNL1       -0.2162
     26 C         -26.3540    0.5760   25.7770 C.2     1  UNL1        0.2064
     27 F         -25.8600   -0.6810   25.7950 F       1  UNL1       -0.1979
     28 C         -25.8910    3.9480   31.3314 C.3     1  UNL1        0.0189
     29 C         -22.9122    2.2214   25.5800 C.3     1  UNL1        0.0659
     30 C         -21.5192    0.4349   28.6693 C.2     1  UNL1        0.5143
     31 C         -23.1656    1.8327   27.0717 C.3     1  UNL1        0.2528
     32 C         -23.5506    1.2768   29.4641 C.3     1  UNL1        0.2945
     33 N         -24.5168    1.1622   27.2119 N.pl3   1  UNL1       -0.2467
     34 O         -21.9596    1.0459   27.4655 O.3     1  UNL1       -0.4022
     35 C         -25.1308    3.0715   30.5443 C.3     1  UNL1        0.0925
     36 C         -22.6394    1.0764   24.6128 C.3     1  UNL1        0.0058
     37 O         -25.4242   -0.2132   29.0541 O.3     1  UNL1       -0.3301
     38 C         -25.0672    4.6965   32.2916 C.3     1  UNL1        0.0015
     39 O         -20.1734    0.0061   28.1436 O.2     1  UNL1       -0.2027
     40 C         -24.2809    0.4288   28.4918 C.3     1  UNL1        0.2545
     41 N         -24.7404    2.1561   29.5989 N.3     1  UNL1       -0.1764
     42 O         -22.4435    0.2769   29.7204 O.3     1  UNL1       -0.3997
@<TRIPOS>BOND
     1     1    37    1
     2     2     7    1
     3     2     1    1
     4     3     2    2
     5     4     3    1
     6     4     5    2
     7     5     6    1
     8     6     7    2
     9     8     1    1
    10     8     9    1
    11     8    12    1
    12     9    10    1
    13    10    11    1
    14    12    11    1
    15    13    33    1
    16    14    13    1
    17    14    15    1
    18    15    18    2
    19    16    17    1
    20    16    15    1
    21    19    14    2
    22    20    21    2
    23    20    19    1
    24    21    26    1
    25    22    21    1
    26    23    22    1
    27    24    23    1
    28    24    25    1
    29    26    27    1
    30    26    13    2
    31    28    38    1
    32    30    42    1
    33    31    29    1
    34    31    33    1
    35    31    34    1
    36    32    41    1
    37    32    42    1
    38    33    40    1
    39    34    30    1
    40    35    28    1
    41    36    29    1
    42    39    30    2
    43    40    37    1
    44    40    32    1
    45    41    35    1
