@<TRIPOS>MOLECULE
outputs/IAG933/test6/raw/output_1421_IAG933_linker_design_.xyz
 41 44 0 0 0
SMALL
GASTEIGER

@<TRIPOS>ATOM
      1 C         -24.8550   -1.0120   30.1430 C.3     1  UNL1        0.1255
      2 C         -24.9730   -2.5050   29.7880 C.2     1  UNL1       -0.0041
      3 C         -23.9060   -3.1730   29.1460 C.2     1  UNL1       -0.0029
      4 C         -23.9890   -4.5490   28.8530 C.2     1  UNL1       -0.0003
      5 C         -25.1370   -5.2800   29.2050 C.2     1  UNL1       -0.0000
      6 C         -26.2320   -4.6110   29.7840 C.2     1  UNL1       -0.0003
      7 C         -26.1550   -3.2320   30.0650 C.2     1  UNL1       -0.0029
      8 C         -25.3870   -0.6790   31.5710 C.3     1  UNL1        0.0939
      9 C         -25.1890    0.7730   32.0280 C.3     1  UNL1        0.0207
     10 C         -25.3360    0.6840   33.5440 C.3     1  UNL1        0.0203
     11 C         -24.8290   -0.7150   33.9050 C.3     1  UNL1        0.0888
     12 N         -24.7580   -1.4810   32.6460 N.3     1  UNL1       -0.2177
     13 C         -25.6880    1.6140   26.4610 C.3     1  UNL1        0.1618
     14 C         -26.2500    2.9200   26.3950 C.2     1  UNL1        0.0747
     15 C         -25.6420    4.0930   27.1230 C.2     1  UNL1        0.2641
     16 N         -25.6140    5.2520   26.4490 N.am    1  UNL1       -0.1999
     17 C         -25.0260    6.4790   26.9630 C.3     1  UNL1        0.1388
     18 O         -25.1430    3.9660   28.2430 O.2     1  UNL1       -0.2686
     19 C         -27.4380    3.0910   25.6450 C.2     1  UNL1        0.1038
     20 N         -28.0750    2.0890   25.0030 N.2     1  UNL1       -0.2118
     21 C         -27.5430    0.8490   25.0790 C.2     1  UNL1        0.2359
     22 O         -28.1930   -0.2080   24.4770 O.2     1  UNL1       -0.4585
     23 C         -29.4600    0.0050   23.8660 C.3     1  UNL1        0.2423
     24 C         -30.0650   -1.3770   23.5730 C.3     1  UNL1        0.2292
     25 O         -30.7290   -1.8780   24.7210 O.3     1  UNL1       -0.2162
     26 C         -26.3540    0.5760   25.7770 C.3     1  UNL1        0.2597
     27 F         -25.8600   -0.6810   25.7950 F       1  UNL1       -0.2250
     28 C         -22.6016    0.0222   29.3798 C.3     1  UNL1        0.0466
     29 N         -24.8311   -0.1754   29.0986 N.3     1  UNL1       -0.1246
     30 C         -23.7410    1.0594   27.6123 C.2     1  UNL1        0.0632
     31 C         -22.6342    1.8306   25.4452 C.2     1  UNL1        0.3753
     32 C         -20.5504   -0.6456   28.7386 C.2     1  UNL1       -0.0087
     33 O         -21.7664    2.7923   25.2179 O.2     1  UNL1       -0.2420
     34 O         -23.4189    1.4684   24.4061 O.3     1  UNL1       -0.2604
     35 C         -23.7628    0.3537   28.7684 C.3     1  UNL1        0.1283
     36 C         -21.5235    0.8440   27.3907 C.3     1  UNL1        0.0561
     37 N         -24.8947    1.3269   27.3489 N.pl3   1  UNL1       -0.2343
     38 C         -22.6477    1.2900   26.8166 C.2     1  UNL1        0.0726
     39 O         -25.9484   -0.2258   28.5958 O.3     1  UNL1       -0.1173
     40 O         -24.2116    0.5443   24.3867 O.3     1  UNL1        0.0316
     41 C         -21.5941    0.1306   28.5313 C.2     1  UNL1       -0.0378
@<TRIPOS>BOND
     1     1    29    1
     2     2     7    1
     3     2     1    1
     4     3     2    2
     5     4     3    1
     6     4     5    2
     7     5     6    1
     8     6     7    2
     9     8     1    1
    10     8     9    1
    11     8    12    1
    12     9    10    1
    13    10    11    1
    14    12    11    1
    15    13    37    1
    16    14    13    1
    17    14    15    1
    18    15    18    2
    19    16    17    1
    20    16    15    1
    21    19    14    2
    22    20    21    2
    23    20    19    1
    24    21    26    1
    25    22    21    1
    26    23    22    1
    27    24    23    1
    28    24    25    1
    29    26    27    1
    30    26    13    1
    31    30    35    1
    32    31    38    1
    33    33    31    2
    34    34    31    1
    35    35    29    1
    36    35    28    1
    37    36    41    1
    38    37    30    1
    39    38    36    1
    40    38    30    2
    41    39    29    1
    42    40    34    1
    43    41    32    2
    44    41    28    1
