@<TRIPOS>MOLECULE
No_1424-gen_results/8p0m/2024-11-27-11-27-31/
 22 24 0 0 0
SMALL
GASTEIGER

@<TRIPOS>ATOM
      1 C         -28.0162   -0.8135   28.8779 C.ar    1  UNL1        0.0066
      2 C         -28.4690   -0.7850   29.8287 C.ar    1  UNL1        0.0798
      3 C         -27.1356    0.2359   28.5352 C.ar    1  UNL1        0.0024
      4 C         -26.8745    1.2825   29.3982 C.ar    1  UNL1        0.0001
      5 C         -28.3613    0.1987   30.9244 C.ar    1  UNL1        0.0066
      6 C         -27.5277    1.2234   30.6356 C.ar    1  UNL1        0.0002
      7 C         -26.3987    0.2949   27.2279 C.ar    1  UNL1        0.0275
      8 C         -26.9022    0.7280   26.2134 C.ar    1  UNL1        0.1401
      9 C         -26.1747    0.6364   24.9259 C.ar    1  UNL1        0.0296
     10 C         -25.0769   -0.2068   27.2393 C.ar    1  UNL1        0.0022
     11 C         -24.2655   -0.1217   26.1499 C.ar    1  UNL1        0.0001
     12 C         -24.8746    0.2819   24.9272 C.ar    1  UNL1        0.0023
     13 C         -24.4038   -0.6588   28.5025 C.ar    1  UNL1        0.0001
     14 C         -24.2753   -1.8858   28.9141 C.ar    1  UNL1        0.0000
     15 C         -23.6442   -2.2007   30.1283 C.ar    1  UNL1        0.0000
     16 C         -23.3671   -1.1431   31.0294 C.ar    1  UNL1        0.0000
     17 C         -24.0405    0.3673   29.5254 C.ar    1  UNL1        0.0000
     18 C         -23.5117    0.1305   30.7006 C.ar    1  UNL1        0.0000
     19 F         -28.2025    1.0809   26.0014 F       1  UNL1       -0.2042
     20 C         -29.4536   -1.9503   30.3090 C.2     1  UNL1        0.3878
     21 O         -29.0917   -2.9927   30.3616 O.co2   1  UNL1       -0.2406
     22 O         -30.7035   -1.7030   30.5788 O.co2   1  UNL1       -0.2406
@<TRIPOS>BOND
     1     3     7    1
     2    10    13    1
     3     8    19    1
     4     2    20    1
     5    20    21   ar
     6    20    22   ar
     7    13    14   ar
     8    14    15   ar
     9    15    16   ar
    10    16    18   ar
    11    18    17   ar
    12    17    13   ar
    13     1     2   ar
    14     2     5   ar
    15     5     6   ar
    16     6     4   ar
    17     4     3   ar
    18     3     1   ar
    19     7     8   ar
    20     8     9   ar
    21     9    12   ar
    22    12    11   ar
    23    11    10   ar
    24    10     7   ar
