@<TRIPOS>MOLECULE
No_1425-gen_results/8p0m/2024-11-27-11-27-31/
 10 10 0 0 0
SMALL
GASTEIGER

@<TRIPOS>ATOM
      1 C         -28.0162   -0.8135   28.8779 C.ar    1  UNL1       -0.0026
      2 C         -28.4690   -0.7850   29.8287 C.ar    1  UNL1       -0.0003
      3 C         -27.1356    0.2359   28.5352 C.ar    1  UNL1       -0.0007
      4 C         -26.8745    1.2825   29.3982 C.ar    1  UNL1       -0.0026
      5 C         -28.3613    0.1987   30.9244 C.ar    1  UNL1       -0.0000
      6 C         -27.5277    1.2234   30.6356 C.ar    1  UNL1       -0.0003
      7 C         -26.3879    0.2914   27.2334 C.3     1  UNL1        0.1386
      8 N         -25.5573    1.3117   27.0292 N.pl3   1  UNL1       -0.2315
      9 C         -24.3236    1.3466   27.3501 C.2     1  UNL1        0.0805
     10 C         -23.4862    2.5315   27.0004 C.2     1  UNL1        0.0188
@<TRIPOS>BOND
     1     3     7    1
     2     7     8    1
     3     8     9    1
     4     9    10    2
     5     1     2   ar
     6     2     5   ar
     7     5     6   ar
     8     6     4   ar
     9     4     3   ar
    10     3     1   ar
