@<TRIPOS>MOLECULE
No_1426-gen_results/8p0m/2024-11-27-11-27-31/
 15 17 0 0 0
SMALL
GASTEIGER

@<TRIPOS>ATOM
      1 C         -28.0162   -0.8135   28.8779 C.ar    1  UNL1        0.0048
      2 C         -27.0636   -0.1189   28.6079 C.ar    1  UNL1        0.0579
      3 C         -25.7923   -0.4302   29.0761 C.ar    1  UNL1        0.0061
      4 C         -25.5756   -1.5654   29.9363 C.ar    1  UNL1        0.0002
      5 C         -26.7354   -2.3004   30.2173 C.ar    1  UNL1        0.0000
      6 C         -27.9184   -1.9537   29.7629 C.ar    1  UNL1        0.0002
      7 C         -27.1057    1.1023   27.7593 C.ar    1  UNL1        0.2791
      8 N         -26.2345    1.4562   27.0152 N.ar    1  UNL1       -0.2079
      9 O         -28.2185    1.7527   27.7182 O.2     1  UNL1       -0.2652
     10 C         -24.8600    0.9268   27.0187 C.ar    1  UNL1        0.0845
     11 C         -23.8323    1.7388   26.4825 C.ar    1  UNL1        0.0192
     12 C         -23.0149    2.5275   27.2216 C.ar    1  UNL1        0.0015
     13 C         -22.6510    1.9559   28.4685 C.ar    1  UNL1        0.0001
     14 C         -23.3005    0.8677   29.0238 C.ar    1  UNL1        0.0015
     15 C         -24.5106    0.4869   28.3536 C.ar    1  UNL1        0.0179
@<TRIPOS>BOND
     1     2     7   ar
     2     7     8   ar
     3     7     9    2
     4     8    10   ar
     5     3    15   ar
     6     1     2   ar
     7     2     3   ar
     8     3     4   ar
     9     4     5   ar
    10     5     6   ar
    11     6     1   ar
    12    10    11   ar
    13    11    12   ar
    14    12    13   ar
    15    13    14   ar
    16    14    15   ar
    17    15    10   ar
