@<TRIPOS>MOLECULE
No_1430-gen_results/8p0m/2024-11-27-11-27-31/
 15 16 0 0 0
SMALL
GASTEIGER

@<TRIPOS>ATOM
      1 C         -28.0162   -0.8135   28.8779 C.ar    1  UNL1        0.0066
      2 C         -27.0636   -0.1190   28.6079 C.ar    1  UNL1        0.0002
      3 C         -25.7647   -0.3897   29.0360 C.ar    1  UNL1        0.0000
      4 C         -24.5516    0.4058   28.7646 C.ar    1  UNL1        0.0000
      5 C         -23.2300    0.1178   29.2575 C.ar    1  UNL1        0.0000
      6 C         -22.1393    0.9427   28.9224 C.ar    1  UNL1        0.0000
      7 C         -27.8294   -1.9287   29.8545 C.ar    1  UNL1        0.0798
      8 C         -26.5882   -2.3272   30.2682 C.ar    1  UNL1        0.0066
      9 C         -25.4565   -1.5432   29.9146 C.ar    1  UNL1        0.0002
     10 C         -22.2302    1.9089   27.8723 C.ar    1  UNL1        0.0000
     11 C         -24.5538    1.4700   27.7617 C.ar    1  UNL1        0.0000
     12 C         -23.4471    2.1666   27.3764 C.ar    1  UNL1        0.0000
     13 C         -28.9783   -2.7708   30.2578 C.2     1  UNL1        0.3878
     14 O         -30.0173   -2.4646   30.0655 O.co2   1  UNL1       -0.2406
     15 O         -28.6463   -4.0244   30.6486 O.co2   1  UNL1       -0.2406
@<TRIPOS>BOND
     1     3     4    1
     2     7    13    1
     3    13    14   ar
     4    13    15   ar
     5     1     2   ar
     6     2     3   ar
     7     3     9   ar
     8     9     8   ar
     9     8     7   ar
    10     7     1   ar
    11     4     5   ar
    12     5     6   ar
    13     6    10   ar
    14    10    12   ar
    15    12    11   ar
    16    11     4   ar
