@<TRIPOS>MOLECULE
No_1431-gen_results/8p0m/2024-11-27-11-27-31/
 15 15 0 0 0
SMALL
GASTEIGER

@<TRIPOS>ATOM
      1 C         -28.0162   -0.8135   28.8779 C.3     1  UNL1        0.0089
      2 C         -28.4690   -0.7850   29.8287 C.3     1  UNL1        0.1008
      3 C         -28.1816    0.4277   28.1134 C.3     1  UNL1        0.0046
      4 C         -27.0280    0.9338   27.5279 C.3     1  UNL1        0.0223
      5 C         -29.8654   -0.6573   30.0468 C.3     1  UNL1        0.3900
      6 F         -30.2490    0.4806   29.5488 F       1  UNL1       -0.1721
      7 O         -30.2407   -0.7376   31.4554 O.3     1  UNL1       -0.1554
      8 C         -25.8677    0.7961   28.2511 C.ar    1  UNL1       -0.0225
      9 C         -25.3240    1.5085   28.9094 C.ar    1  UNL1       -0.0043
     10 C         -24.0149    1.3350   29.5867 C.ar    1  UNL1       -0.0003
     11 C         -23.3898    0.4669   29.2928 C.ar    1  UNL1       -0.0000
     12 C         -23.7730   -0.6108   28.4678 C.ar    1  UNL1       -0.0003
     13 C         -25.0660   -0.4412   27.8634 C.ar    1  UNL1       -0.0043
     14 F         -30.5443   -1.6325   29.4694 F       1  UNL1       -0.1721
     15 C         -27.1198    1.6133   26.3090 C.3     1  UNL1        0.0047
@<TRIPOS>BOND
     1     1     2    1
     2     1     3    1
     3     3     4    1
     4     2     5    1
     5     5     6    1
     6     5     7    1
     7     4     8    1
     8     5    14    1
     9     4    15    1
    10     8     9   ar
    11     9    10   ar
    12    10    11   ar
    13    11    12   ar
    14    12    13   ar
    15    13     8   ar
