@<TRIPOS>MOLECULE
outputs/IAG933/test6/raw/output_1433_IAG933_linker_design_.xyz
 44 48 0 0 0
SMALL
GASTEIGER

@<TRIPOS>ATOM
      1 C         -24.8550   -1.0120   30.1430 C.3     1  UNL1        0.0713
      2 C         -24.9730   -2.5050   29.7880 C.2     1  UNL1       -0.0184
      3 C         -23.9060   -3.1730   29.1460 C.2     1  UNL1       -0.0041
      4 C         -23.9890   -4.5490   28.8530 C.2     1  UNL1       -0.0003
      5 C         -25.1370   -5.2800   29.2050 C.2     1  UNL1       -0.0000
      6 C         -26.2320   -4.6110   29.7840 C.2     1  UNL1       -0.0003
      7 C         -26.1550   -3.2320   30.0650 C.2     1  UNL1       -0.0041
      8 C         -25.3870   -0.6790   31.5710 C.3     1  UNL1        0.0795
      9 C         -25.1890    0.7730   32.0280 C.3     1  UNL1        0.0193
     10 C         -25.3360    0.6840   33.5440 C.3     1  UNL1        0.0202
     11 C         -24.8290   -0.7150   33.9050 C.3     1  UNL1        0.0887
     12 N         -24.7580   -1.4810   32.6460 N.3     1  UNL1       -0.2190
     13 C         -25.6880    1.6140   26.4610 C.2     1  UNL1        0.0401
     14 C         -26.2500    2.9200   26.3950 C.2     1  UNL1        0.0766
     15 C         -25.6420    4.0930   27.1230 C.2     1  UNL1        0.2664
     16 N         -25.6140    5.2520   26.4490 N.am    1  UNL1       -0.1997
     17 C         -25.0260    6.4790   26.9630 C.3     1  UNL1        0.1388
     18 O         -25.1430    3.9660   28.2430 O.2     1  UNL1       -0.2683
     19 C         -27.4380    3.0910   25.6450 C.2     1  UNL1        0.1067
     20 N         -28.0750    2.0890   25.0030 N.2     1  UNL1       -0.2081
     21 C         -27.5430    0.8490   25.0790 C.2     1  UNL1        0.2533
     22 O         -28.1930   -0.2080   24.4770 O.2     1  UNL1       -0.4558
     23 C         -29.4600    0.0050   23.8660 C.3     1  UNL1        0.2426
     24 C         -30.0650   -1.3770   23.5730 C.3     1  UNL1        0.2292
     25 O         -30.7290   -1.8780   24.7210 O.3     1  UNL1       -0.2162
     26 C         -26.3540    0.5760   25.7770 C.2     1  UNL1        0.1931
     27 F         -25.8600   -0.6810   25.7950 F       1  UNL1       -0.1992
     28 C         -24.2624    1.3481   27.1584 C.2     1  UNL1        0.0290
     29 O         -26.5394   -0.2759   28.6603 O.3     1  UNL1       -0.3333
     30 C         -29.9427    2.5079   28.5112 C.3     1  UNL1        0.1598
     31 C         -27.6791    2.0014   29.4511 C.3     1  UNL1        0.2219
     32 C         -30.5098   -0.0343   27.4287 C.3     1  UNL1        0.0015
     33 C         -27.8653   -0.6651   28.9307 C.3     1  UNL1        0.2221
     34 N         -28.3945    0.7288   29.0042 N.3     1  UNL1       -0.2208
     35 O         -28.8956    3.1370   29.2954 O.3     1  UNL1       -0.3358
     36 C         -24.1072    0.6103   28.3651 C.2     1  UNL1        0.0873
     37 C         -30.6961    0.1867   28.9434 C.3     1  UNL1        0.0187
     38 C         -23.0526    1.7869   26.5730 C.2     1  UNL1        0.0605
     39 C         -21.7834    0.8529   28.3612 C.2     1  UNL1        0.0994
     40 CL        -23.0268    2.5704   25.0042 Cl      1  UNL1       -0.0822
     41 C         -25.2230   -0.1360   28.9806 C.3     1  UNL1        0.1618
     42 N         -22.9157    0.4613   28.9481 N.2     1  UNL1       -0.2457
     43 C         -21.8175    1.5133   27.1260 C.2     1  UNL1        0.0320
     44 C         -29.8048    0.9933   28.5965 C.3     1  UNL1        0.0916
@<TRIPOS>BOND
     1     1    41    1
     2     2     7    1
     3     2     1    1
     4     3     2    2
     5     4     3    1
     6     4     5    2
     7     5     6    1
     8     6     7    2
     9     8     1    1
    10     8     9    1
    11     8    12    1
    12     9    10    1
    13    10    11    1
    14    12    11    1
    15    13    28    1
    16    14    13    1
    17    14    15    1
    18    15    18    2
    19    16    17    1
    20    16    15    1
    21    19    14    2
    22    20    21    2
    23    20    19    1
    24    21    26    1
    25    22    21    1
    26    23    22    1
    27    24    23    1
    28    24    25    1
    29    26    27    1
    30    26    13    2
    31    28    36    1
    32    29    33    1
    33    30    44    1
    34    30    35    1
    35    32    37    1
    36    33    34    1
    37    34    31    1
    38    35    31    1
    39    36    42    2
    40    36    41    1
    41    38    43    1
    42    38    28    2
    43    39    42    1
    44    40    38    1
    45    41    29    1
    46    43    39    2
    47    44    37    1
    48    44    34    1
