@<TRIPOS>MOLECULE
outputs/IAG933/test6/raw/output_1435_IAG933_linker_design_.xyz
 40 43 0 0 0
SMALL
GASTEIGER

@<TRIPOS>ATOM
      1 C         -24.8550   -1.0120   30.1430 C.3     1  UNL1        0.1163
      2 C         -24.9730   -2.5050   29.7880 C.2     1  UNL1       -0.0125
      3 C         -23.9060   -3.1730   29.1460 C.2     1  UNL1       -0.0038
      4 C         -23.9890   -4.5490   28.8530 C.2     1  UNL1       -0.0003
      5 C         -25.1370   -5.2800   29.2050 C.2     1  UNL1       -0.0000
      6 C         -26.2320   -4.6110   29.7840 C.2     1  UNL1       -0.0003
      7 C         -26.1550   -3.2320   30.0650 C.2     1  UNL1       -0.0038
      8 C         -25.3870   -0.6790   31.5710 C.3     1  UNL1        0.0855
      9 C         -25.1890    0.7730   32.0280 C.3     1  UNL1        0.0197
     10 C         -25.3360    0.6840   33.5440 C.3     1  UNL1        0.0203
     11 C         -24.8290   -0.7150   33.9050 C.3     1  UNL1        0.0887
     12 N         -24.7580   -1.4810   32.6460 N.3     1  UNL1       -0.2186
     13 C         -25.6880    1.6140   26.4610 C.3     1  UNL1        0.0940
     14 C         -26.2500    2.9200   26.3950 C.2     1  UNL1        0.0568
     15 C         -25.6420    4.0930   27.1230 C.2     1  UNL1        0.2625
     16 N         -25.6140    5.2520   26.4490 N.am    1  UNL1       -0.2000
     17 C         -25.0260    6.4790   26.9630 C.3     1  UNL1        0.1388
     18 O         -25.1430    3.9660   28.2430 O.2     1  UNL1       -0.2687
     19 C         -27.4380    3.0910   25.6450 C.2     1  UNL1        0.1022
     20 N         -28.0750    2.0890   25.0030 N.2     1  UNL1       -0.2119
     21 C         -27.5430    0.8490   25.0790 C.2     1  UNL1        0.2342
     22 O         -28.1930   -0.2080   24.4770 O.2     1  UNL1       -0.4585
     23 C         -29.4600    0.0050   23.8660 C.3     1  UNL1        0.2423
     24 C         -30.0650   -1.3770   23.5730 C.3     1  UNL1        0.2292
     25 O         -30.7290   -1.8780   24.7210 O.3     1  UNL1       -0.2162
     26 C         -26.3540    0.5760   25.7770 C.3     1  UNL1        0.2420
     27 F         -25.8600   -0.6810   25.7950 F       1  UNL1       -0.2268
     28 C         -25.8818   -0.1077   29.2374 C.2     1  UNL1        0.2466
     29 C         -21.4773    0.6197   28.5416 C.2     1  UNL1        0.0071
     30 F         -20.1382    2.2228   27.5923 F       1  UNL1       -0.2012
     31 C         -21.2590    1.5438   27.7284 C.2     1  UNL1        0.1730
     32 C         -22.4498    1.7857   27.0901 C.2     1  UNL1        0.2064
     33 O         -22.5765    2.5851   25.9965 O.2     1  UNL1       -0.3013
     34 N         -25.5934    1.2090   28.6729 N.am    1  UNL1       -0.2022
     35 C         -23.0236    0.3977   28.6748 C.3     1  UNL1        0.0317
     36 O         -23.5384    2.3853   25.0165 O.3     1  UNL1        0.0284
     37 C         -24.8738    1.2812   27.5690 C.3     1  UNL1        0.1240
     38 O         -27.1915   -0.4473   28.6997 O.2     1  UNL1       -0.2729
     39 C         -22.2999   -0.2381   29.2773 C.3     1  UNL1        0.0330
     40 C         -23.5380    1.1441   27.7208 C.2     1  UNL1        0.0162
@<TRIPOS>BOND
     1     1    28    1
     2     2     7    1
     3     2     1    1
     4     3     2    2
     5     4     3    1
     6     4     5    2
     7     5     6    1
     8     6     7    2
     9     8     1    1
    10     8     9    1
    11     8    12    1
    12     9    10    1
    13    10    11    1
    14    12    11    1
    15    13    37    1
    16    14    13    1
    17    14    15    1
    18    15    18    2
    19    16    17    1
    20    16    15    1
    21    19    14    2
    22    20    21    2
    23    20    19    1
    24    21    26    1
    25    22    21    1
    26    23    22    1
    27    24    23    1
    28    24    25    1
    29    26    27    1
    30    26    13    1
    31    29    39    1
    32    30    31    1
    33    31    29    2
    34    32    40    2
    35    32    31    1
    36    33    32    1
    37    34    28    1
    38    35    39    1
    39    36    33    1
    40    37    40    1
    41    37    34    1
    42    38    28    2
    43    40    35    1
