@<TRIPOS>MOLECULE
outputs/IAG933/test6/raw/output_1438_IAG933_linker_design_.xyz
 41 44 0 0 0
SMALL
GASTEIGER

@<TRIPOS>ATOM
      1 C         -24.8550   -1.0120   30.1430 C.3     1  UNL1        0.1163
      2 C         -24.9730   -2.5050   29.7880 C.2     1  UNL1       -0.0125
      3 C         -23.9060   -3.1730   29.1460 C.2     1  UNL1       -0.0038
      4 C         -23.9890   -4.5490   28.8530 C.2     1  UNL1       -0.0003
      5 C         -25.1370   -5.2800   29.2050 C.2     1  UNL1       -0.0000
      6 C         -26.2320   -4.6110   29.7840 C.2     1  UNL1       -0.0003
      7 C         -26.1550   -3.2320   30.0650 C.2     1  UNL1       -0.0038
      8 C         -25.3870   -0.6790   31.5710 C.3     1  UNL1        0.0855
      9 C         -25.1890    0.7730   32.0280 C.3     1  UNL1        0.0197
     10 C         -25.3360    0.6840   33.5440 C.3     1  UNL1        0.0203
     11 C         -24.8290   -0.7150   33.9050 C.3     1  UNL1        0.0887
     12 N         -24.7580   -1.4810   32.6460 N.3     1  UNL1       -0.2186
     13 C         -25.6880    1.6140   26.4610 C.2     1  UNL1        0.0364
     14 C         -26.2500    2.9200   26.3950 C.2     1  UNL1        0.0742
     15 C         -25.6420    4.0930   27.1230 C.2     1  UNL1        0.2662
     16 N         -25.6140    5.2520   26.4490 N.am    1  UNL1       -0.1997
     17 C         -25.0260    6.4790   26.9630 C.3     1  UNL1        0.1388
     18 O         -25.1430    3.9660   28.2430 O.2     1  UNL1       -0.2683
     19 C         -27.4380    3.0910   25.6450 C.2     1  UNL1        0.1065
     20 N         -28.0750    2.0890   25.0030 N.2     1  UNL1       -0.2081
     21 C         -27.5430    0.8490   25.0790 C.2     1  UNL1        0.2530
     22 O         -28.1930   -0.2080   24.4770 O.2     1  UNL1       -0.4558
     23 C         -29.4600    0.0050   23.8660 C.3     1  UNL1        0.2426
     24 C         -30.0650   -1.3770   23.5730 C.3     1  UNL1        0.2292
     25 O         -30.7290   -1.8780   24.7210 O.3     1  UNL1       -0.2162
     26 C         -26.3540    0.5760   25.7770 C.2     1  UNL1        0.1907
     27 F         -25.8600   -0.6810   25.7950 F       1  UNL1       -0.1995
     28 O         -26.9049   -0.3013   28.8569 O.2     1  UNL1       -0.2729
     29 C         -24.6558    1.0054   27.3437 C.3     1  UNL1        0.1361
     30 C         -22.5904    1.9120   26.6227 C.2     1  UNL1        0.2538
     31 C         -22.4617    0.7264   28.6282 C.2     1  UNL1        0.1816
     32 C         -21.0906    0.5608   28.4162 C.2     1  UNL1        0.0374
     33 O         -23.2595    2.6146   25.6452 O.2     1  UNL1       -0.2766
     34 N         -21.2945    1.9830   26.4997 N.2     1  UNL1       -0.2330
     35 N         -24.9414   -0.1191   27.9632 N.am    1  UNL1       -0.2013
     36 C         -20.3996   -0.2573   28.9653 C.2     1  UNL1        0.0003
     37 O         -22.8864    0.3630   29.7660 O.2     1  UNL1       -0.2910
     38 C         -25.6396   -0.2048   29.1247 C.2     1  UNL1        0.2467
     39 C         -20.5511    1.3343   27.4103 C.3     1  UNL1        0.1577
     40 C         -23.2640    1.2800   27.5542 C.3     1  UNL1        0.1652
     41 F         -22.6269    2.5617   24.4862 F       1  UNL1        0.0150
@<TRIPOS>BOND
     1     1    38    1
     2     2     7    1
     3     2     1    1
     4     3     2    2
     5     4     3    1
     6     4     5    2
     7     5     6    1
     8     6     7    2
     9     8     1    1
    10     8     9    1
    11     8    12    1
    12     9    10    1
    13    10    11    1
    14    12    11    1
    15    13    29    1
    16    14    13    1
    17    14    15    1
    18    15    18    2
    19    16    17    1
    20    16    15    1
    21    19    14    2
    22    20    21    2
    23    20    19    1
    24    21    26    1
    25    22    21    1
    26    23    22    1
    27    24    23    1
    28    24    25    1
    29    26    27    1
    30    26    13    2
    31    28    38    2
    32    29    35    1
    33    30    40    1
    34    31    37    2
    35    32    31    1
    36    32    36    2
    37    33    30    1
    38    34    30    2
    39    34    39    1
    40    35    38    1
    41    39    32    1
    42    40    29    1
    43    40    31    1
    44    41    33    1
