@<TRIPOS>MOLECULE
outputs/IAG933/test6/raw/output_1440_IAG933_linker_design_.xyz
 43 46 0 0 0
SMALL
GASTEIGER

@<TRIPOS>ATOM
      1 C         -24.8550   -1.0120   30.1430 C.3     1  UNL1        0.1150
      2 C         -24.9730   -2.5050   29.7880 C.2     1  UNL1       -0.0029
      3 C         -23.9060   -3.1730   29.1460 C.2     1  UNL1       -0.0026
      4 C         -23.9890   -4.5490   28.8530 C.2     1  UNL1       -0.0003
      5 C         -25.1370   -5.2800   29.2050 C.2     1  UNL1       -0.0000
      6 C         -26.2320   -4.6110   29.7840 C.2     1  UNL1       -0.0003
      7 C         -26.1550   -3.2320   30.0650 C.2     1  UNL1       -0.0026
      8 C         -25.3870   -0.6790   31.5710 C.3     1  UNL1        0.0952
      9 C         -25.1890    0.7730   32.0280 C.3     1  UNL1        0.0209
     10 C         -25.3360    0.6840   33.5440 C.3     1  UNL1        0.0203
     11 C         -24.8290   -0.7150   33.9050 C.3     1  UNL1        0.0888
     12 N         -24.7580   -1.4810   32.6460 N.3     1  UNL1       -0.2174
     13 C         -25.6880    1.6140   26.4610 C.3     1  UNL1        0.0955
     14 C         -26.2500    2.9200   26.3950 C.2     1  UNL1        0.0590
     15 C         -25.6420    4.0930   27.1230 C.2     1  UNL1        0.2628
     16 N         -25.6140    5.2520   26.4490 N.am    1  UNL1       -0.2000
     17 C         -25.0260    6.4790   26.9630 C.3     1  UNL1        0.1388
     18 O         -25.1430    3.9660   28.2430 O.2     1  UNL1       -0.2686
     19 C         -27.4380    3.0910   25.6450 C.2     1  UNL1        0.1025
     20 N         -28.0750    2.0890   25.0030 N.2     1  UNL1       -0.2118
     21 C         -27.5430    0.8490   25.0790 C.2     1  UNL1        0.2344
     22 O         -28.1930   -0.2080   24.4770 O.2     1  UNL1       -0.4585
     23 C         -29.4600    0.0050   23.8660 C.3     1  UNL1        0.2423
     24 C         -30.0650   -1.3770   23.5730 C.3     1  UNL1        0.2292
     25 O         -30.7290   -1.8780   24.7210 O.3     1  UNL1       -0.2162
     26 C         -26.3540    0.5760   25.7770 C.3     1  UNL1        0.2441
     27 F         -25.8600   -0.6810   25.7950 F       1  UNL1       -0.2265
     28 C         -26.3166    5.6472   31.1000 C.3     1  UNL1        0.0010
     29 C         -26.3684    0.1960   28.7306 C.3     1  UNL1        0.1710
     30 C         -21.3370    1.8700   26.7175 C.3     1  UNL1        0.2321
     31 C         -23.4594    2.1321   25.6444 C.2     1  UNL1        0.1689
     32 C         -26.6978    4.2945   31.7022 C.3     1  UNL1        0.0130
     33 C         -27.7339    3.6935   30.7822 C.3     1  UNL1        0.0761
     34 C         -27.1297    4.4779   33.1620 C.3     1  UNL1        0.0010
     35 C         -24.2294    1.6579   26.6871 C.2     1  UNL1        0.0261
     36 C         -23.3676    1.2551   27.8683 C.2     1  UNL1        0.0524
     37 O         -22.1229    2.1937   25.6638 O.2     1  UNL1       -0.4679
     38 C         -23.8495    0.6378   29.0308 C.2     1  UNL1        0.2496
     39 C         -27.3517    2.4098   30.0362 C.1     1  UNL1       -0.0894
     40 O         -23.0147    0.6348   30.0177 O.2     1  UNL1       -0.2699
     41 C         -21.9304    1.3860   27.8692 C.2     1  UNL1        0.0250
     42 N         -24.9708   -0.0061   29.1673 N.am    1  UNL1       -0.2610
     43 C         -26.9419    1.3444   29.4129 C.1     1  UNL1       -0.0687
@<TRIPOS>BOND
     1     1    42    1
     2     2     7    1
     3     2     1    1
     4     3     2    2
     5     4     3    1
     6     4     5    2
     7     5     6    1
     8     6     7    2
     9     8     1    1
    10     8     9    1
    11     8    12    1
    12     9    10    1
    13    10    11    1
    14    12    11    1
    15    13    35    1
    16    14    13    1
    17    14    15    1
    18    15    18    2
    19    16    17    1
    20    16    15    1
    21    19    14    2
    22    20    21    2
    23    20    19    1
    24    21    26    1
    25    22    21    1
    26    23    22    1
    27    24    23    1
    28    24    25    1
    29    26    27    1
    30    26    13    1
    31    28    32    1
    32    29    42    1
    33    29    43    1
    34    30    41    1
    35    31    37    1
    36    31    35    2
    37    32    34    1
    38    33    32    1
    39    35    36    1
    40    36    41    2
    41    36    38    1
    42    37    30    1
    43    38    42   am
    44    38    40    2
    45    39    33    1
    46    43    39    3
