@<TRIPOS>MOLECULE
No_1441-gen_results/8p0m/2024-11-27-11-27-31/
 24 25 0 0 0
SMALL
GASTEIGER

@<TRIPOS>ATOM
      1 C         -28.0162   -0.8135   28.8779 C.3     1  UNL1        0.0352
      2 C         -27.0636   -0.1190   28.6079 C.ar    1  UNL1       -0.0171
      3 C         -27.0010    0.6913   27.4910 C.ar    1  UNL1        0.0510
      4 C         -25.8548    1.4825   27.0830 C.ar    1  UNL1        0.0054
      5 C         -24.6901    1.4526   27.8807 C.ar    1  UNL1        0.0437
      6 C         -23.4878    2.1451   27.6011 C.3     1  UNL1        0.3410
      7 C         -25.8122   -0.1656   29.4299 C.ar    1  UNL1       -0.0043
      8 C         -24.6457    0.5887   29.0806 C.ar    1  UNL1        0.0008
      9 C         -28.6766   -0.4983   30.2414 C.3     1  UNL1        0.0483
     10 F         -23.6399    3.2242   27.0039 F       1  UNL1       -0.1933
     11 F         -22.3574    1.6491   27.5560 F       1  UNL1       -0.1933
     12 C         -29.6395   -1.3688   30.7384 C.ar    1  UNL1       -0.0181
     13 C         -29.9374   -2.3081   30.1493 C.ar    1  UNL1       -0.0039
     14 C         -31.0870   -3.0996   30.6884 C.ar    1  UNL1       -0.0003
     15 C         -31.6352   -2.7790   31.8071 C.ar    1  UNL1       -0.0000
     16 C         -31.2593   -1.6929   32.5289 C.ar    1  UNL1       -0.0003
     17 C         -30.2427   -0.8815   31.9997 C.ar    1  UNL1       -0.0039
     18 C         -28.2562    0.7318   30.9470 C.2     1  UNL1       -0.0263
     19 C         -28.1095    0.7977   26.5657 C.2     1  UNL1        0.2645
     20 O         -29.1799    1.0771   26.9036 O.2     1  UNL1       -0.2684
     21 N         -27.9008    0.5274   25.2573 N.am    1  UNL1       -0.1998
     22 C         -28.7625    0.1593   24.4160 C.3     1  UNL1        0.1388
     23 C         -27.3425    0.7377   31.8947 C.2     1  UNL1       -0.0300
     24 C         -26.9694    1.9128   32.5682 C.3     1  UNL1        0.0304
@<TRIPOS>BOND
     1     1     2    1
     2     5     6    1
     3     1     9    1
     4     6    10    1
     5     6    11    1
     6     9    12    1
     7     9    18    1
     8     3    19    1
     9    19    20    2
    10    19    21   am
    11    21    22    1
    12    18    23    2
    13    23    24    1
    14     2     3   ar
    15     3     4   ar
    16     4     5   ar
    17     5     8   ar
    18     8     7   ar
    19     7     2   ar
    20    12    13   ar
    21    13    14   ar
    22    14    15   ar
    23    15    16   ar
    24    16    17   ar
    25    17    12   ar
