@<TRIPOS>MOLECULE
outputs/IAG933/test6/raw/output_1442_IAG933_linker_design_.xyz
 43 48 0 0 0
SMALL
GASTEIGER

@<TRIPOS>ATOM
      1 C         -24.8550   -1.0120   30.1430 C.3     1  UNL1        0.1984
      2 C         -24.9730   -2.5050   29.7880 C.2     1  UNL1        0.0213
      3 C         -23.9060   -3.1730   29.1460 C.2     1  UNL1       -0.0004
      4 C         -23.9890   -4.5490   28.8530 C.2     1  UNL1       -0.0002
      5 C         -25.1370   -5.2800   29.2050 C.2     1  UNL1       -0.0000
      6 C         -26.2320   -4.6110   29.7840 C.2     1  UNL1       -0.0002
      7 C         -26.1550   -3.2320   30.0650 C.2     1  UNL1       -0.0004
      8 C         -25.3870   -0.6790   31.5710 C.3     1  UNL1        0.1197
      9 C         -25.1890    0.7730   32.0280 C.3     1  UNL1        0.0233
     10 C         -25.3360    0.6840   33.5440 C.3     1  UNL1        0.0204
     11 C         -24.8290   -0.7150   33.9050 C.3     1  UNL1        0.0889
     12 N         -24.7580   -1.4810   32.6460 N.3     1  UNL1       -0.2150
     13 C         -25.6880    1.6140   26.4610 C.3     1  UNL1        0.0945
     14 C         -26.2500    2.9200   26.3950 C.2     1  UNL1        0.0590
     15 C         -25.6420    4.0930   27.1230 C.2     1  UNL1        0.2628
     16 N         -25.6140    5.2520   26.4490 N.am    1  UNL1       -0.2000
     17 C         -25.0260    6.4790   26.9630 C.3     1  UNL1        0.1388
     18 O         -25.1430    3.9660   28.2430 O.2     1  UNL1       -0.2686
     19 C         -27.4380    3.0910   25.6450 C.2     1  UNL1        0.1025
     20 N         -28.0750    2.0890   25.0030 N.2     1  UNL1       -0.2118
     21 C         -27.5430    0.8490   25.0790 C.2     1  UNL1        0.2344
     22 O         -28.1930   -0.2080   24.4770 O.2     1  UNL1       -0.4585
     23 C         -29.4600    0.0050   23.8660 C.3     1  UNL1        0.2423
     24 C         -30.0650   -1.3770   23.5730 C.3     1  UNL1        0.2292
     25 O         -30.7290   -1.8780   24.7210 O.3     1  UNL1       -0.2162
     26 C         -26.3540    0.5760   25.7770 C.3     1  UNL1        0.2441
     27 F         -25.8600   -0.6810   25.7950 F       1  UNL1       -0.2265
     28 C         -22.7629   -0.1000   29.2422 C.2     1  UNL1        0.3175
     29 C         -23.6043    1.8987   25.4399 C.2     1  UNL1        0.1996
     30 F         -24.0704    1.5153   24.2990 F       1  UNL1       -0.1987
     31 F         -22.1485    2.8738   24.7457 F       1  UNL1       -0.1604
     32 C         -26.9945   -0.3868   28.3733 C.3     1  UNL1        0.0046
     33 C         -22.5244    0.8616   28.1841 C.2     1  UNL1        0.1179
     34 N         -24.1170   -0.0751   29.4763 N.pl3   1  UNL1       -0.1906
     35 N         -21.6215   -0.6402   29.3835 N.pl3   1  UNL1       -0.0040
     36 C         -24.2566    1.5826   26.4127 C.2     1  UNL1        0.0180
     37 C         -24.7221    0.7531   28.7381 C.3     1  UNL1        0.1828
     38 C         -20.4674   -0.0424   28.3835 C.2     1  UNL1        0.2610
     39 C         -22.2425    2.1391   25.6416 C.2     1  UNL1        0.3153
     40 C         -23.9015    1.1765   27.7222 C.2     1  UNL1        0.0287
     41 C         -25.8319    0.5951   28.4970 C.3     1  UNL1        0.0514
     42 C         -21.2510    0.8685   27.6057 C.2     1  UNL1        0.1990
     43 O         -21.1041    1.6485   26.4215 O.2     1  UNL1       -0.4236
@<TRIPOS>BOND
     1     1     2    1
     2     2     7    1
     3     3     2    2
     4     4     3    1
     5     4     5    2
     6     5     6    1
     7     6     7    2
     8     8     1    1
     9     8     9    1
    10     8    12    1
    11     9    10    1
    12    10    11    1
    13    12    11    1
    14    13    36    1
    15    14    13    1
    16    14    15    1
    17    15    18    2
    18    16    17    1
    19    16    15    1
    20    19    14    2
    21    20    21    2
    22    20    19    1
    23    21    26    1
    24    22    21    1
    25    23    22    1
    26    24    23    1
    27    24    25    1
    28    26    27    1
    29    26    13    1
    30    28    35    1
    31    28    34    1
    32    29    39    2
    33    29    36    1
    34    30    29    1
    35    31    39    1
    36    32    41    1
    37    33    28    2
    38    34     1    1
    39    36    40    2
    40    37    41    1
    41    37    34    1
    42    38    35    1
    43    39    43    1
    44    40    33    1
    45    40    37    1
    46    42    33    1
    47    42    38    2
    48    43    42    1
