@<TRIPOS>MOLECULE
No_1443-gen_results/8p0m/2024-11-27-11-27-31/
 22 22 0 0 0
SMALL
GASTEIGER

@<TRIPOS>ATOM
      1 C         -28.0162   -0.8135   28.8779 C.ar    1  UNL1        0.0104
      2 C         -28.4690   -0.7850   29.8287 C.ar    1  UNL1        0.0799
      3 C         -27.0871    0.2903   28.6377 C.ar    1  UNL1        0.0718
      4 C         -26.8317    1.2487   29.5869 C.ar    1  UNL1        0.0084
      5 C         -28.3914    0.0801   31.0065 C.ar    1  UNL1        0.0111
      6 C         -27.4940    1.1521   30.7841 C.ar    1  UNL1        0.0555
      7 C         -26.3109    0.3918   27.3640 C.3     1  UNL1        0.4186
      8 F         -26.8602    0.4028   26.3801 F       1  UNL1       -0.1659
      9 F         -25.5436    1.6041   27.3823 F       1  UNL1       -0.1659
     10 F         -25.2379   -0.5488   27.4310 F       1  UNL1       -0.1659
     11 C         -29.4584   -2.0281   30.2335 C.2     1  UNL1        0.3877
     12 O         -28.9912   -3.1801   30.3522 O.co2   1  UNL1       -0.2406
     13 O         -30.6350   -1.8988   30.5094 O.co2   1  UNL1       -0.2406
     14 C         -27.2926    2.1785   31.8412 C.2     1  UNL1        0.2690
     15 O         -27.1416    1.9959   32.9178 O.2     1  UNL1       -0.2680
     16 N         -27.1456    3.4833   31.3056 N.am    1  UNL1       -0.1741
     17 C         -26.8351    4.5917   32.1861 C.2     1  UNL1        0.0889
     18 C         -26.0897    5.4133   31.7283 C.2     1  UNL1        0.0179
     19 C         -25.2043    6.2796   32.4500 C.2     1  UNL1        0.0014
     20 C         -24.2396    7.1732   31.8276 C.2     1  UNL1        0.0000
     21 C         -24.4563    7.4525   30.4718 C.2     1  UNL1        0.0000
     22 C         -25.3949    6.7374   29.7572 C.2     1  UNL1        0.0000
@<TRIPOS>BOND
     1     3     7    1
     2     7     8    1
     3     7     9    1
     4     7    10    1
     5     2    11    1
     6    11    12   ar
     7    11    13   ar
     8     6    14    1
     9    14    15    2
    10    14    16   am
    11    16    17    1
    12    17    18    2
    13    18    19    1
    14    19    20    2
    15    20    21    1
    16    21    22    2
    17     1     2   ar
    18     2     5   ar
    19     5     6   ar
    20     6     4   ar
    21     4     3   ar
    22     3     1   ar
