@<TRIPOS>MOLECULE
outputs/IAG933/test6/raw/output_1446_IAG933_linker_design_.xyz
 41 44 0 0 0
SMALL
GASTEIGER

@<TRIPOS>ATOM
      1 C         -24.8550   -1.0120   30.1430 C.3     1  UNL1        0.0982
      2 C         -24.9730   -2.5050   29.7880 C.2     1  UNL1       -0.0064
      3 C         -23.9060   -3.1730   29.1460 C.2     1  UNL1       -0.0029
      4 C         -23.9890   -4.5490   28.8530 C.2     1  UNL1       -0.0003
      5 C         -25.1370   -5.2800   29.2050 C.2     1  UNL1       -0.0000
      6 C         -26.2320   -4.6110   29.7840 C.2     1  UNL1       -0.0003
      7 C         -26.1550   -3.2320   30.0650 C.2     1  UNL1       -0.0029
      8 C         -25.3870   -0.6790   31.5710 C.3     1  UNL1        0.0916
      9 C         -25.1890    0.7730   32.0280 C.3     1  UNL1        0.0206
     10 C         -25.3360    0.6840   33.5440 C.3     1  UNL1        0.0203
     11 C         -24.8290   -0.7150   33.9050 C.3     1  UNL1        0.0888
     12 N         -24.7580   -1.4810   32.6460 N.3     1  UNL1       -0.2178
     13 C         -25.6880    1.6140   26.4610 C.3     1  UNL1        0.1303
     14 C         -26.2500    2.9200   26.3950 C.2     1  UNL1        0.0697
     15 C         -25.6420    4.0930   27.1230 C.2     1  UNL1        0.2637
     16 N         -25.6140    5.2520   26.4490 N.am    1  UNL1       -0.2000
     17 C         -25.0260    6.4790   26.9630 C.3     1  UNL1        0.1388
     18 O         -25.1430    3.9660   28.2430 O.2     1  UNL1       -0.2686
     19 C         -27.4380    3.0910   25.6450 C.2     1  UNL1        0.1035
     20 N         -28.0750    2.0890   25.0030 N.2     1  UNL1       -0.2118
     21 C         -27.5430    0.8490   25.0790 C.2     1  UNL1        0.2355
     22 O         -28.1930   -0.2080   24.4770 O.2     1  UNL1       -0.4585
     23 C         -29.4600    0.0050   23.8660 C.3     1  UNL1        0.2423
     24 C         -30.0650   -1.3770   23.5730 C.3     1  UNL1        0.2292
     25 O         -30.7290   -1.8780   24.7210 O.3     1  UNL1       -0.2162
     26 C         -26.3540    0.5760   25.7770 C.3     1  UNL1        0.2547
     27 F         -25.8600   -0.6810   25.7950 F       1  UNL1       -0.2254
     28 C         -24.4775    0.5409   28.1658 C.3     1  UNL1        0.1375
     29 N         -21.9965   -0.6686   29.6633 N.2     1  UNL1       -0.1507
     30 C         -21.4786    1.1234   27.2533 C.2     1  UNL1        0.3327
     31 N         -25.1347    1.0392   27.5874 N.3     1  UNL1       -0.2431
     32 C         -26.3122    0.1146   28.5397 C.3     1  UNL1        0.1210
     33 C         -22.8419    2.0309   25.8093 C.2     1  UNL1        0.4477
     34 C         -27.3973    0.8211   28.9393 C.3     1  UNL1        0.0357
     35 C         -22.4911   -0.3315   28.5093 C.2     1  UNL1        0.1093
     36 C         -22.9047    0.6339   27.6477 C.3     1  UNL1        0.1724
     37 N         -23.3582    0.8869   25.7850 N.am    1  UNL1       -0.0471
     38 N         -25.1497   -0.1120   29.0010 N.3     1  UNL1       -0.2448
     39 O         -23.2404    3.1706   25.6555 O.2     1  UNL1       -0.2223
     40 O         -20.4956    0.8593   27.8209 O.2     1  UNL1       -0.2491
     41 O         -21.4976    1.9993   26.2078 O.3     1  UNL1       -0.3753
@<TRIPOS>BOND
     1     1     2    1
     2     2     7    1
     3     3     2    2
     4     4     3    1
     5     4     5    2
     6     5     6    1
     7     6     7    2
     8     8     1    1
     9     8     9    1
    10     8    12    1
    11     9    10    1
    12    10    11    1
    13    12    11    1
    14    13    14    1
    15    14    15    1
    16    15    18    2
    17    16    17    1
    18    16    15    1
    19    19    14    2
    20    20    21    2
    21    20    19    1
    22    21    26    1
    23    22    21    1
    24    23    22    1
    25    24    23    1
    26    24    25    1
    27    26    27    1
    28    26    13    1
    29    28    36    1
    30    28    38    1
    31    30    36    1
    32    30    40    2
    33    31    13    1
    34    31    28    1
    35    31    32    1
    36    32    34    1
    37    32    38    1
    38    33    41    1
    39    35    29    2
    40    36    35    1
    41    37    33    1
    42    38     1    1
    43    39    33    2
    44    41    30    1
