@<TRIPOS>MOLECULE
outputs/IAG933/test6/raw/output_1447_IAG933_linker_design_.xyz
 44 48 0 0 0
SMALL
GASTEIGER

@<TRIPOS>ATOM
      1 C         -24.8550   -1.0120   30.1430 C.3     1  UNL1        0.0708
      2 C         -24.9730   -2.5050   29.7880 C.2     1  UNL1       -0.0186
      3 C         -23.9060   -3.1730   29.1460 C.2     1  UNL1       -0.0042
      4 C         -23.9890   -4.5490   28.8530 C.2     1  UNL1       -0.0003
      5 C         -25.1370   -5.2800   29.2050 C.2     1  UNL1       -0.0000
      6 C         -26.2320   -4.6110   29.7840 C.2     1  UNL1       -0.0003
      7 C         -26.1550   -3.2320   30.0650 C.2     1  UNL1       -0.0042
      8 C         -25.3870   -0.6790   31.5710 C.3     1  UNL1        0.0793
      9 C         -25.1890    0.7730   32.0280 C.3     1  UNL1        0.0193
     10 C         -25.3360    0.6840   33.5440 C.3     1  UNL1        0.0202
     11 C         -24.8290   -0.7150   33.9050 C.3     1  UNL1        0.0887
     12 N         -24.7580   -1.4810   32.6460 N.3     1  UNL1       -0.2190
     13 C         -25.6880    1.6140   26.4610 C.2     1  UNL1        0.0512
     14 C         -26.2500    2.9200   26.3950 C.2     1  UNL1        0.0754
     15 C         -25.6420    4.0930   27.1230 C.2     1  UNL1        0.2233
     16 N         -25.6140    5.2520   26.4490 N.2     1  UNL1       -0.2356
     17 C         -25.0260    6.4790   26.9630 C.3     1  UNL1        0.1550
     18 O         -25.1430    3.9660   28.2430 O.2     1  UNL1       -0.4446
     19 C         -27.4380    3.0910   25.6450 C.2     1  UNL1        0.1068
     20 N         -28.0750    2.0890   25.0030 N.2     1  UNL1       -0.2081
     21 C         -27.5430    0.8490   25.0790 C.2     1  UNL1        0.2533
     22 O         -28.1930   -0.2080   24.4770 O.2     1  UNL1       -0.4558
     23 C         -29.4600    0.0050   23.8660 C.3     1  UNL1        0.2426
     24 C         -30.0650   -1.3770   23.5730 C.3     1  UNL1        0.2292
     25 O         -30.7290   -1.8780   24.7210 O.3     1  UNL1       -0.2162
     26 C         -26.3540    0.5760   25.7770 C.2     1  UNL1        0.1940
     27 F         -25.8600   -0.6810   25.7950 F       1  UNL1       -0.1992
     28 C         -26.1638    5.2967   30.6270 C.3     1  UNL1        0.0865
     29 N         -25.6622    1.6974   29.3934 N.am    1  UNL1       -0.1816
     30 C         -25.9101    4.2542   29.5035 C.3     1  UNL1        0.2509
     31 N         -23.3575    1.4928   27.4956 N.am    1  UNL1       -0.1523
     32 N         -27.0715    3.3329   29.7444 N.am    1  UNL1       -0.2286
     33 O         -27.8123    1.1101   29.3203 O.2     1  UNL1       -0.2507
     34 C         -24.0362    0.0118   29.3226 C.3     1  UNL1        0.1826
     35 C         -24.6065    1.4471   27.3514 C.2     1  UNL1        0.0784
     36 C         -27.5306    5.0308   31.2555 C.3     1  UNL1        0.1172
     37 N         -27.2278    4.5751   32.6023 N.3     1  UNL1       -0.1309
     38 C         -22.3255    1.8346   26.9836 C.2     1  UNL1        0.4136
     39 C         -25.1015    0.7600   28.6041 C.3     1  UNL1        0.1649
     40 F         -21.1888    1.7838   27.5160 F       1  UNL1       -0.1422
     41 C         -26.9445    2.0043   29.5034 C.2     1  UNL1        0.3261
     42 C         -28.1923    4.0351   30.3402 C.3     1  UNL1        0.1174
     43 O         -22.4510    2.1480   25.7048 O.2     1  UNL1       -0.2340
     44 O         -22.9808    0.7849   29.9092 O.3     1  UNL1       -0.2205
@<TRIPOS>BOND
     1     1    34    1
     2     2     7    1
     3     2     1    1
     4     3     2    2
     5     4     3    1
     6     4     5    2
     7     5     6    1
     8     6     7    2
     9     8     1    1
    10     8     9    1
    11     8    12    1
    12     9    10    1
    13    10    11    1
    14    12    11    1
    15    13    35    1
    16    14    13    1
    17    14    15    1
    18    15    18    1
    19    16    17    1
    20    16    15    2
    21    18    30    1
    22    19    14    2
    23    20    21    2
    24    20    19    1
    25    21    26    1
    26    22    21    1
    27    23    22    1
    28    24    23    1
    29    24    25    1
    30    26    27    1
    31    26    13    2
    32    28    36    1
    33    29    41    1
    34    30    32    1
    35    30    28    1
    36    32    42    1
    37    33    41    2
    38    34    44    1
    39    35    31    2
    40    35    39    1
    41    36    37    1
    42    38    31    1
    43    38    40    1
    44    39    34    1
    45    39    29    1
    46    41    32   am
    47    42    36    1
    48    43    38    2
