@<TRIPOS>MOLECULE
outputs/IAG933/test6/raw/output_1448_IAG933_linker_design_.xyz
 42 46 0 0 0
SMALL
GASTEIGER

@<TRIPOS>ATOM
      1 C         -24.8550   -1.0120   30.1430 C.3     1  UNL1        0.0985
      2 C         -24.9730   -2.5050   29.7880 C.2     1  UNL1       -0.0064
      3 C         -23.9060   -3.1730   29.1460 C.2     1  UNL1       -0.0029
      4 C         -23.9890   -4.5490   28.8530 C.2     1  UNL1       -0.0003
      5 C         -25.1370   -5.2800   29.2050 C.2     1  UNL1       -0.0000
      6 C         -26.2320   -4.6110   29.7840 C.2     1  UNL1       -0.0003
      7 C         -26.1550   -3.2320   30.0650 C.2     1  UNL1       -0.0029
      8 C         -25.3870   -0.6790   31.5710 C.3     1  UNL1        0.0916
      9 C         -25.1890    0.7730   32.0280 C.3     1  UNL1        0.0206
     10 C         -25.3360    0.6840   33.5440 C.3     1  UNL1        0.0203
     11 C         -24.8290   -0.7150   33.9050 C.3     1  UNL1        0.0888
     12 N         -24.7580   -1.4810   32.6460 N.3     1  UNL1       -0.2178
     13 C         -25.6880    1.6140   26.4610 C.2     1  UNL1        0.0364
     14 C         -26.2500    2.9200   26.3950 C.2     1  UNL1        0.0763
     15 C         -25.6420    4.0930   27.1230 C.2     1  UNL1        0.2664
     16 N         -25.6140    5.2520   26.4490 N.am    1  UNL1       -0.1997
     17 C         -25.0260    6.4790   26.9630 C.3     1  UNL1        0.1388
     18 O         -25.1430    3.9660   28.2430 O.2     1  UNL1       -0.2683
     19 C         -27.4380    3.0910   25.6450 C.2     1  UNL1        0.1067
     20 N         -28.0750    2.0890   25.0030 N.2     1  UNL1       -0.2081
     21 C         -27.5430    0.8490   25.0790 C.2     1  UNL1        0.2533
     22 O         -28.1930   -0.2080   24.4770 O.2     1  UNL1       -0.4558
     23 C         -29.4600    0.0050   23.8660 C.3     1  UNL1        0.2426
     24 C         -30.0650   -1.3770   23.5730 C.3     1  UNL1        0.2292
     25 O         -30.7290   -1.8780   24.7210 O.3     1  UNL1       -0.2162
     26 C         -26.3540    0.5760   25.7770 C.2     1  UNL1        0.1928
     27 F         -25.8600   -0.6810   25.7950 F       1  UNL1       -0.1992
     28 C         -26.4323    0.1871   28.8664 C.3     1  UNL1        0.2594
     29 C         -23.9538    0.0560   28.2227 C.3     1  UNL1        0.0836
     30 O         -21.1996    1.8876   25.6261 O.3     1  UNL1       -0.3487
     31 N         -25.0991   -0.0932   29.0261 N.3     1  UNL1       -0.2387
     32 C         -23.2527    1.7653   26.6328 C.2     1  UNL1        0.0674
     33 C         -24.4255    1.1675   27.2230 C.2     1  UNL1        0.0079
     34 C         -20.8278    0.7343   27.7532 C.3     1  UNL1        0.0355
     35 C         -21.9535    2.0838   24.5916 C.3     1  UNL1        0.1658
     36 C         -22.6602    0.0958   29.0716 C.3     1  UNL1        0.0206
     37 C         -21.5576   -0.7642   29.3410 C.3     1  UNL1        0.0018
     38 N         -23.6057    2.4441   25.5932 N.pl3   1  UNL1       -0.2371
     39 C         -21.8533    1.4716   26.7365 C.3     1  UNL1        0.1518
     40 O         -27.3747    0.3426   28.9550 O.3     1  UNL1       -0.2005
     41 C         -21.0202   -0.4948   28.2296 C.3     1  UNL1        0.0030
     42 C         -23.2095    2.2449   24.5439 C.3     1  UNL1        0.1439
@<TRIPOS>BOND
     1     1    31    1
     2     2     7    1
     3     2     1    1
     4     3     2    2
     5     4     3    1
     6     4     5    2
     7     5     6    1
     8     6     7    2
     9     8     1    1
    10     8     9    1
    11     8    12    1
    12     9    10    1
    13    10    11    1
    14    12    11    1
    15    13    33    1
    16    14    13    1
    17    14    15    1
    18    15    18    2
    19    16    17    1
    20    16    15    1
    21    19    14    2
    22    20    21    2
    23    20    19    1
    24    21    26    1
    25    22    21    1
    26    23    22    1
    27    24    23    1
    28    24    25    1
    29    26    27    1
    30    26    13    2
    31    28    40    1
    32    28    31    1
    33    29    31    1
    34    29    36    1
    35    30    39    1
    36    32    39    1
    37    32    33    2
    38    33    29    1
    39    34    41    1
    40    35    30    1
    41    36    37    1
    42    38    32    1
    43    39    34    1
    44    41    37    1
    45    42    35    1
    46    42    38    1
