@<TRIPOS>MOLECULE
No_1450-gen_results/8p0m/2024-11-27-11-27-31/
 17 18 0 0 0
SMALL
GASTEIGER

@<TRIPOS>ATOM
      1 C         -28.0162   -0.8135   28.8779 C.ar    1  UNL1        0.0394
      2 C         -28.4690   -0.7850   29.8287 C.ar    1  UNL1        0.0822
      3 C         -26.5042   -0.7777   28.8766 C.ar    1  UNL1        0.1746
      4 C         -25.8103   -0.8531   30.1028 C.ar    1  UNL1        0.1725
      5 C         -27.9906   -0.8916   31.2257 C.ar    1  UNL1        0.0099
      6 C         -26.6042   -0.8676   31.2652 C.ar    1  UNL1        0.0400
      7 O         -24.5004   -0.7818   30.1446 O.3     1  UNL1       -0.4512
      8 C         -23.8455    0.2950   29.6103 C.ar    1  UNL1        0.1454
      9 C         -23.6132    1.3411   30.3332 C.ar    1  UNL1        0.0375
     10 C         -23.1547    2.5375   29.7274 C.ar    1  UNL1        0.0031
     11 C         -22.7770    2.4691   28.3651 C.ar    1  UNL1        0.0002
     12 C         -23.4631    0.3964   28.2436 C.ar    1  UNL1        0.0375
     13 C         -22.9652    1.3489   27.6688 C.ar    1  UNL1        0.0031
     14 C         -30.0909   -0.7972   29.8267 C.2     1  UNL1        0.3878
     15 O         -30.7584   -1.6054   30.3061 O.co2   1  UNL1       -0.2406
     16 O         -30.6012    0.1715   29.1596 O.co2   1  UNL1       -0.2406
     17 F         -25.8539   -0.7645   27.7247 F       1  UNL1       -0.2009
@<TRIPOS>BOND
     1     4     7    1
     2     7     8    1
     3     2    14    1
     4    14    15   ar
     5    14    16   ar
     6     3    17    1
     7     1     2   ar
     8     2     5   ar
     9     5     6   ar
    10     6     4   ar
    11     4     3   ar
    12     3     1   ar
    13     8     9   ar
    14     9    10   ar
    15    10    11   ar
    16    11    13   ar
    17    13    12   ar
    18    12     8   ar
