@<TRIPOS>MOLECULE
outputs/IAG933/test6/raw/output_1451_IAG933_linker_design_.xyz
 46 49 0 0 0
SMALL
GASTEIGER

@<TRIPOS>ATOM
      1 C         -24.8550   -1.0120   30.1430 C.3     1  UNL1        0.2033
      2 C         -24.9730   -2.5050   29.7880 C.2     1  UNL1        0.0217
      3 C         -23.9060   -3.1730   29.1460 C.2     1  UNL1       -0.0004
      4 C         -23.9890   -4.5490   28.8530 C.2     1  UNL1       -0.0002
      5 C         -25.1370   -5.2800   29.2050 C.2     1  UNL1       -0.0000
      6 C         -26.2320   -4.6110   29.7840 C.2     1  UNL1       -0.0002
      7 C         -26.1550   -3.2320   30.0650 C.2     1  UNL1       -0.0004
      8 C         -25.3870   -0.6790   31.5710 C.3     1  UNL1        0.1201
      9 C         -25.1890    0.7730   32.0280 C.3     1  UNL1        0.0233
     10 C         -25.3360    0.6840   33.5440 C.3     1  UNL1        0.0204
     11 C         -24.8290   -0.7150   33.9050 C.3     1  UNL1        0.0889
     12 N         -24.7580   -1.4810   32.6460 N.3     1  UNL1       -0.2150
     13 C         -25.6880    1.6140   26.4610 C.2     1  UNL1        0.0407
     14 C         -26.2500    2.9200   26.3950 C.2     1  UNL1        0.0744
     15 C         -25.6420    4.0930   27.1230 C.2     1  UNL1        0.2220
     16 N         -25.6140    5.2520   26.4490 N.2     1  UNL1       -0.2357
     17 C         -25.0260    6.4790   26.9630 C.3     1  UNL1        0.1550
     18 O         -25.1430    3.9660   28.2430 O.2     1  UNL1       -0.4595
     19 C         -27.4380    3.0910   25.6450 C.2     1  UNL1        0.1068
     20 N         -28.0750    2.0890   25.0030 N.2     1  UNL1       -0.2081
     21 C         -27.5430    0.8490   25.0790 C.2     1  UNL1        0.2533
     22 O         -28.1930   -0.2080   24.4770 O.2     1  UNL1       -0.4558
     23 C         -29.4600    0.0050   23.8660 C.3     1  UNL1        0.2426
     24 C         -30.0650   -1.3770   23.5730 C.3     1  UNL1        0.2292
     25 O         -30.7290   -1.8780   24.7210 O.3     1  UNL1       -0.2162
     26 C         -26.3540    0.5760   25.7770 C.2     1  UNL1        0.1931
     27 F         -25.8600   -0.6810   25.7950 F       1  UNL1       -0.1992
     28 O         -27.1084    0.8961   29.2035 O.2     1  UNL1       -0.3543
     29 N         -24.0177    0.0054   29.3065 N.pl3   1  UNL1       -0.1612
     30 O         -27.0593    3.6146   34.0643 O.3     1  UNL1       -0.1841
     31 C         -28.1272    4.5516   33.6832 C.3     1  UNL1        0.3289
     32 C         -26.7672    3.0515   29.7933 C.3     1  UNL1        0.1465
     33 C         -22.7733    0.3939   28.9195 C.2     1  UNL1        0.3911
     34 C         -28.6389    4.8857   31.3461 C.3     1  UNL1        0.1511
     35 C         -26.0556    1.7240   29.4954 C.2     1  UNL1        0.2015
     36 C         -25.8727    4.2504   29.4342 C.3     1  UNL1        0.2205
     37 N         -28.2354    1.5789   29.7851 N.2     1  UNL1       -0.0854
     38 N         -22.5081    2.3058   25.4882 N.3     1  UNL1       -0.1277
     39 C         -27.9089    2.6787   30.4840 C.2     1  UNL1        0.0885
     40 C         -24.5361    1.4093   29.5737 C.2     1  UNL1        0.2123
     41 C         -22.2165    1.1257   27.7988 C.3     1  UNL1        0.2890
     42 C         -29.0990    3.4802   31.0662 C.3     1  UNL1        0.0773
     43 N         -22.5217   -0.0071   29.9505 N.2     1  UNL1        0.1914
     44 C         -22.4493    1.7959   26.6719 C.3     1  UNL1        0.1573
     45 O         -27.7222    5.0239   32.3581 O.3     1  UNL1       -0.3243
     46 F         -20.8031    1.0586   27.6124 F       1  UNL1       -0.2223
@<TRIPOS>BOND
     1     1    29    1
     2     2     7    1
     3     2     1    1
     4     3     2    2
     5     4     3    1
     6     4     5    2
     7     5     6    1
     8     6     7    2
     9     8     1    1
    10     8     9    1
    11     8    12    1
    12     9    10    1
    13    10    11    1
    14    12    11    1
    15    14    13    1
    16    14    15    1
    17    15    18    1
    18    16    17    1
    19    16    15    2
    20    18    36    1
    21    19    14    2
    22    20    21    2
    23    20    19    1
    24    21    26    1
    25    22    21    1
    26    23    22    1
    27    24    23    1
    28    24    25    1
    29    26    27    1
    30    26    13    2
    31    28    35    1
    32    28    37    1
    33    29    40    1
    34    31    30    1
    35    32    36    1
    36    32    39    1
    37    33    29    1
    38    33    43    2
    39    34    45    1
    40    35    40    2
    41    35    32    1
    42    37    39    2
    43    38    44    1
    44    39    42    1
    45    41    46    1
    46    41    33    1
    47    42    34    1
    48    44    41    1
    49    45    31    1
