@<TRIPOS>MOLECULE
outputs/IAG933/test6/raw/output_1452_IAG933_linker_design_.xyz
 41 44 0 0 0
SMALL
GASTEIGER

@<TRIPOS>ATOM
      1 C         -24.8550   -1.0120   30.1430 C.3     1  UNL1        0.1989
      2 C         -24.9730   -2.5050   29.7880 C.2     1  UNL1        0.0213
      3 C         -23.9060   -3.1730   29.1460 C.2     1  UNL1       -0.0004
      4 C         -23.9890   -4.5490   28.8530 C.2     1  UNL1       -0.0002
      5 C         -25.1370   -5.2800   29.2050 C.2     1  UNL1       -0.0000
      6 C         -26.2320   -4.6110   29.7840 C.2     1  UNL1       -0.0002
      7 C         -26.1550   -3.2320   30.0650 C.2     1  UNL1       -0.0004
      8 C         -25.3870   -0.6790   31.5710 C.3     1  UNL1        0.1197
      9 C         -25.1890    0.7730   32.0280 C.3     1  UNL1        0.0233
     10 C         -25.3360    0.6840   33.5440 C.3     1  UNL1        0.0204
     11 C         -24.8290   -0.7150   33.9050 C.3     1  UNL1        0.0889
     12 N         -24.7580   -1.4810   32.6460 N.3     1  UNL1       -0.2150
     13 C         -25.6880    1.6140   26.4610 C.2     1  UNL1        0.0454
     14 C         -26.2500    2.9200   26.3950 C.2     1  UNL1        0.0768
     15 C         -25.6420    4.0930   27.1230 C.2     1  UNL1        0.2664
     16 N         -25.6140    5.2520   26.4490 N.am    1  UNL1       -0.1997
     17 C         -25.0260    6.4790   26.9630 C.3     1  UNL1        0.1388
     18 O         -25.1430    3.9660   28.2430 O.2     1  UNL1       -0.2683
     19 C         -27.4380    3.0910   25.6450 C.2     1  UNL1        0.1067
     20 N         -28.0750    2.0890   25.0030 N.2     1  UNL1       -0.2081
     21 C         -27.5430    0.8490   25.0790 C.2     1  UNL1        0.2533
     22 O         -28.1930   -0.2080   24.4770 O.2     1  UNL1       -0.4558
     23 C         -29.4600    0.0050   23.8660 C.3     1  UNL1        0.2426
     24 C         -30.0650   -1.3770   23.5730 C.3     1  UNL1        0.2292
     25 O         -30.7290   -1.8780   24.7210 O.3     1  UNL1       -0.2162
     26 C         -26.3540    0.5760   25.7770 C.2     1  UNL1        0.1933
     27 F         -25.8600   -0.6810   25.7950 F       1  UNL1       -0.1992
     28 C         -24.2533    0.7008   28.3957 C.2     1  UNL1        0.3248
     29 C         -24.3660    1.2387   27.1120 C.2     1  UNL1        0.0913
     30 C         -21.9868    1.2866   28.5257 C.2     1  UNL1        0.2359
     31 O         -23.7206    1.0158   24.1531 O.co2   1  UNL1       -0.2405
     32 O         -27.7104   -0.9509   29.0287 O.2     1  UNL1       -0.2671
     33 C         -26.3268    0.9350   29.3142 C.3     1  UNL1        0.2916
     34 C         -21.9348    1.4799   27.1382 C.2     1  UNL1        0.0573
     35 C         -23.1436    1.4486   26.4172 C.2     1  UNL1        0.0908
     36 C         -23.1319    1.7796   24.9673 C.2     1  UNL1        0.3881
     37 N         -23.1440    0.8771   29.1220 N.2     1  UNL1       -0.0363
     38 C         -27.5132    0.1263   29.6359 C.2     1  UNL1        0.3084
     39 N         -25.2258   -0.0568   29.0089 N.pl3   1  UNL1       -0.1810
     40 N         -28.2510    0.6647   30.5912 N.am    1  UNL1       -0.0841
     41 O         -22.4370    2.7699   24.7309 O.co2   1  UNL1       -0.2405
@<TRIPOS>BOND
     1     1    39    1
     2     2     7    1
     3     2     1    1
     4     3     2    2
     5     4     3    1
     6     4     5    2
     7     5     6    1
     8     6     7    2
     9     8     1    1
    10     8     9    1
    11     8    12    1
    12     9    10    1
    13    10    11    1
    14    12    11    1
    15    13    29    1
    16    14    13    1
    17    14    15    1
    18    15    18    2
    19    16    17    1
    20    16    15    1
    21    19    14    2
    22    20    21    2
    23    20    19    1
    24    21    26    1
    25    22    21    1
    26    23    22    1
    27    24    23    1
    28    24    25    1
    29    26    27    1
    30    26    13    2
    31    28    39    1
    32    28    37    1
    33    29    28    2
    34    30    37    2
    35    31    36   ar
    36    32    38    2
    37    33    38    1
    38    34    30    1
    39    35    29    1
    40    35    34    2
    41    36    35    1
    42    38    40    1
    43    39    33    1
    44    41    36   ar
