@<TRIPOS>MOLECULE
outputs/IAG933/test6/raw/output_1454_IAG933_linker_design_.xyz
 41 45 0 0 0
SMALL
GASTEIGER

@<TRIPOS>ATOM
      1 C         -24.8550   -1.0120   30.1430 C.3     1  UNL1        0.1240
      2 C         -24.9730   -2.5050   29.7880 C.2     1  UNL1       -0.0004
      3 C         -23.9060   -3.1730   29.1460 C.2     1  UNL1       -0.0024
      4 C         -23.9890   -4.5490   28.8530 C.2     1  UNL1       -0.0003
      5 C         -25.1370   -5.2800   29.2050 C.2     1  UNL1       -0.0000
      6 C         -26.2320   -4.6110   29.7840 C.2     1  UNL1       -0.0003
      7 C         -26.1550   -3.2320   30.0650 C.2     1  UNL1       -0.0024
      8 C         -25.3870   -0.6790   31.5710 C.3     1  UNL1        0.0976
      9 C         -25.1890    0.7730   32.0280 C.3     1  UNL1        0.0211
     10 C         -25.3360    0.6840   33.5440 C.3     1  UNL1        0.0203
     11 C         -24.8290   -0.7150   33.9050 C.3     1  UNL1        0.0888
     12 N         -24.7580   -1.4810   32.6460 N.3     1  UNL1       -0.2172
     13 C         -25.6880    1.6140   26.4610 C.3     1  UNL1        0.0940
     14 C         -26.2500    2.9200   26.3950 C.2     1  UNL1        0.0589
     15 C         -25.6420    4.0930   27.1230 C.2     1  UNL1        0.2628
     16 N         -25.6140    5.2520   26.4490 N.am    1  UNL1       -0.2000
     17 C         -25.0260    6.4790   26.9630 C.3     1  UNL1        0.1388
     18 O         -25.1430    3.9660   28.2430 O.2     1  UNL1       -0.2686
     19 C         -27.4380    3.0910   25.6450 C.2     1  UNL1        0.1025
     20 N         -28.0750    2.0890   25.0030 N.2     1  UNL1       -0.2118
     21 C         -27.5430    0.8490   25.0790 C.2     1  UNL1        0.2344
     22 O         -28.1930   -0.2080   24.4770 O.2     1  UNL1       -0.4585
     23 C         -29.4600    0.0050   23.8660 C.3     1  UNL1        0.2423
     24 C         -30.0650   -1.3770   23.5730 C.3     1  UNL1        0.2292
     25 O         -30.7290   -1.8780   24.7210 O.3     1  UNL1       -0.2162
     26 C         -26.3540    0.5760   25.7770 C.3     1  UNL1        0.2440
     27 F         -25.8600   -0.6810   25.7950 F       1  UNL1       -0.2265
     28 C         -24.7328    1.3460   27.4649 C.ar    1  UNL1        0.0086
     29 C         -22.2527    1.4593   27.0906 C.2     1  UNL1        0.1246
     30 C         -27.6006    3.6672   30.3460 C.3     1  UNL1        0.1389
     31 N         -24.6746   -0.0873   29.2853 N.ar    1  UNL1       -0.3196
     32 C         -23.4416    0.2493   28.8157 C.ar    1  UNL1        0.0750
     33 C         -23.5391    1.1277   27.4911 C.ar    1  UNL1        0.0385
     34 N         -26.5639    2.6278   30.1363 N.am    1  UNL1       -0.1985
     35 C         -26.6522    1.4524   29.3429 C.2     1  UNL1        0.2804
     36 C         -25.4117    0.8587   28.7980 C.ar    1  UNL1        0.1123
     37 O         -27.6836    0.8483   29.3404 O.2     1  UNL1       -0.2668
     38 C         -22.1461    0.0652   28.9245 C.2     1  UNL1        0.0892
     39 C         -21.3718    0.8768   27.9873 C.3     1  UNL1        0.1027
     40 N         -21.7000   -0.7095   29.8628 N.pl3   1  UNL1       -0.1308
     41 F         -21.8546    2.1795   25.9888 F       1  UNL1       -0.2084
@<TRIPOS>BOND
     1     1     2    1
     2     2     7    1
     3     3     2    2
     4     4     3    1
     5     4     5    2
     6     5     6    1
     7     6     7    2
     8     8     1    1
     9     8     9    1
    10     8    12    1
    11     9    10    1
    12    10    11    1
    13    12    11    1
    14    13    28    1
    15    14    13    1
    16    14    15    1
    17    15    18    2
    18    16    17    1
    19    16    15    1
    20    19    14    2
    21    20    21    2
    22    20    19    1
    23    21    26    1
    24    22    21    1
    25    23    22    1
    26    24    23    1
    27    24    25    1
    28    26    27    1
    29    26    13    1
    30    28    33   ar
    31    28    36   ar
    32    29    33    2
    33    29    39    1
    34    31     1    1
    35    32    38    2
    36    32    31   ar
    37    33    32   ar
    38    34    30    1
    39    35    34    1
    40    36    31   ar
    41    36    35    1
    42    37    35    2
    43    38    40    1
    44    39    38    1
    45    41    29    1
