@<TRIPOS>MOLECULE
outputs/IAG933/test6/raw/output_1455_IAG933_linker_design_.xyz
 42 45 0 0 0
SMALL
GASTEIGER

@<TRIPOS>ATOM
      1 C         -24.8550   -1.0120   30.1430 C.3     1  UNL1        0.1144
      2 C         -24.9730   -2.5050   29.7880 C.2     1  UNL1       -0.0029
      3 C         -23.9060   -3.1730   29.1460 C.2     1  UNL1       -0.0026
      4 C         -23.9890   -4.5490   28.8530 C.2     1  UNL1       -0.0003
      5 C         -25.1370   -5.2800   29.2050 C.2     1  UNL1       -0.0000
      6 C         -26.2320   -4.6110   29.7840 C.2     1  UNL1       -0.0003
      7 C         -26.1550   -3.2320   30.0650 C.2     1  UNL1       -0.0026
      8 C         -25.3870   -0.6790   31.5710 C.3     1  UNL1        0.0951
      9 C         -25.1890    0.7730   32.0280 C.3     1  UNL1        0.0209
     10 C         -25.3360    0.6840   33.5440 C.3     1  UNL1        0.0203
     11 C         -24.8290   -0.7150   33.9050 C.3     1  UNL1        0.0888
     12 N         -24.7580   -1.4810   32.6460 N.3     1  UNL1       -0.2174
     13 C         -25.6880    1.6140   26.4610 C.3     1  UNL1        0.1622
     14 C         -26.2500    2.9200   26.3950 C.2     1  UNL1        0.0747
     15 C         -25.6420    4.0930   27.1230 C.2     1  UNL1        0.2641
     16 N         -25.6140    5.2520   26.4490 N.am    1  UNL1       -0.1999
     17 C         -25.0260    6.4790   26.9630 C.3     1  UNL1        0.1388
     18 O         -25.1430    3.9660   28.2430 O.2     1  UNL1       -0.2686
     19 C         -27.4380    3.0910   25.6450 C.2     1  UNL1        0.1038
     20 N         -28.0750    2.0890   25.0030 N.2     1  UNL1       -0.2118
     21 C         -27.5430    0.8490   25.0790 C.2     1  UNL1        0.2359
     22 O         -28.1930   -0.2080   24.4770 O.2     1  UNL1       -0.4585
     23 C         -29.4600    0.0050   23.8660 C.3     1  UNL1        0.2423
     24 C         -30.0650   -1.3770   23.5730 C.3     1  UNL1        0.2292
     25 O         -30.7290   -1.8780   24.7210 O.3     1  UNL1       -0.2162
     26 C         -26.3540    0.5760   25.7770 C.3     1  UNL1        0.2598
     27 F         -25.8600   -0.6810   25.7950 F       1  UNL1       -0.2250
     28 C         -23.4259    1.2869   27.1658 C.2     1  UNL1        0.0907
     29 C         -22.7413    0.0237   29.0113 C.2     1  UNL1       -0.0012
     30 C         -21.4256    0.4725   28.8500 C.2     1  UNL1        0.0021
     31 C         -26.8799    0.3753   29.3579 C.2     1  UNL1        0.2493
     32 C         -28.1830    4.1605   30.0777 C.3     1  UNL1        0.0309
     33 C         -26.8628    1.9612   29.6905 C.2     1  UNL1        0.0534
     34 N         -24.3891    1.8316   26.4587 N.pl3   1  UNL1       -0.2294
     35 C         -28.1994    2.6357   29.9773 C.2     1  UNL1       -0.0211
     36 N         -25.7765   -0.2188   29.2291 N.am    1  UNL1       -0.2684
     37 O         -27.9039   -0.3012   29.0649 O.2     1  UNL1       -0.2699
     38 C         -22.1666    1.6477   26.9144 C.2     1  UNL1        0.1546
     39 C         -25.1796   -0.2588   27.9591 C.3     1  UNL1        0.1221
     40 C         -21.1398    1.2803   27.7637 C.2     1  UNL1        0.0310
     41 F         -21.8842    2.2736   25.7546 F       1  UNL1       -0.2028
     42 C         -23.7527    0.3367   28.1055 C.2     1  UNL1        0.0148
@<TRIPOS>BOND
     1     1    36    1
     2     2     7    1
     3     2     1    1
     4     3     2    2
     5     4     3    1
     6     4     5    2
     7     5     6    1
     8     6     7    2
     9     8     1    1
    10     8     9    1
    11     8    12    1
    12     9    10    1
    13    10    11    1
    14    12    11    1
    15    13    34    1
    16    14    13    1
    17    14    15    1
    18    15    18    2
    19    16    17    1
    20    16    15    1
    21    19    14    2
    22    20    21    2
    23    20    19    1
    24    21    26    1
    25    22    21    1
    26    23    22    1
    27    24    23    1
    28    24    25    1
    29    26    27    1
    30    26    13    1
    31    28    42    1
    32    30    29    1
    33    31    33    1
    34    33    35    2
    35    34    28    1
    36    35    32    1
    37    36    31   am
    38    37    31    2
    39    38    28    2
    40    38    40    1
    41    39    42    1
    42    39    36    1
    43    40    30    2
    44    41    38    1
    45    42    29    2
