@<TRIPOS>MOLECULE
No_146-gen_results/8p0m/2024-11-27-11-27-31/
 33 36 0 0 0
SMALL
GASTEIGER

@<TRIPOS>ATOM
      1 C         -28.0162   -0.8135   28.8779 C.2     1  UNL1        0.2530
      2 C         -27.0636   -0.1189   28.6079 C.ar    1  UNL1        0.0539
      3 C         -25.7923   -0.4302   29.0761 C.ar    1  UNL1        0.0047
      4 C         -24.5456    0.3494   28.8225 C.ar    1  UNL1        0.0050
      5 C         -24.6586    1.4196   27.8878 C.ar    1  UNL1        0.0593
      6 C         -25.9471    1.6811   27.3792 C.ar    1  UNL1        0.0050
      7 C         -27.0439    0.9739   27.6871 C.ar    1  UNL1        0.0047
      8 N         -29.1882   -0.1472   29.0918 N.am    1  UNL1       -0.2508
      9 C         -29.6010    0.1627   30.3266 C.ar    1  UNL1        0.0544
     10 C         -30.2668   -0.6190   28.1881 C.3     1  UNL1        0.1273
     11 C         -23.6344    2.3475   27.6385 C.2     1  UNL1        0.2968
     12 N         -23.5722    3.0521   26.5338 N.2     1  UNL1       -0.1025
     13 O         -22.4300    2.2070   28.1899 O.2     1  UNL1       -0.2636
     14 O         -27.8413   -1.8353   29.6802 O.2     1  UNL1       -0.2696
     15 C         -30.6470    0.3671   27.2160 C.ar    1  UNL1        0.0255
     16 C         -30.9740   -0.1047   25.9660 C.ar    1  UNL1        0.1377
     17 C         -30.7650    1.7048   27.4667 C.ar    1  UNL1       -0.0004
     18 C         -31.1707    0.7079   24.8308 C.ar    1  UNL1        0.0294
     19 C         -31.0423    2.6024   26.4179 C.ar    1  UNL1       -0.0001
     20 C         -31.3171    2.0861   25.1026 C.ar    1  UNL1        0.0023
     21 C         -29.2468    1.4090   30.8042 C.ar    1  UNL1        0.0149
     22 C         -29.5033    1.7931   32.0663 C.ar    1  UNL1        0.0013
     23 C         -30.2351    0.9358   32.8873 C.ar    1  UNL1        0.0001
     24 C         -30.5862   -0.3069   32.4264 C.ar    1  UNL1        0.0013
     25 C         -30.2836   -0.6792   31.1522 C.ar    1  UNL1        0.0149
     26 F         -30.8938   -1.3889   25.6421 F       1  UNL1       -0.2044
     27 C         -29.1274    3.1807   32.5901 C.ar    1  UNL1        0.0023
     28 C         -28.5924    4.0390   32.3019 C.ar    1  UNL1        0.0001
     29 C         -28.3143    5.2829   32.9580 C.ar    1  UNL1        0.0023
     30 C         -28.8513    5.3953   34.2407 C.ar    1  UNL1        0.0296
     31 C         -29.5284    4.3664   34.7587 C.ar    1  UNL1        0.1401
     32 C         -29.7181    3.2072   34.0719 C.ar    1  UNL1        0.0296
     33 F         -29.9889    4.4226   36.0234 F       1  UNL1       -0.2042
@<TRIPOS>BOND
     1     1     2    1
     2     1     8   am
     3     8     9    1
     4     8    10    1
     5     5    11    1
     6    11    12    2
     7    11    13    1
     8     1    14    2
     9    10    15    1
    10    16    26    1
    11    22    27    1
    12    31    33    1
    13     2     3   ar
    14     3     4   ar
    15     4     5   ar
    16     5     6   ar
    17     6     7   ar
    18     7     2   ar
    19    27    28   ar
    20    28    29   ar
    21    29    30   ar
    22    30    31   ar
    23    31    32   ar
    24    32    27   ar
    25    15    16   ar
    26    16    18   ar
    27    18    20   ar
    28    20    19   ar
    29    19    17   ar
    30    17    15   ar
    31     9    21   ar
    32    21    22   ar
    33    22    23   ar
    34    23    24   ar
    35    24    25   ar
    36    25     9   ar
