@<TRIPOS>MOLECULE
outputs/IAG933/test6/raw/output_1463_IAG933_linker_design_.xyz
 42 45 0 0 0
SMALL
GASTEIGER

@<TRIPOS>ATOM
      1 C         -24.8550   -1.0120   30.1430 C.3     1  UNL1        0.0474
      2 C         -24.9730   -2.5050   29.7880 C.2     1  UNL1       -0.0207
      3 C         -23.9060   -3.1730   29.1460 C.2     1  UNL1       -0.0042
      4 C         -23.9890   -4.5490   28.8530 C.2     1  UNL1       -0.0003
      5 C         -25.1370   -5.2800   29.2050 C.2     1  UNL1       -0.0000
      6 C         -26.2320   -4.6110   29.7840 C.2     1  UNL1       -0.0003
      7 C         -26.1550   -3.2320   30.0650 C.2     1  UNL1       -0.0042
      8 C         -25.3870   -0.6790   31.5710 C.3     1  UNL1        0.1171
      9 C         -25.1890    0.7730   32.0280 C.3     1  UNL1        0.1868
     10 C         -25.3360    0.6840   33.5440 C.3     1  UNL1        0.0639
     11 C         -24.8290   -0.7150   33.9050 C.3     1  UNL1        0.0926
     12 N         -24.7580   -1.4810   32.6460 N.3     1  UNL1       -0.2153
     13 C         -25.6880    1.6140   26.4610 C.2     1  UNL1        0.0204
     14 C         -26.2500    2.9200   26.3950 C.2     1  UNL1        0.0729
     15 C         -25.6420    4.0930   27.1230 C.2     1  UNL1        0.2661
     16 N         -25.6140    5.2520   26.4490 N.am    1  UNL1       -0.1997
     17 C         -25.0260    6.4790   26.9630 C.3     1  UNL1        0.1388
     18 O         -25.1430    3.9660   28.2430 O.2     1  UNL1       -0.2683
     19 C         -27.4380    3.0910   25.6450 C.2     1  UNL1        0.1064
     20 N         -28.0750    2.0890   25.0030 N.2     1  UNL1       -0.2081
     21 C         -27.5430    0.8490   25.0790 C.2     1  UNL1        0.2530
     22 O         -28.1930   -0.2080   24.4770 O.2     1  UNL1       -0.4558
     23 C         -29.4600    0.0050   23.8660 C.3     1  UNL1        0.2426
     24 C         -30.0650   -1.3770   23.5730 C.3     1  UNL1        0.2292
     25 O         -30.7290   -1.8780   24.7210 O.3     1  UNL1       -0.2162
     26 C         -26.3540    0.5760   25.7770 C.2     1  UNL1        0.1894
     27 F         -25.8600   -0.6810   25.7950 F       1  UNL1       -0.1996
     28 N         -24.0268    2.1731   29.5252 N.am    1  UNL1       -0.1678
     29 C         -23.1623    1.7014   28.5119 C.2     1  UNL1        0.1006
     30 C         -22.0374    1.1494   28.8195 C.2     1  UNL1        0.1552
     31 C         -25.2040    2.2356   30.0362 C.2     1  UNL1        0.3451
     32 O         -26.3009    1.8656   29.9046 O.2     1  UNL1       -0.2609
     33 C         -24.6846    2.6388   31.5106 C.2     1  UNL1        0.3974
     34 O         -23.9246    1.4875   31.8318 O.3     1  UNL1       -0.4445
     35 C         -24.7357    1.1938   27.0841 C.3     1  UNL1        0.0599
     36 C         -23.4777    1.7103   27.1823 C.2     1  UNL1        0.0387
     37 O         -24.9943    4.0778   31.3941 O.2     1  UNL1       -0.2397
     38 C         -21.1886    1.9254   26.6728 C.2     1  UNL1        0.0441
     39 O         -22.7558    2.5093   24.9803 O.2     1  UNL1       -0.2869
     40 C         -20.8903    1.4227   27.9330 C.2     1  UNL1        0.0342
     41 C         -22.5152    2.0501   26.2844 C.2     1  UNL1        0.1934
     42 F         -22.1059    0.1708   29.7759 F       1  UNL1       -0.2028
@<TRIPOS>BOND
     1     2     7    1
     2     2     1    1
     3     3     2    2
     4     4     3    1
     5     4     5    2
     6     5     6    1
     7     6     7    2
     8     8     1    1
     9     8     9    1
    10     8    12    1
    11     9    34    1
    12     9    10    1
    13    10    11    1
    14    12    11    1
    15    13    35    1
    16    14    13    1
    17    14    15    1
    18    15    18    2
    19    16    17    1
    20    16    15    1
    21    19    14    2
    22    20    21    2
    23    20    19    1
    24    21    26    1
    25    22    21    1
    26    23    22    1
    27    24    23    1
    28    24    25    1
    29    26    27    1
    30    26    13    2
    31    28    31    1
    32    29    30    1
    33    29    28    1
    34    30    42    1
    35    31    33    1
    36    32    31    2
    37    33    34    1
    38    35    36    1
    39    36    29    2
    40    37    33    2
    41    38    40    1
    42    39    41    1
    43    40    30    2
    44    41    38    2
    45    41    36    1
