@<TRIPOS>MOLECULE
outputs/IAG933/test6/raw/output_1465_IAG933_linker_design_.xyz
 43 46 0 0 0
SMALL
GASTEIGER

@<TRIPOS>ATOM
      1 C         -24.8550   -1.0120   30.1430 C.3     1  UNL1        0.0584
      2 C         -24.9730   -2.5050   29.7880 C.2     1  UNL1       -0.0195
      3 C         -23.9060   -3.1730   29.1460 C.2     1  UNL1       -0.0042
      4 C         -23.9890   -4.5490   28.8530 C.2     1  UNL1       -0.0003
      5 C         -25.1370   -5.2800   29.2050 C.2     1  UNL1       -0.0000
      6 C         -26.2320   -4.6110   29.7840 C.2     1  UNL1       -0.0003
      7 C         -26.1550   -3.2320   30.0650 C.2     1  UNL1       -0.0042
      8 C         -25.3870   -0.6790   31.5710 C.3     1  UNL1        0.0785
      9 C         -25.1890    0.7730   32.0280 C.3     1  UNL1        0.0192
     10 C         -25.3360    0.6840   33.5440 C.3     1  UNL1        0.0202
     11 C         -24.8290   -0.7150   33.9050 C.3     1  UNL1        0.0887
     12 N         -24.7580   -1.4810   32.6460 N.3     1  UNL1       -0.2191
     13 C         -25.6880    1.6140   26.4610 C.3     1  UNL1        0.0715
     14 C         -26.2500    2.9200   26.3950 C.2     1  UNL1        0.0548
     15 C         -25.6420    4.0930   27.1230 C.2     1  UNL1        0.2624
     16 N         -25.6140    5.2520   26.4490 N.am    1  UNL1       -0.2000
     17 C         -25.0260    6.4790   26.9630 C.3     1  UNL1        0.1388
     18 O         -25.1430    3.9660   28.2430 O.2     1  UNL1       -0.2687
     19 C         -27.4380    3.0910   25.6450 C.2     1  UNL1        0.1021
     20 N         -28.0750    2.0890   25.0030 N.2     1  UNL1       -0.2119
     21 C         -27.5430    0.8490   25.0790 C.2     1  UNL1        0.2341
     22 O         -28.1930   -0.2080   24.4770 O.2     1  UNL1       -0.4585
     23 C         -29.4600    0.0050   23.8660 C.3     1  UNL1        0.2423
     24 C         -30.0650   -1.3770   23.5730 C.3     1  UNL1        0.2292
     25 O         -30.7290   -1.8780   24.7210 O.3     1  UNL1       -0.2162
     26 C         -26.3540    0.5760   25.7770 C.3     1  UNL1        0.2400
     27 F         -25.8600   -0.6810   25.7950 F       1  UNL1       -0.2269
     28 C         -22.9604    1.0966   28.3658 C.3     1  UNL1        0.1638
     29 C         -25.0894   -0.0539   28.8499 C.3     1  UNL1        0.1033
     30 CL        -22.8580    2.3514   24.7552 Cl      1  UNL1       -0.1149
     31 C         -24.3318    1.4342   26.8714 C.3     1  UNL1        0.0269
     32 C         -23.0646    1.9303   26.3777 C.3     1  UNL1        0.0832
     33 C         -28.7323    2.2007   30.4530 C.3     1  UNL1        0.0981
     34 N         -29.2779    4.4532   29.5738 N.am    1  UNL1       -0.0878
     35 C         -28.6175    1.3997   29.1530 C.3     1  UNL1        0.0965
     36 C         -28.6081    3.7359   30.5045 C.2     1  UNL1        0.2612
     37 N         -26.2388    0.8768   29.0617 N.am    1  UNL1       -0.2067
     38 C         -22.1830    1.7619   27.3853 C.3     1  UNL1        0.0516
     39 C         -24.0878    0.6616   28.1455 C.3     1  UNL1        0.0546
     40 O         -27.8712    4.1977   31.2683 O.2     1  UNL1       -0.2716
     41 O         -27.7566   -0.7962   28.8570 O.2     1  UNL1       -0.2733
     42 C         -27.4764    0.4111   28.9833 C.2     1  UNL1        0.2418
     43 F         -22.7337    0.8380   29.6319 F       1  UNL1       -0.2372
@<TRIPOS>BOND
     1     1    29    1
     2     2     7    1
     3     2     1    1
     4     3     2    2
     5     4     3    1
     6     4     5    2
     7     5     6    1
     8     6     7    2
     9     8     1    1
    10     8     9    1
    11     8    12    1
    12     9    10    1
    13    10    11    1
    14    12    11    1
    15    13    14    1
    16    14    15    1
    17    15    18    2
    18    16    17    1
    19    16    15    1
    20    19    14    2
    21    20    21    2
    22    20    19    1
    23    21    26    1
    24    22    21    1
    25    23    22    1
    26    24    23    1
    27    24    25    1
    28    26    27    1
    29    26    13    1
    30    28    43    1
    31    29    37    1
    32    31    13    1
    33    31    39    1
    34    32    30    1
    35    32    31    1
    36    32    38    1
    37    33    36    1
    38    34    36    1
    39    35    33    1
    40    36    40    2
    41    38    28    1
    42    39    28    1
    43    39    29    1
    44    41    42    2
    45    42    37    1
    46    42    35    1
