@<TRIPOS>MOLECULE
No_1466-gen_results/8p0m/2024-11-27-11-27-31/
 15 16 0 0 0
SMALL
GASTEIGER

@<TRIPOS>ATOM
      1 O         -28.1229   -1.3353   28.4874 O.2     1  UNL1       -0.2723
      2 C         -27.4806   -0.4044   28.7094 C.2     1  UNL1        0.2577
      3 C         -27.1904    0.2460   29.5268 C.3     1  UNL1        0.1858
      4 N         -26.6021   -0.1576   27.5515 N.am    1  UNL1       -0.1601
      5 C         -25.6421    0.9031   27.5822 C.ar    1  UNL1        0.1549
      6 C         -25.5004    1.6142   28.7368 C.ar    1  UNL1        0.0315
      7 C         -26.2553    1.3158   29.8133 C.3     1  UNL1        0.0514
      8 C         -28.0127   -0.0325   30.9269 C.2     1  UNL1        0.3734
      9 N         -24.9029    1.1258   26.4550 N.ar    1  UNL1       -0.1946
     10 C         -23.8560    2.0813   26.5915 C.ar    1  UNL1        0.2578
     11 N         -23.6530    2.7756   27.6437 N.ar    1  UNL1       -0.2098
     12 C         -24.3951    2.6163   28.6575 C.ar    1  UNL1        0.1005
     13 N         -23.1310    2.1174   25.4083 N.pl3   1  UNL1       -0.0860
     14 O         -28.4694    0.7957   31.4109 O.co2   1  UNL1       -0.2451
     15 O         -28.3007   -1.3311   31.0311 O.co2   1  UNL1       -0.2451
@<TRIPOS>BOND
     1     1     2    2
     2     2     3    1
     3     2     4   am
     4     4     5    1
     5     3     7    1
     6     3     8    1
     7    10    13    1
     8     8    14   ar
     9     8    15   ar
    10     7     6    1
    11     5     6   ar
    12     6    12   ar
    13    12    11   ar
    14    11    10   ar
    15    10     9   ar
    16     9     5   ar
