@<TRIPOS>MOLECULE
outputs/IAG933/test6/raw/output_1467_IAG933_linker_design_.xyz
 44 48 0 0 0
SMALL
GASTEIGER

@<TRIPOS>ATOM
      1 C         -24.8550   -1.0120   30.1430 C.3     1  UNL1        0.1108
      2 C         -24.9730   -2.5050   29.7880 C.2     1  UNL1       -0.0051
      3 C         -23.9060   -3.1730   29.1460 C.2     1  UNL1       -0.0029
      4 C         -23.9890   -4.5490   28.8530 C.2     1  UNL1       -0.0003
      5 C         -25.1370   -5.2800   29.2050 C.2     1  UNL1       -0.0000
      6 C         -26.2320   -4.6110   29.7840 C.2     1  UNL1       -0.0003
      7 C         -26.1550   -3.2320   30.0650 C.2     1  UNL1       -0.0029
      8 C         -25.3870   -0.6790   31.5710 C.3     1  UNL1        0.0929
      9 C         -25.1890    0.7730   32.0280 C.3     1  UNL1        0.0206
     10 C         -25.3360    0.6840   33.5440 C.3     1  UNL1        0.0203
     11 C         -24.8290   -0.7150   33.9050 C.3     1  UNL1        0.0888
     12 N         -24.7580   -1.4810   32.6460 N.3     1  UNL1       -0.2177
     13 C         -25.6880    1.6140   26.4610 C.2     1  UNL1        0.0407
     14 C         -26.2500    2.9200   26.3950 C.2     1  UNL1        0.0744
     15 C         -25.6420    4.0930   27.1230 C.2     1  UNL1        0.2231
     16 N         -25.6140    5.2520   26.4490 N.2     1  UNL1       -0.2356
     17 C         -25.0260    6.4790   26.9630 C.3     1  UNL1        0.1550
     18 O         -25.1430    3.9660   28.2430 O.2     1  UNL1       -0.4467
     19 C         -27.4380    3.0910   25.6450 C.2     1  UNL1        0.1068
     20 N         -28.0750    2.0890   25.0030 N.2     1  UNL1       -0.2081
     21 C         -27.5430    0.8490   25.0790 C.2     1  UNL1        0.2533
     22 O         -28.1930   -0.2080   24.4770 O.2     1  UNL1       -0.4558
     23 C         -29.4600    0.0050   23.8660 C.3     1  UNL1        0.2426
     24 C         -30.0650   -1.3770   23.5730 C.3     1  UNL1        0.2292
     25 O         -30.7290   -1.8780   24.7210 O.3     1  UNL1       -0.2162
     26 C         -26.3540    0.5760   25.7770 C.2     1  UNL1        0.1931
     27 F         -25.8600   -0.6810   25.7950 F       1  UNL1       -0.1992
     28 C         -26.1959    4.8020   30.4600 C.3     1  UNL1        0.0316
     29 F         -21.4742    1.9474   26.9294 F       1  UNL1       -0.2357
     30 C         -25.4339    5.7602   34.5337 C.2     1  UNL1       -0.0000
     31 C         -23.2852    0.3996   29.3469 C.3     1  UNL1        0.0920
     32 C         -24.7472    4.7486   33.8868 C.2     1  UNL1       -0.0003
     33 C         -25.8266    3.3486   30.1461 C.3     1  UNL1        0.0673
     34 C         -24.6805    3.2101   29.1670 C.3     1  UNL1        0.2432
     35 C         -21.9016    1.1883   27.9521 C.3     1  UNL1        0.1783
     36 C         -26.0910    5.0557   31.9340 C.2     1  UNL1       -0.0220
     37 C         -23.1423    1.3402   28.4690 C.3     1  UNL1        0.1246
     38 C         -26.5035    6.3650   33.8903 C.2     1  UNL1       -0.0003
     39 N         -23.9851    2.3680   28.3163 N.3     1  UNL1       -0.1774
     40 C         -26.8508    6.0117   32.5980 C.2     1  UNL1       -0.0043
     41 C         -21.1876    0.1844   28.4953 C.3     1  UNL1        0.0383
     42 N         -23.5299   -0.4557   29.9552 N.3     1  UNL1       -0.2135
     43 C         -25.0304    4.4284   32.5794 C.2     1  UNL1       -0.0043
     44 C         -22.0094   -0.6043   29.2823 C.3     1  UNL1        0.0218
@<TRIPOS>BOND
     1     1    42    1
     2     2     7    1
     3     2     1    1
     4     3     2    2
     5     4     3    1
     6     4     5    2
     7     5     6    1
     8     6     7    2
     9     8     1    1
    10     8     9    1
    11     8    12    1
    12     9    10    1
    13    10    11    1
    14    12    11    1
    15    14    13    1
    16    14    15    1
    17    15    18    1
    18    16    17    1
    19    16    15    2
    20    18    34    1
    21    19    14    2
    22    20    21    2
    23    20    19    1
    24    21    26    1
    25    22    21    1
    26    23    22    1
    27    24    23    1
    28    24    25    1
    29    26    27    1
    30    26    13    2
    31    28    36    1
    32    31    42    1
    33    32    30    2
    34    33    28    1
    35    34    33    1
    36    35    29    1
    37    35    37    1
    38    35    41    1
    39    36    43    2
    40    36    40    1
    41    37    39    1
    42    37    31    1
    43    38    30    1
    44    39    34    1
    45    40    38    2
    46    41    44    1
    47    43    32    1
    48    44    31    1
