@<TRIPOS>MOLECULE
No_1468-gen_results/8p0m/2024-11-27-11-27-31/
 26 27 0 0 0
SMALL
GASTEIGER

@<TRIPOS>ATOM
      1 C         -28.0162   -0.8135   28.8779 C.3     1  UNL1        0.0695
      2 C         -27.0636   -0.1189   28.6079 C.ar    1  UNL1       -0.0152
      3 C         -26.9716    0.7139   27.5060 C.ar    1  UNL1        0.0677
      4 C         -25.8205    1.4910   27.1160 C.ar    1  UNL1        0.0084
      5 C         -24.6562    1.4242   27.9180 C.ar    1  UNL1        0.0593
      6 C         -24.6847    0.5901   29.0659 C.ar    1  UNL1        0.0045
      7 C         -25.8099   -0.1266   29.3338 C.ar    1  UNL1       -0.0041
      8 C         -28.6943   -0.4734   30.1587 C.3     1  UNL1        0.2356
      9 C         -28.6468    0.6468   30.5733 C.ar    1  UNL1        0.0135
     10 C         -28.9280    1.7253   29.9803 C.ar    1  UNL1       -0.0016
     11 C         -29.1516    2.7795   30.3148 C.ar    1  UNL1       -0.0002
     12 C         -28.9507    3.0744   31.7544 C.ar    1  UNL1       -0.0000
     13 C         -28.7098    2.0131   32.6081 C.ar    1  UNL1       -0.0002
     14 C         -28.5438    0.7476   32.0963 C.ar    1  UNL1       -0.0016
     15 C         -23.4337    2.1416   27.5630 C.2     1  UNL1        0.2967
     16 N         -23.0594    2.2886   26.3217 N.2     1  UNL1       -0.1025
     17 O         -22.4630    2.2672   28.4418 O.2     1  UNL1       -0.2636
     18 C         -27.9593    0.8387   26.4391 C.3     1  UNL1        0.4183
     19 F         -29.0881    0.8239   26.8004 F       1  UNL1       -0.1659
     20 F         -27.7880   -0.2067   25.5241 F       1  UNL1       -0.1659
     21 F         -27.8650    1.9652   25.6779 F       1  UNL1       -0.1659
     22 C         -30.0651   -1.2852   30.3238 C.3     1  UNL1        0.4266
     23 F         -31.0120   -1.0559   29.7000 F       1  UNL1       -0.1671
     24 F         -29.7446   -2.6622   30.2101 F       1  UNL1       -0.1671
     25 F         -30.4083   -1.3534   31.6684 F       1  UNL1       -0.1671
     26 O         -27.8259   -1.3154   31.1496 O.3     1  UNL1       -0.2120
@<TRIPOS>BOND
     1     1     8    1
     2     8     9    1
     3     5    15    1
     4    15    16    2
     5    15    17    1
     6     3    18    1
     7    18    19    1
     8    18    20    1
     9    18    21    1
    10     8    22    1
    11    22    23    1
    12    22    24    1
    13    22    25    1
    14     8    26    1
    15     1     2    1
    16     2     3   ar
    17     3     4   ar
    18     4     5   ar
    19     5     6   ar
    20     6     7   ar
    21     7     2   ar
    22     9    10   ar
    23    10    11   ar
    24    11    12   ar
    25    12    13   ar
    26    13    14   ar
    27    14     9   ar
