@<TRIPOS>MOLECULE
outputs/IAG933/test6/raw/output_1469_IAG933_linker_design_.xyz
 42 46 0 0 0
SMALL
GASTEIGER

@<TRIPOS>ATOM
      1 C         -24.8550   -1.0120   30.1430 C.3     1  UNL1        0.0705
      2 C         -24.9730   -2.5050   29.7880 C.2     1  UNL1       -0.0186
      3 C         -23.9060   -3.1730   29.1460 C.2     1  UNL1       -0.0042
      4 C         -23.9890   -4.5490   28.8530 C.2     1  UNL1       -0.0003
      5 C         -25.1370   -5.2800   29.2050 C.2     1  UNL1       -0.0000
      6 C         -26.2320   -4.6110   29.7840 C.2     1  UNL1       -0.0003
      7 C         -26.1550   -3.2320   30.0650 C.2     1  UNL1       -0.0042
      8 C         -25.3870   -0.6790   31.5710 C.3     1  UNL1        0.0793
      9 C         -25.1890    0.7730   32.0280 C.3     1  UNL1        0.0193
     10 C         -25.3360    0.6840   33.5440 C.3     1  UNL1        0.0202
     11 C         -24.8290   -0.7150   33.9050 C.3     1  UNL1        0.0887
     12 N         -24.7580   -1.4810   32.6460 N.3     1  UNL1       -0.2190
     13 C         -25.6880    1.6140   26.4610 C.3     1  UNL1        0.0921
     14 C         -26.2500    2.9200   26.3950 C.2     1  UNL1        0.0589
     15 C         -25.6420    4.0930   27.1230 C.2     1  UNL1        0.2628
     16 N         -25.6140    5.2520   26.4490 N.am    1  UNL1       -0.2000
     17 C         -25.0260    6.4790   26.9630 C.3     1  UNL1        0.1388
     18 O         -25.1430    3.9660   28.2430 O.2     1  UNL1       -0.2686
     19 C         -27.4380    3.0910   25.6450 C.2     1  UNL1        0.1025
     20 N         -28.0750    2.0890   25.0030 N.2     1  UNL1       -0.2118
     21 C         -27.5430    0.8490   25.0790 C.2     1  UNL1        0.2344
     22 O         -28.1930   -0.2080   24.4770 O.2     1  UNL1       -0.4585
     23 C         -29.4600    0.0050   23.8660 C.3     1  UNL1        0.2423
     24 C         -30.0650   -1.3770   23.5730 C.3     1  UNL1        0.2292
     25 O         -30.7290   -1.8780   24.7210 O.3     1  UNL1       -0.2162
     26 C         -26.3540    0.5760   25.7770 C.3     1  UNL1        0.2440
     27 F         -25.8600   -0.6810   25.7950 F       1  UNL1       -0.2265
     28 N         -26.2037    1.9462   29.3075 N.3     1  UNL1       -0.2112
     29 C         -22.5080    1.0525   28.3823 C.2     1  UNL1       -0.0031
     30 C         -27.2750    2.3733   30.1355 C.3     1  UNL1        0.1052
     31 C         -24.9366    1.1577   29.0818 C.3     1  UNL1        0.1253
     32 C         -27.3667    3.1446   31.1776 C.3     1  UNL1        0.1595
     33 C         -29.5018    2.2605   31.0234 C.3     1  UNL1        0.1437
     34 O         -26.8675   -0.3866   28.7764 O.3     1  UNL1       -0.2209
     35 C         -23.2144    2.0663   25.8580 C.2     1  UNL1       -0.0041
     36 C         -21.4984    1.4547   27.4971 C.2     1  UNL1       -0.0003
     37 C         -28.6603    2.0291   29.7627 C.3     1  UNL1        0.0520
     38 C         -24.2180    1.6080   26.7513 C.2     1  UNL1       -0.0176
     39 C         -23.8493    1.2173   28.0255 C.2     1  UNL1       -0.0076
     40 C         -21.8604    2.0010   26.2584 C.2     1  UNL1       -0.0003
     41 O         -28.4899    2.5233   32.0055 O.3     1  UNL1       -0.3522
     42 C         -25.4418   -0.3152   28.9196 C.3     1  UNL1        0.1772
@<TRIPOS>BOND
     1     1    42    1
     2     2     7    1
     3     2     1    1
     4     3     2    2
     5     4     3    1
     6     4     5    2
     7     5     6    1
     8     6     7    2
     9     8     1    1
    10     8     9    1
    11     8    12    1
    12     9    10    1
    13    10    11    1
    14    12    11    1
    15    13    38    1
    16    14    13    1
    17    14    15    1
    18    15    18    2
    19    16    17    1
    20    16    15    1
    21    19    14    2
    22    20    21    2
    23    20    19    1
    24    21    26    1
    25    22    21    1
    26    23    22    1
    27    24    23    1
    28    24    25    1
    29    26    27    1
    30    26    13    1
    31    30    28    1
    32    30    32    1
    33    31    28    1
    34    32    41    1
    35    33    41    1
    36    35    40    2
    37    35    38    1
    38    36    29    2
    39    37    30    1
    40    37    33    1
    41    38    39    2
    42    39    29    1
    43    39    31    1
    44    40    36    1
    45    42    34    1
    46    42    31    1
