@<TRIPOS>MOLECULE
outputs/IAG933/test6/raw/output_1470_IAG933_linker_design_.xyz
 47 51 0 0 0
SMALL
GASTEIGER

@<TRIPOS>ATOM
      1 C         -24.8550   -1.0120   30.1430 C.3     1  UNL1        0.0437
      2 C         -24.9730   -2.5050   29.7880 C.2     1  UNL1       -0.0208
      3 C         -23.9060   -3.1730   29.1460 C.2     1  UNL1       -0.0042
      4 C         -23.9890   -4.5490   28.8530 C.2     1  UNL1       -0.0003
      5 C         -25.1370   -5.2800   29.2050 C.2     1  UNL1       -0.0000
      6 C         -26.2320   -4.6110   29.7840 C.2     1  UNL1       -0.0003
      7 C         -26.1550   -3.2320   30.0650 C.2     1  UNL1       -0.0042
      8 C         -25.3870   -0.6790   31.5710 C.3     1  UNL1        0.0772
      9 C         -25.1890    0.7730   32.0280 C.3     1  UNL1        0.0192
     10 C         -25.3360    0.6840   33.5440 C.3     1  UNL1        0.0202
     11 C         -24.8290   -0.7150   33.9050 C.3     1  UNL1        0.0887
     12 N         -24.7580   -1.4810   32.6460 N.3     1  UNL1       -0.2191
     13 C         -25.6880    1.6140   26.4610 C.2     1  UNL1        0.0934
     14 C         -26.2500    2.9200   26.3950 C.2     1  UNL1        0.0905
     15 C         -25.6420    4.0930   27.1230 C.2     1  UNL1        0.2677
     16 N         -25.6140    5.2520   26.4490 N.am    1  UNL1       -0.1997
     17 C         -25.0260    6.4790   26.9630 C.3     1  UNL1        0.1388
     18 O         -25.1430    3.9660   28.2430 O.2     1  UNL1       -0.2683
     19 C         -27.4380    3.0910   25.6450 C.2     1  UNL1        0.1080
     20 N         -28.0750    2.0890   25.0030 N.2     1  UNL1       -0.2080
     21 C         -27.5430    0.8490   25.0790 C.2     1  UNL1        0.2546
     22 O         -28.1930   -0.2080   24.4770 O.2     1  UNL1       -0.4558
     23 C         -29.4600    0.0050   23.8660 C.3     1  UNL1        0.2426
     24 C         -30.0650   -1.3770   23.5730 C.3     1  UNL1        0.2292
     25 O         -30.7290   -1.8780   24.7210 O.3     1  UNL1       -0.2162
     26 C         -26.3540    0.5760   25.7770 C.2     1  UNL1        0.2068
     27 F         -25.8600   -0.6810   25.7950 F       1  UNL1       -0.1979
     28 C         -23.0834    0.8448   28.8448 C.2     1  UNL1        0.0413
     29 N         -24.5885    1.1803   27.2168 N.pl3   1  UNL1       -0.2685
     30 N         -28.3730    2.9347   29.7279 N.pl3   1  UNL1       -0.2841
     31 C         -28.5165    4.1536   29.0701 C.2     1  UNL1        0.0635
     32 O         -27.0004    6.2267   29.6765 O.2     1  UNL1       -0.4705
     33 C         -25.5379   -0.1436   29.1663 C.3     1  UNL1        0.0445
     34 C         -28.9528    1.6341   29.4909 C.3     1  UNL1        0.1281
     35 C         -27.2974    4.3837   31.0462 C.2     1  UNL1        0.0539
     36 C         -25.9180    6.2517   30.6335 C.3     1  UNL1        0.2525
     37 C         -23.1332    1.9777   25.3245 C.3     1  UNL1        0.0501
     38 C         -22.3594    1.3693   27.7871 C.2     1  UNL1        0.1507
     39 C         -24.4606    0.6638   28.4600 C.2     1  UNL1        0.0351
     40 F         -21.0849    1.6657   27.2229 F       1  UNL1       -0.2032
     41 C         -27.7105    5.1353   29.8656 C.2     1  UNL1        0.1494
     42 C         -28.1991    0.5923   28.6561 C.3     1  UNL1        0.1723
     43 C         -23.3245    1.4666   26.7664 C.2     1  UNL1        0.0605
     44 O         -29.1117   -0.5103   28.6600 O.3     1  UNL1       -0.2213
     45 C         -29.1776    4.3146   27.6826 C.3     1  UNL1        0.0506
     46 C         -26.9611   -0.2761   28.8797 C.3     1  UNL1        0.0407
     47 C         -27.5784    3.0963   30.9500 C.2     1  UNL1        0.0685
@<TRIPOS>BOND
     1     1    33    1
     2     2     7    1
     3     2     1    1
     4     3     2    2
     5     4     3    1
     6     4     5    2
     7     5     6    1
     8     6     7    2
     9     8     1    1
    10     8     9    1
    11     8    12    1
    12     9    10    1
    13    10    11    1
    14    12    11    1
    15    13    29    1
    16    14    13    1
    17    14    15    1
    18    15    18    2
    19    16    17    1
    20    16    15    1
    21    19    14    2
    22    20    21    2
    23    20    19    1
    24    21    26    1
    25    22    21    1
    26    23    22    1
    27    24    23    1
    28    24    25    1
    29    26    27    1
    30    26    13    2
    31    29    39    1
    32    30    47    1
    33    31    30    1
    34    31    41    2
    35    32    41    1
    36    32    36    1
    37    33    46    1
    38    34    30    1
    39    37    43    1
    40    38    28    1
    41    39    28    2
    42    39    33    1
    43    40    38    1
    44    41    35    1
    45    42    44    1
    46    42    46    1
    47    42    34    1
    48    43    29    1
    49    43    38    2
    50    45    31    1
    51    47    35    2
