@<TRIPOS>MOLECULE
No_1471-gen_results/8p0m/2024-11-27-11-27-31/
 28 31 0 0 0
SMALL
GASTEIGER

@<TRIPOS>ATOM
      1 C         -28.0162   -0.8135   28.8779 C.3     1  UNL1        0.0811
      2 C         -27.0636   -0.1190   28.6079 C.3     1  UNL1        0.0736
      3 C         -25.7647   -0.3897   29.0360 C.2     1  UNL1        0.1517
      4 C         -24.5516    0.4058   28.7646 C.3     1  UNL1        0.0680
      5 C         -24.6957    1.4480   27.7988 C.3     1  UNL1        0.0852
      6 C         -25.9755    1.7250   27.3077 C.3     1  UNL1        0.0100
      7 C         -27.0718    1.0134   27.6535 C.3     1  UNL1        0.0092
      8 N         -29.1869   -0.1649   29.1026 N.3     1  UNL1       -0.2541
      9 C         -23.4964    2.1689   27.4760 C.2     1  UNL1        0.2413
     10 N         -22.3108    1.7042   27.8633 N.am    1  UNL1       -0.2054
     11 C         -22.1918    0.7005   28.7972 C.3     1  UNL1        0.1156
     12 C         -23.2809   -0.0477   29.1837 C.3     1  UNL1        0.0312
     13 C         -29.9586   -0.4146   30.0757 C.3     1  UNL1        0.1621
     14 O         -23.4843    3.1841   26.6893 O.2     1  UNL1       -0.2733
     15 C         -31.3216   -0.1215   30.0299 C.3     1  UNL1        0.0418
     16 N         -29.5220   -0.9693   31.2566 N.2     1  UNL1       -0.2638
     17 C         -31.8990    0.5653   29.0347 C.3     1  UNL1        0.0161
     18 C         -31.0130    0.7749   27.9547 C.3     1  UNL1        0.1194
     19 C         -29.7342    0.1142   27.7479 C.3     1  UNL1        0.0850
     20 C         -31.6033    1.3794   26.6522 C.2     1  UNL1        0.3657
     21 O         -31.0600    1.6538   25.7597 O.co2   1  UNL1       -0.2456
     22 O         -32.7566    1.9548   26.8839 O.co2   1  UNL1       -0.2456
     23 C         -30.1569   -1.4806   32.2021 C.2     1  UNL1        0.0417
     24 O         -25.5890   -1.3695   29.9016 O.2     1  UNL1       -0.2960
     25 C         -29.4326   -2.0181   33.3347 C.3     1  UNL1        0.0669
     26 C         -30.1027   -2.7361   34.2878 C.2     1  UNL1       -0.0243
     27 C         -31.3902   -2.9413   34.1542 C.2     1  UNL1       -0.0243
     28 C         -31.3223   -2.0976   32.5448 C.3     1  UNL1        0.0669
@<TRIPOS>BOND
     1     2     3    1
     2     3     4    1
     3     4     5    1
     4     5     6    1
     5     2     7    1
     6     1     8    1
     7     5     9    1
     8     9    10   am
     9     4    12    1
    10    11    12    1
    11     8    13    1
    12     9    14    2
    13    13    16    1
    14    15    17    1
    15     8    19    1
    16    18    19    1
    17    18    20    1
    18    20    21   ar
    19    20    22   ar
    20    16    23    2
    21     3    24    2
    22    23    25    1
    23    25    26    1
    24    26    27    2
    25    23    28    1
    26    27    28    1
    27     1     2    1
    28    13    15    1
    29    17    18    1
    30     7     6    1
    31    11    10    1
