@<TRIPOS>MOLECULE
outputs/IAG933/test6/raw/output_1472_IAG933_linker_design_.xyz
 42 46 0 0 0
SMALL
GASTEIGER

@<TRIPOS>ATOM
      1 C         -24.8550   -1.0120   30.1430 C.3     1  UNL1        0.0671
      2 C         -24.9730   -2.5050   29.7880 C.2     1  UNL1       -0.0167
      3 C         -23.9060   -3.1730   29.1460 C.2     1  UNL1       -0.0039
      4 C         -23.9890   -4.5490   28.8530 C.2     1  UNL1       -0.0003
      5 C         -25.1370   -5.2800   29.2050 C.2     1  UNL1       -0.0000
      6 C         -26.2320   -4.6110   29.7840 C.2     1  UNL1       -0.0003
      7 C         -26.1550   -3.2320   30.0650 C.2     1  UNL1       -0.0039
      8 C         -25.3870   -0.6790   31.5710 C.3     1  UNL1        0.0812
      9 C         -25.1890    0.7730   32.0280 C.3     1  UNL1        0.0195
     10 C         -25.3360    0.6840   33.5440 C.3     1  UNL1        0.0203
     11 C         -24.8290   -0.7150   33.9050 C.3     1  UNL1        0.0887
     12 N         -24.7580   -1.4810   32.6460 N.3     1  UNL1       -0.2188
     13 C         -25.6880    1.6140   26.4610 C.2     1  UNL1        0.0364
     14 C         -26.2500    2.9200   26.3950 C.2     1  UNL1        0.0763
     15 C         -25.6420    4.0930   27.1230 C.2     1  UNL1        0.2664
     16 N         -25.6140    5.2520   26.4490 N.am    1  UNL1       -0.1997
     17 C         -25.0260    6.4790   26.9630 C.3     1  UNL1        0.1388
     18 O         -25.1430    3.9660   28.2430 O.2     1  UNL1       -0.2683
     19 C         -27.4380    3.0910   25.6450 C.2     1  UNL1        0.1067
     20 N         -28.0750    2.0890   25.0030 N.2     1  UNL1       -0.2081
     21 C         -27.5430    0.8490   25.0790 C.2     1  UNL1        0.2533
     22 O         -28.1930   -0.2080   24.4770 O.2     1  UNL1       -0.4558
     23 C         -29.4600    0.0050   23.8660 C.3     1  UNL1        0.2426
     24 C         -30.0650   -1.3770   23.5730 C.3     1  UNL1        0.2292
     25 O         -30.7290   -1.8780   24.7210 O.3     1  UNL1       -0.2162
     26 C         -26.3540    0.5760   25.7770 C.2     1  UNL1        0.1928
     27 F         -25.8600   -0.6810   25.7950 F       1  UNL1       -0.1992
     28 C         -20.9871   -0.6019   29.2898 C.3     1  UNL1        0.1741
     29 O         -27.4499   -0.2950   28.6219 O.2     1  UNL1       -0.2318
     30 C         -23.2426    1.9324   26.1198 C.2     1  UNL1        0.1491
     31 C         -21.8236    1.8082   26.4762 C.3     1  UNL1        0.2392
     32 F         -20.9140    2.0745   25.7169 F       1  UNL1       -0.2272
     33 C         -26.4509   -0.1194   28.7311 C.1     1  UNL1        0.1254
     34 O         -22.1141   -0.1604   29.7464 O.3     1  UNL1       -0.3503
     35 C         -22.8009    0.2413   28.2894 C.3     1  UNL1        0.1539
     36 C         -24.1751    0.5713   28.1752 C.3     1  UNL1        0.0828
     37 C         -24.3791    1.3310   27.0033 C.2     1  UNL1        0.0130
     38 O         -20.5457    1.2322   28.0072 O.3     1  UNL1       -0.3478
     39 F         -23.4580    2.6951   25.1420 F       1  UNL1       -0.2063
     40 C         -21.9670    1.0683   27.7543 C.3     1  UNL1        0.1818
     41 C         -19.8707    0.2457   28.7766 C.3     1  UNL1        0.1742
     42 C         -25.2072   -0.1047   28.9716 C.2     1  UNL1        0.0417
@<TRIPOS>BOND
     1     1    42    1
     2     2     7    1
     3     2     1    1
     4     3     2    2
     5     4     3    1
     6     4     5    2
     7     5     6    1
     8     6     7    2
     9     8     1    1
    10     8     9    1
    11     8    12    1
    12     9    10    1
    13    10    11    1
    14    12    11    1
    15    13    37    1
    16    14    13    1
    17    14    15    1
    18    15    18    2
    19    16    17    1
    20    16    15    1
    21    19    14    2
    22    20    21    2
    23    20    19    1
    24    21    26    1
    25    22    21    1
    26    23    22    1
    27    24    23    1
    28    24    25    1
    29    26    27    1
    30    26    13    2
    31    28    34    1
    32    29    33    2
    33    30    31    1
    34    30    37    2
    35    31    32    1
    36    31    40    1
    37    33    42    2
    38    35    34    1
    39    36    35    1
    40    36    42    1
    41    37    36    1
    42    38    41    1
    43    39    30    1
    44    40    38    1
    45    40    35    1
    46    41    28    1
