@<TRIPOS>MOLECULE
outputs/IAG933/test6/raw/output_1475_IAG933_linker_design_.xyz
 48 52 0 0 0
SMALL
GASTEIGER

@<TRIPOS>ATOM
      1 C         -24.8550   -1.0120   30.1430 C.3     1  UNL1        0.2052
      2 C         -24.9730   -2.5050   29.7880 C.2     1  UNL1        0.0186
      3 C         -23.9060   -3.1730   29.1460 C.2     1  UNL1       -0.0008
      4 C         -23.9890   -4.5490   28.8530 C.2     1  UNL1       -0.0002
      5 C         -25.1370   -5.2800   29.2050 C.2     1  UNL1       -0.0000
      6 C         -26.2320   -4.6110   29.7840 C.2     1  UNL1       -0.0002
      7 C         -26.1550   -3.2320   30.0650 C.2     1  UNL1       -0.0008
      8 C         -25.3870   -0.6790   31.5710 C.3     1  UNL1        0.1170
      9 C         -25.1890    0.7730   32.0280 C.3     1  UNL1        0.0229
     10 C         -25.3360    0.6840   33.5440 C.3     1  UNL1        0.0204
     11 C         -24.8290   -0.7150   33.9050 C.3     1  UNL1        0.0888
     12 N         -24.7580   -1.4810   32.6460 N.3     1  UNL1       -0.2154
     13 C         -25.6880    1.6140   26.4610 C.2     1  UNL1        0.0380
     14 C         -26.2500    2.9200   26.3950 C.2     1  UNL1        0.0744
     15 C         -25.6420    4.0930   27.1230 C.2     1  UNL1        0.2662
     16 N         -25.6140    5.2520   26.4490 N.am    1  UNL1       -0.1997
     17 C         -25.0260    6.4790   26.9630 C.3     1  UNL1        0.1388
     18 O         -25.1430    3.9660   28.2430 O.2     1  UNL1       -0.2683
     19 C         -27.4380    3.0910   25.6450 C.2     1  UNL1        0.1065
     20 N         -28.0750    2.0890   25.0030 N.2     1  UNL1       -0.2081
     21 C         -27.5430    0.8490   25.0790 C.2     1  UNL1        0.2530
     22 O         -28.1930   -0.2080   24.4770 O.2     1  UNL1       -0.4559
     23 C         -29.4600    0.0050   23.8660 C.3     1  UNL1        0.2406
     24 C         -30.0650   -1.3770   23.5730 C.3     1  UNL1        0.2077
     25 O         -30.7290   -1.8780   24.7210 O.3     1  UNL1       -0.2797
     26 C         -26.3540    0.5760   25.7770 C.2     1  UNL1        0.1909
     27 F         -25.8600   -0.6810   25.7950 F       1  UNL1       -0.1995
     28 O         -23.4757   -0.5638   30.2251 O.2     1  UNL1       -0.4613
     29 C         -31.2369   -0.5801   27.0085 C.1     1  UNL1       -0.0202
     30 C         -32.1822    1.9016   26.0946 C.3     1  UNL1        0.1179
     31 C         -33.4680    1.7373   28.2399 C.2     1  UNL1        0.0658
     32 C         -30.6503    0.8651   29.0080 C.2     1  UNL1        0.0282
     33 C         -23.1506    2.4056   25.4956 C.3     1  UNL1        0.0024
     34 C         -33.4615    1.7802   29.6782 C.2     1  UNL1        0.0158
     35 C         -22.0968    0.5154   28.6179 C.3     1  UNL1        0.0846
     36 C         -31.1217   -1.2826   25.8202 C.1     1  UNL1        0.0616
     37 C         -32.2847    2.1072   30.4260 C.2     1  UNL1       -0.0031
     38 C         -31.4728    0.3638   27.8763 C.2     1  UNL1        0.0946
     39 O         -28.7092   -0.3932   28.5017 O.3     1  UNL1       -0.2151
     40 C         -29.1688    0.8305   28.8407 C.3     1  UNL1        0.2101
     41 C         -30.1788    3.2452   29.6544 C.3     1  UNL1        0.0308
     42 C         -31.0689    2.0311   29.6985 C.2     1  UNL1       -0.0215
     43 C         -23.2359    1.4084   26.6456 C.3     1  UNL1        0.0273
     44 C         -23.3192    0.1037   29.0966 C.2     1  UNL1        0.1962
     45 N         -24.3805    0.3673   28.3717 N.2     1  UNL1       -0.2391
     46 N         -32.4101    1.3123   27.4354 N.pl3   1  UNL1       -0.2780
     47 C         -21.9575    1.4083   27.4659 C.3     1  UNL1        0.0119
     48 C         -24.5436    1.4786   27.4681 C.3     1  UNL1        0.1306
@<TRIPOS>BOND
     1     1    28    1
     2     2     7    1
     3     2     1    1
     4     3     2    2
     5     4     3    1
     6     4     5    2
     7     5     6    1
     8     6     7    2
     9     8     1    1
    10     8     9    1
    11     8    12    1
    12     9    10    1
    13    10    11    1
    14    12    11    1
    15    14    13    1
    16    14    15    1
    17    15    18    2
    18    16    17    1
    19    16    15    1
    20    19    14    2
    21    20    21    2
    22    20    19    1
    23    21    26    1
    24    22    21    1
    25    23    22    1
    26    24    23    1
    27    24    25    1
    28    25    36    1
    29    26    27    1
    30    26    13    2
    31    29    38    1
    32    30    46    1
    33    31    34    2
    34    32    42    1
    35    34    37    1
    36    35    44    1
    37    36    29    3
    38    38    32    2
    39    39    40    1
    40    40    32    1
    41    41    42    1
    42    42    37    2
    43    43    33    1
    44    43    47    1
    45    43    48    1
    46    44    28    1
    47    45    44    2
    48    46    38    1
    49    46    31    1
    50    47    35    1
    51    48    13    1
    52    48    45    1
