@<TRIPOS>MOLECULE
No_1477-gen_results/8p0m/2024-11-27-11-27-31/
 35 36 0 0 0
SMALL
GASTEIGER

@<TRIPOS>ATOM
      1 C         -28.0162   -0.8135   28.8779 C.2     1  UNL1        0.2494
      2 C         -27.0636   -0.1189   28.6079 C.ar    1  UNL1        0.0537
      3 C         -26.9287    1.1713   29.0083 C.ar    1  UNL1        0.0090
      4 C         -25.7702    2.0341   28.6884 C.ar    1  UNL1        0.0591
      5 C         -24.7141    1.4431   27.9188 C.ar    1  UNL1        0.0758
      6 C         -24.8590    0.0783   27.5836 C.ar    1  UNL1        0.0041
      7 C         -25.9647   -0.6606   27.9164 C.ar    1  UNL1        0.0045
      8 N         -27.9820   -1.6112   30.1028 N.am    1  UNL1       -0.2659
      9 C         -23.5351    2.1704   27.5550 C.3     1  UNL1        0.4187
     10 F         -23.4709    2.9034   26.7728 F       1  UNL1       -0.1659
     11 F         -22.8493    2.6451   28.7015 F       1  UNL1       -0.1659
     12 F         -22.4870    1.1564   27.2723 F       1  UNL1       -0.1659
     13 O         -29.1027   -0.6958   28.4477 O.2     1  UNL1       -0.2699
     14 C         -26.7614   -1.9014   30.8752 C.3     1  UNL1        0.1157
     15 C         -29.1083   -2.4297   30.5239 C.3     1  UNL1        0.1815
     16 C         -28.9041   -3.7878   30.4679 C.2     1  UNL1        0.2659
     17 O         -27.7459   -4.2560   30.9898 O.2     1  UNL1       -0.2711
     18 N         -29.7989   -4.6153   29.9917 N.am    1  UNL1       -0.1776
     19 C         -30.9645   -4.7233   30.2458 C.ar    1  UNL1        0.0797
     20 C         -31.9027   -4.9637   29.7374 C.ar    1  UNL1        0.0950
     21 C         -33.3214   -4.9753   30.1076 C.ar    1  UNL1        0.0117
     22 C         -33.5141   -4.5894   31.4351 C.ar    1  UNL1        0.0717
     23 C         -32.4893   -4.2251   32.2159 C.ar    1  UNL1        0.0052
     24 C         -31.2133   -4.2096   31.7475 C.ar    1  UNL1        0.0168
     25 C         -31.8016   -5.4126   28.2369 C.2     1  UNL1        0.3890
     26 O         -31.9271   -4.9310   27.2762 O.co2   1  UNL1       -0.2405
     27 O         -31.4086   -6.8286   28.1993 O.co2   1  UNL1       -0.2405
     28 C         -34.9463   -4.5926   31.9189 C.3     1  UNL1        0.4186
     29 F         -35.5981   -5.3471   31.4692 F       1  UNL1       -0.1659
     30 F         -34.7947   -4.7678   33.3053 F       1  UNL1       -0.1659
     31 F         -35.3911   -3.3289   31.7973 F       1  UNL1       -0.1659
     32 C         -25.6867    3.4092   29.1082 C.2     1  UNL1        0.2648
     33 O         -25.8846    4.4148   28.2688 O.2     1  UNL1       -0.2684
     34 N         -25.5280    3.7219   30.4215 N.am    1  UNL1       -0.1998
     35 C         -25.5231    5.0468   30.9615 C.3     1  UNL1        0.1388
@<TRIPOS>BOND
     1     1     2    1
     2     1     8   am
     3     5     9    1
     4     9    10    1
     5     9    11    1
     6     9    12    1
     7     1    13    2
     8     8    14    1
     9     8    15    1
    10    15    16    1
    11    16    17    2
    12    16    18   am
    13    18    19    1
    14    20    25    1
    15    25    26   ar
    16    25    27   ar
    17    22    28    1
    18    28    29    1
    19    28    30    1
    20    28    31    1
    21     4    32    1
    22    32    33    2
    23    32    34   am
    24    34    35    1
    25     2     3   ar
    26     3     4   ar
    27     4     5   ar
    28     5     6   ar
    29     6     7   ar
    30     7     2   ar
    31    19    20   ar
    32    20    21   ar
    33    21    22   ar
    34    22    23   ar
    35    23    24   ar
    36    24    19   ar
