@<TRIPOS>MOLECULE
No_1479-gen_results/8p0m/2024-11-27-11-27-31/
 32 33 0 0 0
SMALL
GASTEIGER

@<TRIPOS>ATOM
      1 C         -28.0162   -0.8135   28.8779 C.3     1  UNL1        0.3410
      2 C         -27.0636   -0.1189   28.6079 C.ar    1  UNL1        0.0438
      3 C         -26.9287    1.1713   29.0083 C.ar    1  UNL1        0.0077
      4 C         -25.7702    2.0341   28.6884 C.ar    1  UNL1        0.0799
      5 C         -24.7141    1.4431   27.9188 C.ar    1  UNL1        0.0617
      6 C         -24.8590    0.0783   27.5836 C.ar    1  UNL1        0.0046
      7 C         -25.9647   -0.6606   27.9164 C.ar    1  UNL1        0.0013
      8 F         -29.0591   -0.5087   28.2818 F       1  UNL1       -0.1933
      9 F         -27.9950   -1.8369   29.6552 F       1  UNL1       -0.1933
     10 C         -23.5400    2.1438   27.5689 C.2     1  UNL1        0.2715
     11 N         -22.3778    2.1966   27.9276 N.am    1  UNL1       -0.1409
     12 O         -23.7748    2.9183   26.4172 O.2     1  UNL1       -0.2679
     13 C         -21.9315    1.2128   28.8996 C.2     1  UNL1        0.2486
     14 C         -20.8234    0.3685   28.3798 C.3     1  UNL1        0.0969
     15 O         -22.5931    0.9921   29.8896 O.2     1  UNL1       -0.2729
     16 C         -25.6979    3.4195   29.1051 C.2     1  UNL1        0.3415
     17 O         -26.4094    4.2925   28.5169 O.2     1  UNL1       -0.2449
     18 O         -25.0905    3.6531   30.2304 O.3     1  UNL1       -0.4446
     19 C         -25.6860    4.4859   31.1583 C.3     1  UNL1        0.1921
     20 C         -25.3507    5.7333   31.1310 C.ar    1  UNL1        0.0173
     21 C         -25.7704    6.6028   30.2988 C.ar    1  UNL1       -0.0008
     22 C         -25.3485    8.0207   30.2254 C.ar    1  UNL1       -0.0002
     23 C         -24.5137    8.5017   31.2521 C.ar    1  UNL1       -0.0000
     24 C         -24.4546    6.3033   32.2278 C.ar    1  UNL1       -0.0008
     25 C         -24.0746    7.6410   32.2666 C.ar    1  UNL1       -0.0002
     26 C         -27.0821    4.1060   31.4936 C.3     1  UNL1        0.0570
     27 C         -27.2686    3.9405   33.0152 C.3     1  UNL1        0.0476
     28 C         -26.3588    3.5517   33.7142 C.2     1  UNL1       -0.0265
     29 C         -28.5622    4.3135   33.3902 C.2     1  UNL1       -0.0220
     30 C         -29.5305    4.8505   32.6591 C.2     1  UNL1       -0.0046
     31 C         -26.5750    3.3069   35.1533 C.2     1  UNL1       -0.0300
     32 C         -27.8171    3.6427   35.6644 C.3     1  UNL1        0.0304
@<TRIPOS>BOND
     1     1     2    1
     2     1     8    1
     3     1     9    1
     4     5    10    1
     5    10    11   am
     6    10    12    2
     7    11    13   am
     8    13    14    1
     9    13    15    2
    10     4    16    1
    11    16    17    2
    12    16    18    1
    13    18    19    1
    14    19    20    1
    15    19    26    1
    16    26    27    1
    17    27    28    1
    18    27    29    1
    19    29    30    2
    20    28    31    2
    21    31    32    1
    22     2     3   ar
    23     3     4   ar
    24     4     5   ar
    25     5     6   ar
    26     6     7   ar
    27     7     2   ar
    28    20    21   ar
    29    21    22   ar
    30    22    23   ar
    31    23    25   ar
    32    25    24   ar
    33    24    20   ar
