@<TRIPOS>MOLECULE
outputs/IAG933/test6/raw/output_148_IAG933_linker_design_.xyz
 51 56 0 0 0
SMALL
GASTEIGER

@<TRIPOS>ATOM
      1 C         -24.8550   -1.0120   30.1430 C.3     1  UNL1        0.0437
      2 C         -24.9730   -2.5050   29.7880 C.2     1  UNL1       -0.0208
      3 C         -23.9060   -3.1730   29.1460 C.2     1  UNL1       -0.0042
      4 C         -23.9890   -4.5490   28.8530 C.2     1  UNL1       -0.0003
      5 C         -25.1370   -5.2800   29.2050 C.2     1  UNL1       -0.0000
      6 C         -26.2320   -4.6110   29.7840 C.2     1  UNL1       -0.0003
      7 C         -26.1550   -3.2320   30.0650 C.2     1  UNL1       -0.0042
      8 C         -25.3870   -0.6790   31.5710 C.3     1  UNL1        0.0776
      9 C         -25.1890    0.7730   32.0280 C.3     1  UNL1        0.0278
     10 C         -25.3360    0.6840   33.5440 C.3     1  UNL1        0.0207
     11 C         -24.8290   -0.7150   33.9050 C.3     1  UNL1        0.0887
     12 N         -24.7580   -1.4810   32.6460 N.3     1  UNL1       -0.2191
     13 C         -25.6880    1.6140   26.4610 C.2     1  UNL1        0.0341
     14 C         -26.2500    2.9200   26.3950 C.2     1  UNL1        0.0741
     15 C         -25.6420    4.0930   27.1230 C.2     1  UNL1        0.2662
     16 N         -25.6140    5.2520   26.4490 N.am    1  UNL1       -0.1997
     17 C         -25.0260    6.4790   26.9630 C.3     1  UNL1        0.1388
     18 O         -25.1430    3.9660   28.2430 O.2     1  UNL1       -0.2683
     19 C         -27.4380    3.0910   25.6450 C.2     1  UNL1        0.1065
     20 N         -28.0750    2.0890   25.0030 N.2     1  UNL1       -0.2081
     21 C         -27.5430    0.8490   25.0790 C.2     1  UNL1        0.2530
     22 O         -28.1930   -0.2080   24.4770 O.2     1  UNL1       -0.4558
     23 C         -29.4600    0.0050   23.8660 C.3     1  UNL1        0.2426
     24 C         -30.0650   -1.3770   23.5730 C.3     1  UNL1        0.2292
     25 O         -30.7290   -1.8780   24.7210 O.3     1  UNL1       -0.2162
     26 C         -26.3540    0.5760   25.7770 C.2     1  UNL1        0.1907
     27 F         -25.8600   -0.6810   25.7950 F       1  UNL1       -0.1995
     28 C         -25.3209    8.8673   32.5060 C.2     1  UNL1       -0.0014
     29 C         -24.5082    6.6921   33.4437 C.2     1  UNL1        0.1914
     30 C         -24.2736    7.3632   34.5536 C.2     1  UNL1        0.0374
     31 C         -26.0363    4.8112   31.7790 C.3     1  UNL1        0.0729
     32 C         -26.1152    5.8828   30.9685 C.3     1  UNL1        0.0221
     33 C         -24.5667    9.1654   36.1606 C.3     1  UNL1        0.0311
     34 N         -24.2222    1.4695   28.5543 N.am    1  UNL1       -0.2554
     35 C         -25.1782    9.4805   33.7565 C.2     1  UNL1       -0.0044
     36 C         -27.1089    4.7860   33.8667 C.3     1  UNL1        0.0188
     37 O         -26.8247    1.6600   29.5874 O.2     1  UNL1       -0.2745
     38 C         -25.5291    1.7890   29.6878 C.2     1  UNL1        0.2305
     39 C         -25.0659    2.0422   31.1032 C.3     1  UNL1        0.0943
     40 C         -21.7993    1.8707   28.0434 C.2     1  UNL1       -0.0099
     41 C         -24.8495    6.9862   30.9142 C.3     1  UNL1        0.0310
     42 C         -24.4865    1.2683   27.4229 C.3     1  UNL1        0.1050
     43 C         -24.9007    7.5568   32.3033 C.2     1  UNL1        0.0168
     44 C         -23.3172    1.3408   26.2264 C.3     1  UNL1        0.0295
     45 C         -25.7886    3.4089   31.6856 C.3     1  UNL1        0.0808
     46 O         -24.4518    5.3087   33.6854 O.2     1  UNL1       -0.2869
     47 C         -27.8051    3.7750   32.9900 C.3     1  UNL1        0.0721
     48 N         -26.8821    3.9089   31.5030 N.3     1  UNL1       -0.2722
     49 C         -24.6530    8.6767   34.7560 C.2     1  UNL1       -0.0187
     50 C         -22.0924    1.9596   26.7944 C.3     1  UNL1        0.0294
     51 C         -22.8825    1.5257   29.0415 C.2     1  UNL1        0.0631
@<TRIPOS>BOND
     1     2     7    1
     2     2     1    1
     3     3     2    2
     4     4     3    1
     5     4     5    2
     6     5     6    1
     7     6     7    2
     8     8     1    1
     9     8     9    1
    10     8    12    1
    11     9    39    1
    12     9    10    1
    13    10    11    1
    14    12    11    1
    15    14    13    1
    16    14    15    1
    17    15    18    2
    18    16    17    1
    19    16    15    1
    20    19    14    2
    21    20    21    2
    22    20    19    1
    23    21    26    1
    24    22    21    1
    25    23    22    1
    26    24    23    1
    27    24    25    1
    28    26    27    1
    29    26    13    2
    30    28    35    1
    31    29    46    1
    32    29    30    2
    33    30    49    1
    34    31    32    1
    35    34    51    1
    36    34    38   am
    37    35    49    2
    38    37    38    2
    39    39    38    1
    40    40    51    2
    41    41    32    1
    42    41    43    1
    43    42    13    1
    44    42    34    1
    45    43    28    2
    46    43    29    1
    47    44    50    1
    48    44    42    1
    49    45    39    1
    50    45    31    1
    51    47    36    1
    52    48    45    1
    53    48    31    1
    54    48    47    1
    55    49    33    1
    56    50    40    1
