@<TRIPOS>MOLECULE
outputs/IAG933/test6/raw/output_1482_IAG933_linker_design_.xyz
 41 44 0 0 0
SMALL
GASTEIGER

@<TRIPOS>ATOM
      1 C         -24.8550   -1.0120   30.1430 C.3     1  UNL1        0.1173
      2 C         -24.9730   -2.5050   29.7880 C.2     1  UNL1       -0.0028
      3 C         -23.9060   -3.1730   29.1460 C.2     1  UNL1       -0.0026
      4 C         -23.9890   -4.5490   28.8530 C.2     1  UNL1       -0.0003
      5 C         -25.1370   -5.2800   29.2050 C.2     1  UNL1       -0.0000
      6 C         -26.2320   -4.6110   29.7840 C.2     1  UNL1       -0.0003
      7 C         -26.1550   -3.2320   30.0650 C.2     1  UNL1       -0.0026
      8 C         -25.3870   -0.6790   31.5710 C.3     1  UNL1        0.0952
      9 C         -25.1890    0.7730   32.0280 C.3     1  UNL1        0.0209
     10 C         -25.3360    0.6840   33.5440 C.3     1  UNL1        0.0203
     11 C         -24.8290   -0.7150   33.9050 C.3     1  UNL1        0.0888
     12 N         -24.7580   -1.4810   32.6460 N.3     1  UNL1       -0.2174
     13 C         -25.6880    1.6140   26.4610 C.2     1  UNL1        0.0406
     14 C         -26.2500    2.9200   26.3950 C.2     1  UNL1        0.0764
     15 C         -25.6420    4.0930   27.1230 C.2     1  UNL1        0.2664
     16 N         -25.6140    5.2520   26.4490 N.am    1  UNL1       -0.1997
     17 C         -25.0260    6.4790   26.9630 C.3     1  UNL1        0.1388
     18 O         -25.1430    3.9660   28.2430 O.2     1  UNL1       -0.2683
     19 C         -27.4380    3.0910   25.6450 C.2     1  UNL1        0.1067
     20 N         -28.0750    2.0890   25.0030 N.2     1  UNL1       -0.2081
     21 C         -27.5430    0.8490   25.0790 C.2     1  UNL1        0.2533
     22 O         -28.1930   -0.2080   24.4770 O.2     1  UNL1       -0.4558
     23 C         -29.4600    0.0050   23.8660 C.3     1  UNL1        0.2426
     24 C         -30.0650   -1.3770   23.5730 C.3     1  UNL1        0.2292
     25 O         -30.7290   -1.8780   24.7210 O.3     1  UNL1       -0.2162
     26 C         -26.3540    0.5760   25.7770 C.2     1  UNL1        0.1930
     27 F         -25.8600   -0.6810   25.7950 F       1  UNL1       -0.1992
     28 F         -20.3420    1.4289   28.0502 F       1  UNL1       -0.2024
     29 N         -27.3290    1.0899   29.5524 N.am    1  UNL1       -0.0691
     30 C         -24.5316    1.3253   27.1835 C.2     1  UNL1        0.0580
     31 C         -22.0697    0.2546   28.8106 C.2     1  UNL1        0.1250
     32 C         -26.7307    0.0829   28.9811 C.2     1  UNL1        0.3447
     33 C         -24.4169    0.4522   28.2851 C.3     1  UNL1        0.2081
     34 C         -22.2272    1.9682   27.1860 C.2     1  UNL1        0.0705
     35 O         -23.3429    2.6808   25.5567 O.2     1  UNL1       -0.3656
     36 N         -23.3034   -0.0964   28.7284 N.2     1  UNL1       -0.2437
     37 C         -21.6148    1.1875   28.0365 C.2     1  UNL1        0.1619
     38 O         -27.4414   -0.7378   28.4498 O.2     1  UNL1       -0.2490
     39 N         -25.3905   -0.0620   29.0860 N.am    1  UNL1       -0.2362
     40 N         -22.3010    2.6152   24.6406 N.3     1  UNL1        0.1108
     41 C         -23.4061    1.9689   26.6419 C.2     1  UNL1        0.1707
@<TRIPOS>BOND
     1     1    39    1
     2     2     7    1
     3     2     1    1
     4     3     2    2
     5     4     3    1
     6     4     5    2
     7     5     6    1
     8     6     7    2
     9     8     1    1
    10     8     9    1
    11     8    12    1
    12     9    10    1
    13    10    11    1
    14    12    11    1
    15    13    30    1
    16    14    13    1
    17    14    15    1
    18    15    18    2
    19    16    17    1
    20    16    15    1
    21    19    14    2
    22    20    21    2
    23    20    19    1
    24    21    26    1
    25    22    21    1
    26    23    22    1
    27    24    23    1
    28    24    25    1
    29    26    27    1
    30    26    13    2
    31    30    33    1
    32    32    39   am
    33    32    29    1
    34    33    36    1
    35    33    39    1
    36    34    37    2
    37    35    41    1
    38    36    31    2
    39    37    28    1
    40    37    31    1
    41    38    32    2
    42    40    35    1
    43    41    30    2
    44    41    34    1
