@<TRIPOS>MOLECULE
outputs/IAG933/test6/raw/output_1483_IAG933_linker_design_.xyz
 45 49 0 0 0
SMALL
GASTEIGER

@<TRIPOS>ATOM
      1 C         -24.8550   -1.0120   30.1430 C.3     1  UNL1        0.1113
      2 C         -24.9730   -2.5050   29.7880 C.2     1  UNL1       -0.0030
      3 C         -23.9060   -3.1730   29.1460 C.2     1  UNL1       -0.0026
      4 C         -23.9890   -4.5490   28.8530 C.2     1  UNL1       -0.0003
      5 C         -25.1370   -5.2800   29.2050 C.2     1  UNL1       -0.0000
      6 C         -26.2320   -4.6110   29.7840 C.2     1  UNL1       -0.0003
      7 C         -26.1550   -3.2320   30.0650 C.2     1  UNL1       -0.0026
      8 C         -25.3870   -0.6790   31.5710 C.3     1  UNL1        0.0950
      9 C         -25.1890    0.7730   32.0280 C.3     1  UNL1        0.0209
     10 C         -25.3360    0.6840   33.5440 C.3     1  UNL1        0.0203
     11 C         -24.8290   -0.7150   33.9050 C.3     1  UNL1        0.0888
     12 N         -24.7580   -1.4810   32.6460 N.3     1  UNL1       -0.2174
     13 C         -25.6880    1.6140   26.4610 C.2     1  UNL1        0.0393
     14 C         -26.2500    2.9200   26.3950 C.2     1  UNL1        0.0766
     15 C         -25.6420    4.0930   27.1230 C.2     1  UNL1        0.2664
     16 N         -25.6140    5.2520   26.4490 N.am    1  UNL1       -0.1997
     17 C         -25.0260    6.4790   26.9630 C.3     1  UNL1        0.1388
     18 O         -25.1430    3.9660   28.2430 O.2     1  UNL1       -0.2683
     19 C         -27.4380    3.0910   25.6450 C.2     1  UNL1        0.1067
     20 N         -28.0750    2.0890   25.0030 N.2     1  UNL1       -0.2081
     21 C         -27.5430    0.8490   25.0790 C.2     1  UNL1        0.2533
     22 O         -28.1930   -0.2080   24.4770 O.2     1  UNL1       -0.4558
     23 C         -29.4600    0.0050   23.8660 C.3     1  UNL1        0.2426
     24 C         -30.0650   -1.3770   23.5730 C.3     1  UNL1        0.2292
     25 O         -30.7290   -1.8780   24.7210 O.3     1  UNL1       -0.2162
     26 C         -26.3540    0.5760   25.7770 C.2     1  UNL1        0.1931
     27 F         -25.8600   -0.6810   25.7950 F       1  UNL1       -0.1992
     28 N         -25.0779   -0.0623   28.9748 N.pl3   1  UNL1       -0.3041
     29 O         -29.2440    5.0191   30.7926 O.3     1  UNL1       -0.3512
     30 C         -27.6975    2.9385   30.4793 C.3     1  UNL1        0.0347
     31 C         -22.6601    0.8245   28.6873 C.2     1  UNL1        0.0145
     32 C         -29.1575    2.5647   30.8343 C.3     1  UNL1        0.1448
     33 C         -29.6044    0.5548   29.3917 C.3     1  UNL1        0.1422
     34 C         -27.4785   -0.6479   29.0775 C.3     1  UNL1        0.0240
     35 C         -23.2887    2.0840   26.2169 C.2     1  UNL1        0.0013
     36 C         -28.0659    5.1948   31.5059 C.3     1  UNL1        0.1424
     37 C         -26.2306   -0.6639   28.1721 C.3     1  UNL1        0.0912
     38 C         -24.3723    1.4382   26.9827 C.2     1  UNL1        0.0159
     39 C         -21.9211    2.0817   26.7116 C.2     1  UNL1        0.0001
     40 C         -29.9182    3.8425   31.0572 C.3     1  UNL1        0.1715
     41 C         -27.1233    4.0800   31.2611 C.3     1  UNL1        0.0346
     42 C         -21.5861    1.4535   27.9640 C.2     1  UNL1        0.0013
     43 C         -24.0733    0.7292   28.2617 C.2     1  UNL1        0.0481
     44 C         -28.2879    0.5756   28.6402 C.3     1  UNL1        0.0338
     45 O         -29.8857    1.9360   29.7489 O.3     1  UNL1       -0.3537
@<TRIPOS>BOND
     1     1    28    1
     2     2     7    1
     3     2     1    1
     4     3     2    2
     5     4     3    1
     6     4     5    2
     7     5     6    1
     8     6     7    2
     9     8     1    1
    10     8     9    1
    11     8    12    1
    12     9    10    1
    13    10    11    1
    14    12    11    1
    15    13    38    1
    16    14    13    1
    17    14    15    1
    18    15    18    2
    19    16    17    1
    20    16    15    1
    21    19    14    2
    22    20    21    2
    23    20    19    1
    24    21    26    1
    25    22    21    1
    26    23    22    1
    27    24    23    1
    28    24    25    1
    29    26    27    1
    30    26    13    2
    31    29    40    1
    32    29    36    1
    33    30    32    1
    34    30    41    1
    35    32    45    1
    36    32    40    1
    37    33    45    1
    38    35    39    2
    39    35    38    1
    40    37    28    1
    41    37    34    1
    42    38    43    2
    43    39    42    1
    44    41    36    1
    45    42    31    2
    46    43    31    1
    47    43    28    1
    48    44    34    1
    49    44    33    1
