@<TRIPOS>MOLECULE
outputs/IAG933/test6/raw/output_1484_IAG933_linker_design_.xyz
 45 49 0 0 0
SMALL
GASTEIGER

@<TRIPOS>ATOM
      1 C         -24.8550   -1.0120   30.1430 C.3     1  UNL1        0.0451
      2 C         -24.9730   -2.5050   29.7880 C.2     1  UNL1       -0.0207
      3 C         -23.9060   -3.1730   29.1460 C.2     1  UNL1       -0.0042
      4 C         -23.9890   -4.5490   28.8530 C.2     1  UNL1       -0.0003
      5 C         -25.1370   -5.2800   29.2050 C.2     1  UNL1       -0.0000
      6 C         -26.2320   -4.6110   29.7840 C.2     1  UNL1       -0.0003
      7 C         -26.1550   -3.2320   30.0650 C.2     1  UNL1       -0.0042
      8 C         -25.3870   -0.6790   31.5710 C.3     1  UNL1        0.0917
      9 C         -25.1890    0.7730   32.0280 C.3     1  UNL1        0.0752
     10 C         -25.3360    0.6840   33.5440 C.3     1  UNL1        0.0362
     11 C         -24.8290   -0.7150   33.9050 C.3     1  UNL1        0.0901
     12 N         -24.7580   -1.4810   32.6460 N.3     1  UNL1       -0.2177
     13 C         -25.6880    1.6140   26.4610 C.2     1  UNL1        0.1770
     14 C         -26.2500    2.9200   26.3950 C.2     1  UNL1        0.1105
     15 C         -25.6420    4.0930   27.1230 C.2     1  UNL1        0.2694
     16 N         -25.6140    5.2520   26.4490 N.am    1  UNL1       -0.1996
     17 C         -25.0260    6.4790   26.9630 C.3     1  UNL1        0.1388
     18 O         -25.1430    3.9660   28.2430 O.2     1  UNL1       -0.2682
     19 C         -27.4380    3.0910   25.6450 C.2     1  UNL1        0.1098
     20 N         -28.0750    2.0890   25.0030 N.2     1  UNL1       -0.2079
     21 C         -27.5430    0.8490   25.0790 C.2     1  UNL1        0.2564
     22 O         -28.1930   -0.2080   24.4770 O.2     1  UNL1       -0.4558
     23 C         -29.4600    0.0050   23.8660 C.3     1  UNL1        0.2426
     24 C         -30.0650   -1.3770   23.5730 C.3     1  UNL1        0.2292
     25 O         -30.7290   -1.8780   24.7210 O.3     1  UNL1       -0.2162
     26 C         -26.3540    0.5760   25.7770 C.2     1  UNL1        0.2267
     27 F         -25.8600   -0.6810   25.7950 F       1  UNL1       -0.1960
     28 C         -27.1022    5.0998   29.9156 C.3     1  UNL1        0.0335
     29 O         -24.8301    1.1291   27.0785 O.2     1  UNL1       -0.4649
     30 C         -22.7689    2.0658   26.0633 C.2     1  UNL1        0.3625
     31 C         -27.4443    3.5745   30.1956 C.3     1  UNL1        0.0186
     32 N         -25.4416    2.0488   31.3526 N.3     1  UNL1       -0.2738
     33 C         -27.0456    3.5711   32.8978 C.3     1  UNL1        0.0480
     34 C         -26.9299    5.1451   32.9861 C.3     1  UNL1        0.1435
     35 C         -26.7842    2.8777   31.4712 C.3     1  UNL1        0.0601
     36 C         -20.8395    1.7710   27.3378 C.2     1  UNL1        0.1784
     37 O         -23.3590    2.4078   24.9455 O.2     1  UNL1       -0.2457
     38 C         -21.5085    1.5939   28.5413 C.2     1  UNL1        0.0185
     39 C         -23.5399    1.5833   29.8522 C.3     1  UNL1        0.0260
     40 O         -21.4250    2.0871   26.1897 O.3     1  UNL1       -0.4189
     41 C         -27.6618    6.2092   30.8677 C.3     1  UNL1        0.1422
     42 O         -27.9426    5.8387   32.2289 O.3     1  UNL1       -0.3537
     43 C         -22.8976    1.6186   28.4764 C.3     1  UNL1        0.0778
     44 C         -24.2681    2.6024   30.5896 C.3     1  UNL1        0.0725
     45 C         -23.5285    1.6513   27.2243 C.3     1  UNL1        0.2678
@<TRIPOS>BOND
     1     2     7    1
     2     2     1    1
     3     3     2    2
     4     4     3    1
     5     4     5    2
     6     5     6    1
     7     6     7    2
     8     8     1    1
     9     8     9    1
    10     8    12    1
    11     9    32    1
    12     9    10    1
    13    10    11    1
    14    12    11    1
    15    13    29    1
    16    14    13    1
    17    14    15    1
    18    15    18    2
    19    16    17    1
    20    16    15    1
    21    19    14    2
    22    20    21    2
    23    20    19    1
    24    21    26    1
    25    22    21    1
    26    23    22    1
    27    24    23    1
    28    24    25    1
    29    26    27    1
    30    26    13    2
    31    28    31    1
    32    28    41    1
    33    30    40    1
    34    30    45    1
    35    31    35    1
    36    33    34    1
    37    35    32    1
    38    35    33    1
    39    36    38    2
    40    37    30    2
    41    39    44    1
    42    40    36    1
    43    41    42    1
    44    42    34    1
    45    43    38    1
    46    43    39    1
    47    44    32    1
    48    45    29    1
    49    45    43    1
