@<TRIPOS>MOLECULE
No_1485-gen_results/8p0m/2024-11-27-11-27-31/
 28 32 0 0 0
SMALL
GASTEIGER

@<TRIPOS>ATOM
      1 C         -28.0162   -0.8135   28.8779 C.3     1  UNL1        0.0310
      2 C         -27.0636   -0.1189   28.6079 C.ar    1  UNL1       -0.0221
      3 C         -27.0010    0.6913   27.4910 C.ar    1  UNL1       -0.0029
      4 C         -25.8548    1.4825   27.0830 C.ar    1  UNL1        0.0159
      5 C         -24.6901    1.4526   27.8807 C.ar    1  UNL1        0.0684
      6 C         -24.7379    0.6010   29.0416 C.ar    1  UNL1       -0.0027
      7 C         -25.8234   -0.1688   29.3887 C.ar    1  UNL1       -0.0069
      8 C         -28.7125   -0.4634   30.1695 C.3     1  UNL1        0.0310
      9 C         -28.7790    0.6069   30.5305 C.ar    1  UNL1       -0.0218
     10 C         -28.4587    1.7835   29.8275 C.ar    1  UNL1       -0.0043
     11 C         -28.6120    2.7833   30.1410 C.ar    1  UNL1       -0.0003
     12 C         -28.2130    4.0612   29.3971 C.ar    1  UNL1       -0.0000
     13 C         -27.6404    3.8435   28.1431 C.ar    1  UNL1       -0.0000
     14 C         -27.1945    5.0256   27.5096 C.ar    1  UNL1       -0.0000
     15 C         -27.2599    6.2787   28.0594 C.ar    1  UNL1        0.0000
     16 C         -27.8216    6.4311   29.2972 C.ar    1  UNL1       -0.0000
     17 C         -28.2429    5.3115   30.0216 C.ar    1  UNL1       -0.0000
     18 C         -23.4421    0.4910   29.8369 C.3     1  UNL1        0.0584
     19 C         -22.2580    0.3483   29.1021 C.ar    1  UNL1        0.0348
     20 C         -21.3002   -0.6026   29.4948 C.ar    1  UNL1        0.0995
     21 C         -21.9784    1.2132   28.0144 C.ar    1  UNL1        0.1512
     22 C         -29.3073    3.1931   31.4332 C.ar    1  UNL1       -0.0000
     23 N         -20.6619    1.3109   27.6396 N.ar    1  UNL1       -0.2075
     24 N         -20.1037   -0.6014   28.7866 N.ar    1  UNL1       -0.2227
     25 C         -19.8246    0.3875   27.9455 C.ar    1  UNL1        0.2001
     26 C         -29.7006    2.0503   32.2347 C.ar    1  UNL1       -0.0003
     27 C         -29.4976    0.8610   31.8007 C.ar    1  UNL1       -0.0043
     28 N         -23.0709    1.9898   27.6268 N.pl3   1  UNL1       -0.1946
@<TRIPOS>BOND
     1     1     2    1
     2     1     8    1
     3    11    12    1
     4     6    18    1
     5    18    19    1
     6     5    28    1
     7    21    28    1
     8     8     9    1
     9    12    13   ar
    10    13    14   ar
    11    14    15   ar
    12    15    16   ar
    13    16    17   ar
    14    17    12   ar
    15     9    10   ar
    16    10    11   ar
    17    11    22   ar
    18    22    26   ar
    19    26    27   ar
    20    27     9   ar
    21     2     3   ar
    22     3     4   ar
    23     4     5   ar
    24     5     6   ar
    25     6     7   ar
    26     7     2   ar
    27    19    20   ar
    28    20    24   ar
    29    24    25   ar
    30    25    23   ar
    31    23    21   ar
    32    21    19   ar
