@<TRIPOS>MOLECULE
outputs/IAG933/test6/raw/output_1486_IAG933_linker_design_.xyz
 45 49 0 0 0
SMALL
GASTEIGER

@<TRIPOS>ATOM
      1 C         -24.8550   -1.0120   30.1430 C.3     1  UNL1        0.1141
      2 C         -24.9730   -2.5050   29.7880 C.2     1  UNL1       -0.0029
      3 C         -23.9060   -3.1730   29.1460 C.2     1  UNL1       -0.0026
      4 C         -23.9890   -4.5490   28.8530 C.2     1  UNL1       -0.0003
      5 C         -25.1370   -5.2800   29.2050 C.2     1  UNL1       -0.0000
      6 C         -26.2320   -4.6110   29.7840 C.2     1  UNL1       -0.0003
      7 C         -26.1550   -3.2320   30.0650 C.2     1  UNL1       -0.0026
      8 C         -25.3870   -0.6790   31.5710 C.3     1  UNL1        0.0951
      9 C         -25.1890    0.7730   32.0280 C.3     1  UNL1        0.0209
     10 C         -25.3360    0.6840   33.5440 C.3     1  UNL1        0.0203
     11 C         -24.8290   -0.7150   33.9050 C.3     1  UNL1        0.0888
     12 N         -24.7580   -1.4810   32.6460 N.3     1  UNL1       -0.2174
     13 C         -25.6880    1.6140   26.4610 C.3     1  UNL1        0.0925
     14 C         -26.2500    2.9200   26.3950 C.2     1  UNL1        0.0589
     15 C         -25.6420    4.0930   27.1230 C.2     1  UNL1        0.2628
     16 N         -25.6140    5.2520   26.4490 N.am    1  UNL1       -0.2000
     17 C         -25.0260    6.4790   26.9630 C.3     1  UNL1        0.1388
     18 O         -25.1430    3.9660   28.2430 O.2     1  UNL1       -0.2686
     19 C         -27.4380    3.0910   25.6450 C.2     1  UNL1        0.1025
     20 N         -28.0750    2.0890   25.0030 N.2     1  UNL1       -0.2118
     21 C         -27.5430    0.8490   25.0790 C.2     1  UNL1        0.2344
     22 O         -28.1930   -0.2080   24.4770 O.2     1  UNL1       -0.4585
     23 C         -29.4600    0.0050   23.8660 C.3     1  UNL1        0.2423
     24 C         -30.0650   -1.3770   23.5730 C.3     1  UNL1        0.2292
     25 O         -30.7290   -1.8780   24.7210 O.3     1  UNL1       -0.2162
     26 C         -26.3540    0.5760   25.7770 C.3     1  UNL1        0.2440
     27 F         -25.8600   -0.6810   25.7950 F       1  UNL1       -0.2265
     28 C         -24.2280    1.4466   26.5638 C.2     1  UNL1       -0.0054
     29 N         -25.9156    3.9178   30.8072 N.3     1  UNL1       -0.1588
     30 C         -23.6567    1.8311   25.3583 C.2     1  UNL1        0.0363
     31 O         -26.3403    5.1738   30.9119 O.3     1  UNL1       -0.2487
     32 C         -24.5838    4.5543   32.7868 C.3     1  UNL1        0.1648
     33 C         -26.2829    1.3382   29.3193 C.3     1  UNL1        0.1138
     34 C         -23.3959    1.1696   27.7014 C.2     1  UNL1        0.1020
     35 O         -21.5921    2.1542   26.3850 O.2     1  UNL1       -0.4428
     36 O         -22.8332    0.2728   29.7983 O.2     1  UNL1       -0.2700
     37 C         -26.7599    2.8148   30.0854 C.3     1  UNL1        0.1226
     38 O         -24.7122    5.9836   32.5321 O.3     1  UNL1       -0.3240
     39 C         -24.7795    3.4416   31.6177 C.3     1  UNL1        0.1332
     40 C         -25.5554    6.3046   31.4403 C.3     1  UNL1        0.3129
     41 C         -22.0198    1.5253   27.5329 C.3     1  UNL1        0.3554
     42 C         -23.8196    0.5419   28.9702 C.2     1  UNL1        0.2512
     43 C         -22.4011    2.2765   25.3581 C.2     1  UNL1        0.1753
     44 F         -21.0426    1.2606   28.4567 F       1  UNL1       -0.1831
     45 N         -25.1658    0.1456   29.2839 N.am    1  UNL1       -0.2712
@<TRIPOS>BOND
     1     1    45    1
     2     2     7    1
     3     2     1    1
     4     3     2    2
     5     4     3    1
     6     4     5    2
     7     5     6    1
     8     6     7    2
     9     8     1    1
    10     8     9    1
    11     8    12    1
    12     9    10    1
    13    10    11    1
    14    12    11    1
    15    13    28    1
    16    14    13    1
    17    14    15    1
    18    15    18    2
    19    16    17    1
    20    16    15    1
    21    19    14    2
    22    20    21    2
    23    20    19    1
    24    21    26    1
    25    22    21    1
    26    23    22    1
    27    24    23    1
    28    24    25    1
    29    26    27    1
    30    26    13    1
    31    28    34    2
    32    29    31    1
    33    29    39    1
    34    30    28    1
    35    31    40    1
    36    33    37    1
    37    34    42    1
    38    35    41    1
    39    37    29    1
    40    38    32    1
    41    39    32    1
    42    40    38    1
    43    41    34    1
    44    41    44    1
    45    42    45   am
    46    42    36    2
    47    43    30    2
    48    43    35    1
    49    45    33    1
