@<TRIPOS>MOLECULE
outputs/IAG933/test6/raw/output_1487_IAG933_linker_design_.xyz
 46 51 0 0 0
SMALL
GASTEIGER

@<TRIPOS>ATOM
      1 C         -24.8550   -1.0120   30.1430 C.3     1  UNL1        0.1124
      2 C         -24.9730   -2.5050   29.7880 C.2     1  UNL1       -0.0030
      3 C         -23.9060   -3.1730   29.1460 C.2     1  UNL1       -0.0026
      4 C         -23.9890   -4.5490   28.8530 C.2     1  UNL1       -0.0003
      5 C         -25.1370   -5.2800   29.2050 C.2     1  UNL1       -0.0000
      6 C         -26.2320   -4.6110   29.7840 C.2     1  UNL1       -0.0003
      7 C         -26.1550   -3.2320   30.0650 C.2     1  UNL1       -0.0026
      8 C         -25.3870   -0.6790   31.5710 C.3     1  UNL1        0.0951
      9 C         -25.1890    0.7730   32.0280 C.3     1  UNL1        0.0209
     10 C         -25.3360    0.6840   33.5440 C.3     1  UNL1        0.0203
     11 C         -24.8290   -0.7150   33.9050 C.3     1  UNL1        0.0888
     12 N         -24.7580   -1.4810   32.6460 N.3     1  UNL1       -0.2174
     13 C         -25.6880    1.6140   26.4610 C.3     1  UNL1        0.0849
     14 C         -26.2500    2.9200   26.3950 C.2     1  UNL1        0.0557
     15 C         -25.6420    4.0930   27.1230 C.2     1  UNL1        0.2625
     16 N         -25.6140    5.2520   26.4490 N.am    1  UNL1       -0.2000
     17 C         -25.0260    6.4790   26.9630 C.3     1  UNL1        0.1388
     18 O         -25.1430    3.9660   28.2430 O.2     1  UNL1       -0.2687
     19 C         -27.4380    3.0910   25.6450 C.2     1  UNL1        0.1022
     20 N         -28.0750    2.0890   25.0030 N.2     1  UNL1       -0.2119
     21 C         -27.5430    0.8490   25.0790 C.2     1  UNL1        0.2341
     22 O         -28.1930   -0.2080   24.4770 O.2     1  UNL1       -0.4585
     23 C         -29.4600    0.0050   23.8660 C.3     1  UNL1        0.2423
     24 C         -30.0650   -1.3770   23.5730 C.3     1  UNL1        0.2292
     25 O         -30.7290   -1.8780   24.7210 O.3     1  UNL1       -0.2162
     26 C         -26.3540    0.5760   25.7770 C.3     1  UNL1        0.2409
     27 F         -25.8600   -0.6810   25.7950 F       1  UNL1       -0.2269
     28 C         -22.0882    1.5905   27.3978 C.2     1  UNL1        0.1733
     29 F         -19.8950    1.9355   28.1921 F       1  UNL1       -0.2010
     30 N         -27.1700    1.0593   29.1672 N.3     1  UNL1       -0.2515
     31 C         -29.6649    1.2552   28.1494 C.2     1  UNL1       -0.0279
     32 C         -23.4017    1.1135   27.7225 C.2     1  UNL1        0.0388
     33 C         -28.8406    0.0190   27.7716 C.2     1  UNL1       -0.0133
     34 O         -23.5301    2.3067   24.5312 O.2     1  UNL1       -0.2493
     35 C         -27.9627    2.2421   29.7802 C.3     1  UNL1        0.0786
     36 C         -21.0431    1.3141   28.2419 C.2     1  UNL1        0.1743
     37 C         -22.5215   -0.1183   29.5314 C.2     1  UNL1        0.0168
     38 C         -24.2305    1.6295   26.6943 C.3     1  UNL1        0.1332
     39 C         -29.3976    2.1173   29.3618 C.3     1  UNL1        0.0431
     40 C         -21.2619    0.3203   29.2213 C.2     1  UNL1        0.0340
     41 O         -22.0288    2.2758   26.2649 O.3     1  UNL1       -0.4218
     42 C         -27.5953   -0.2616   28.6237 C.3     1  UNL1        0.0998
     43 N         -24.9227    0.0763   29.2191 N.pl3   1  UNL1       -0.2904
     44 C         -25.8195    1.1423   29.3413 C.3     1  UNL1        0.1693
     45 C         -23.6203    0.3802   28.8060 C.2     1  UNL1        0.0486
     46 C         -23.3208    2.1613   25.8357 C.2     1  UNL1        0.3257
@<TRIPOS>BOND
     1     1    43    1
     2     2     7    1
     3     2     1    1
     4     3     2    2
     5     4     3    1
     6     4     5    2
     7     5     6    1
     8     6     7    2
     9     8     1    1
    10     8     9    1
    11     8    12    1
    12     9    10    1
    13    10    11    1
    14    12    11    1
    15    13    14    1
    16    13    38    1
    17    14    15    1
    18    15    18    2
    19    16    17    1
    20    16    15    1
    21    19    14    2
    22    20    21    2
    23    20    19    1
    24    21    26    1
    25    22    21    1
    26    23    22    1
    27    24    23    1
    28    24    25    1
    29    26    27    1
    30    26    13    1
    31    28    32    2
    32    28    36    1
    33    29    36    1
    34    30    44    1
    35    30    35    1
    36    31    39    1
    37    32    45    1
    38    33    31    2
    39    33    42    1
    40    34    46    2
    41    36    40    2
    42    38    46    1
    43    38    32    1
    44    39    35    1
    45    40    37    1
    46    41    28    1
    47    42    30    1
    48    43    44    1
    49    45    43    1
    50    45    37    2
    51    46    41    1
