@<TRIPOS>MOLECULE
outputs/IAG933/test6/raw/output_1491_IAG933_linker_design_.xyz
 43 47 0 0 0
SMALL
GASTEIGER

@<TRIPOS>ATOM
      1 C         -24.8550   -1.0120   30.1430 C.3     1  UNL1        0.0572
      2 C         -24.9730   -2.5050   29.7880 C.2     1  UNL1       -0.0195
      3 C         -23.9060   -3.1730   29.1460 C.2     1  UNL1       -0.0042
      4 C         -23.9890   -4.5490   28.8530 C.2     1  UNL1       -0.0003
      5 C         -25.1370   -5.2800   29.2050 C.2     1  UNL1       -0.0000
      6 C         -26.2320   -4.6110   29.7840 C.2     1  UNL1       -0.0003
      7 C         -26.1550   -3.2320   30.0650 C.2     1  UNL1       -0.0042
      8 C         -25.3870   -0.6790   31.5710 C.3     1  UNL1        0.0784
      9 C         -25.1890    0.7730   32.0280 C.3     1  UNL1        0.0192
     10 C         -25.3360    0.6840   33.5440 C.3     1  UNL1        0.0202
     11 C         -24.8290   -0.7150   33.9050 C.3     1  UNL1        0.0887
     12 N         -24.7580   -1.4810   32.6460 N.3     1  UNL1       -0.2191
     13 C         -25.6880    1.6140   26.4610 C.2     1  UNL1        0.0410
     14 C         -26.2500    2.9200   26.3950 C.2     1  UNL1        0.0766
     15 C         -25.6420    4.0930   27.1230 C.2     1  UNL1        0.2664
     16 N         -25.6140    5.2520   26.4490 N.am    1  UNL1       -0.1997
     17 C         -25.0260    6.4790   26.9630 C.3     1  UNL1        0.1388
     18 O         -25.1430    3.9660   28.2430 O.2     1  UNL1       -0.2683
     19 C         -27.4380    3.0910   25.6450 C.2     1  UNL1        0.1067
     20 N         -28.0750    2.0890   25.0030 N.2     1  UNL1       -0.2081
     21 C         -27.5430    0.8490   25.0790 C.2     1  UNL1        0.2533
     22 O         -28.1930   -0.2080   24.4770 O.2     1  UNL1       -0.4558
     23 C         -29.4600    0.0050   23.8660 C.3     1  UNL1        0.2426
     24 C         -30.0650   -1.3770   23.5730 C.3     1  UNL1        0.2292
     25 O         -30.7290   -1.8780   24.7210 O.3     1  UNL1       -0.2162
     26 C         -26.3540    0.5760   25.7770 C.2     1  UNL1        0.1931
     27 F         -25.8600   -0.6810   25.7950 F       1  UNL1       -0.1992
     28 C         -28.6321   -1.0328   28.1712 C.3     1  UNL1        0.1595
     29 C         -25.3692   -0.0621   28.9999 C.3     1  UNL1        0.0880
     30 C         -23.2972    1.8322   26.2292 C.2     1  UNL1        0.1978
     31 C         -24.2231    0.5313   28.1540 C.2     1  UNL1        0.0255
     32 C         -24.4367    1.3102   26.9648 C.2     1  UNL1        0.0411
     33 N         -26.8999    0.4934   29.1417 N.3     1  UNL1       -0.2657
     34 C         -22.0389    1.7326   26.7379 C.2     1  UNL1        0.0739
     35 F         -22.4376   -0.5219   29.4990 F       1  UNL1       -0.2021
     36 C         -28.2670    1.1576   29.8643 C.3     1  UNL1        0.1048
     37 C         -21.8375    0.9878   27.8728 C.2     1  UNL1        0.1703
     38 C         -27.3695   -0.5155   28.4129 C.3     1  UNL1        0.1048
     39 C         -22.8764    0.3312   28.5232 C.2     1  UNL1        0.1648
     40 F         -20.5795    0.9510   28.3423 F       1  UNL1       -0.2017
     41 C         -29.4891    1.2510   28.8248 C.3     1  UNL1        0.1595
     42 O         -23.4680    2.3333   25.0238 O.2     1  UNL1       -0.2865
     43 O         -29.7413   -0.0700   28.0633 O.3     1  UNL1       -0.3508
@<TRIPOS>BOND
     1     1    29    1
     2     2     7    1
     3     2     1    1
     4     3     2    2
     5     4     3    1
     6     4     5    2
     7     5     6    1
     8     6     7    2
     9     8     1    1
    10     8     9    1
    11     8    12    1
    12     9    10    1
    13    10    11    1
    14    12    11    1
    15    13    32    1
    16    14    13    1
    17    14    15    1
    18    15    18    2
    19    16    17    1
    20    16    15    1
    21    19    14    2
    22    20    21    2
    23    20    19    1
    24    21    26    1
    25    22    21    1
    26    23    22    1
    27    24    23    1
    28    24    25    1
    29    26    27    1
    30    26    13    2
    31    28    38    1
    32    29    31    1
    33    29    33    1
    34    30    34    2
    35    30    32    1
    36    31    39    1
    37    32    31    2
    38    33    36    1
    39    34    37    1
    40    37    40    1
    41    37    39    2
    42    38    33    1
    43    39    35    1
    44    41    36    1
    45    42    30    1
    46    43    28    1
    47    43    41    1
