@<TRIPOS>MOLECULE
outputs/IAG933/test6/raw/output_1492_IAG933_linker_design_.xyz
 48 53 0 0 0
SMALL
GASTEIGER

@<TRIPOS>ATOM
      1 C         -24.8550   -1.0120   30.1430 C.3     1  UNL1        0.0777
      2 C         -24.9730   -2.5050   29.7880 C.2     1  UNL1       -0.0156
      3 C         -23.9060   -3.1730   29.1460 C.2     1  UNL1       -0.0039
      4 C         -23.9890   -4.5490   28.8530 C.2     1  UNL1       -0.0003
      5 C         -25.1370   -5.2800   29.2050 C.2     1  UNL1       -0.0000
      6 C         -26.2320   -4.6110   29.7840 C.2     1  UNL1       -0.0003
      7 C         -26.1550   -3.2320   30.0650 C.2     1  UNL1       -0.0039
      8 C         -25.3870   -0.6790   31.5710 C.3     1  UNL1        0.0823
      9 C         -25.1890    0.7730   32.0280 C.3     1  UNL1        0.0196
     10 C         -25.3360    0.6840   33.5440 C.3     1  UNL1        0.0203
     11 C         -24.8290   -0.7150   33.9050 C.3     1  UNL1        0.0887
     12 N         -24.7580   -1.4810   32.6460 N.3     1  UNL1       -0.2187
     13 C         -25.6880    1.6140   26.4610 C.3     1  UNL1        0.0904
     14 C         -26.2500    2.9200   26.3950 C.2     1  UNL1        0.0586
     15 C         -25.6420    4.0930   27.1230 C.2     1  UNL1        0.2627
     16 N         -25.6140    5.2520   26.4490 N.am    1  UNL1       -0.2000
     17 C         -25.0260    6.4790   26.9630 C.3     1  UNL1        0.1388
     18 O         -25.1430    3.9660   28.2430 O.2     1  UNL1       -0.2686
     19 C         -27.4380    3.0910   25.6450 C.2     1  UNL1        0.1025
     20 N         -28.0750    2.0890   25.0030 N.2     1  UNL1       -0.2118
     21 C         -27.5430    0.8490   25.0790 C.2     1  UNL1        0.2344
     22 O         -28.1930   -0.2080   24.4770 O.2     1  UNL1       -0.4585
     23 C         -29.4600    0.0050   23.8660 C.3     1  UNL1        0.2423
     24 C         -30.0650   -1.3770   23.5730 C.3     1  UNL1        0.2292
     25 O         -30.7290   -1.8780   24.7210 O.3     1  UNL1       -0.2162
     26 C         -26.3540    0.5760   25.7770 C.3     1  UNL1        0.2437
     27 F         -25.8600   -0.6810   25.7950 F       1  UNL1       -0.2265
     28 C         -22.9944    1.7874   24.8082 C.3     1  UNL1        0.1746
     29 O         -28.7970    2.2837   29.7982 O.3     1  UNL1       -0.3522
     30 C         -24.8008    1.2436   27.5276 C.2     1  UNL1       -0.0108
     31 C         -25.2904    5.9899   31.0024 C.3     1  UNL1        0.1093
     32 C         -25.3355    4.9298   31.8216 C.3     1  UNL1        0.0393
     33 C         -21.8578    0.8165   28.9514 C.3     1  UNL1        0.2499
     34 C         -26.3366    4.1795   31.4444 C.3     1  UNL1        0.0917
     35 N         -22.9410    0.0233   29.5596 N.2     1  UNL1       -0.2453
     36 O         -22.8261    1.0248   26.0048 O.3     1  UNL1       -0.3469
     37 C         -28.1011    0.1377   29.0841 C.3     1  UNL1        0.0368
     38 C         -28.3288    4.6721   30.1358 C.3     1  UNL1        0.1220
     39 C         -29.2027    1.1927   29.0094 C.3     1  UNL1        0.1426
     40 N         -26.3217    5.9301   30.1664 N.3     1  UNL1       -0.1467
     41 C         -21.9334    1.4521   28.0018 C.3     1  UNL1        0.1987
     42 N         -27.0441    4.8866   30.5595 N.3     1  UNL1       -0.2013
     43 C         -23.2858    1.3877   27.2470 C.3     1  UNL1        0.1653
     44 O         -20.9465    0.8620   27.9868 O.3     1  UNL1       -0.3276
     45 C         -25.3368    0.5483   28.4345 C.2     1  UNL1       -0.0137
     46 C         -28.7477    3.5644   29.1619 C.3     1  UNL1        0.1609
     47 C         -26.9826    0.0945   28.5888 C.3     1  UNL1        0.0296
     48 C         -24.3480   -0.0048   29.3274 C.2     1  UNL1        0.0569
@<TRIPOS>BOND
     1     1    48    1
     2     2     7    1
     3     2     1    1
     4     3     2    2
     5     4     3    1
     6     4     5    2
     7     5     6    1
     8     6     7    2
     9     8     1    1
    10     8     9    1
    11     8    12    1
    12     9    10    1
    13    10    11    1
    14    12    11    1
    15    13    30    1
    16    14    13    1
    17    14    15    1
    18    15    18    2
    19    16    17    1
    20    16    15    1
    21    19    14    2
    22    20    21    2
    23    20    19    1
    24    21    26    1
    25    22    21    1
    26    23    22    1
    27    24    23    1
    28    24    25    1
    29    26    27    1
    30    26    13    1
    31    28    36    1
    32    30    45    2
    33    31    32    1
    34    33    44    1
    35    33    35    1
    36    34    32    1
    37    38    42    1
    38    39    37    1
    39    39    29    1
    40    40    42    1
    41    40    31    1
    42    41    44    1
    43    41    33    1
    44    42    34    1
    45    43    36    1
    46    43    30    1
    47    43    41    1
    48    45    47    1
    49    45    48    1
    50    46    29    1
    51    46    38    1
    52    47    37    1
    53    48    35    2
