@<TRIPOS>MOLECULE
outputs/IAG933/test6/raw/output_1494_IAG933_linker_design_.xyz
 43 46 0 0 0
SMALL
GASTEIGER

@<TRIPOS>ATOM
      1 C         -24.8550   -1.0120   30.1430 C.3     1  UNL1        0.0619
      2 C         -24.9730   -2.5050   29.7880 C.2     1  UNL1       -0.0194
      3 C         -23.9060   -3.1730   29.1460 C.2     1  UNL1       -0.0042
      4 C         -23.9890   -4.5490   28.8530 C.2     1  UNL1       -0.0003
      5 C         -25.1370   -5.2800   29.2050 C.2     1  UNL1       -0.0000
      6 C         -26.2320   -4.6110   29.7840 C.2     1  UNL1       -0.0003
      7 C         -26.1550   -3.2320   30.0650 C.2     1  UNL1       -0.0042
      8 C         -25.3870   -0.6790   31.5710 C.3     1  UNL1        0.0786
      9 C         -25.1890    0.7730   32.0280 C.3     1  UNL1        0.0193
     10 C         -25.3360    0.6840   33.5440 C.3     1  UNL1        0.0202
     11 C         -24.8290   -0.7150   33.9050 C.3     1  UNL1        0.0887
     12 N         -24.7580   -1.4810   32.6460 N.3     1  UNL1       -0.2191
     13 C         -25.6880    1.6140   26.4610 C.2     1  UNL1        0.1762
     14 C         -26.2500    2.9200   26.3950 C.2     1  UNL1        0.1105
     15 C         -25.6420    4.0930   27.1230 C.2     1  UNL1        0.2694
     16 N         -25.6140    5.2520   26.4490 N.am    1  UNL1       -0.1996
     17 C         -25.0260    6.4790   26.9630 C.3     1  UNL1        0.1388
     18 O         -25.1430    3.9660   28.2430 O.2     1  UNL1       -0.2682
     19 C         -27.4380    3.0910   25.6450 C.2     1  UNL1        0.1098
     20 N         -28.0750    2.0890   25.0030 N.2     1  UNL1       -0.2079
     21 C         -27.5430    0.8490   25.0790 C.2     1  UNL1        0.2564
     22 O         -28.1930   -0.2080   24.4770 O.2     1  UNL1       -0.4558
     23 C         -29.4600    0.0050   23.8660 C.3     1  UNL1        0.2426
     24 C         -30.0650   -1.3770   23.5730 C.3     1  UNL1        0.2292
     25 O         -30.7290   -1.8780   24.7210 O.3     1  UNL1       -0.2162
     26 C         -26.3540    0.5760   25.7770 C.2     1  UNL1        0.2267
     27 F         -25.8600   -0.6810   25.7950 F       1  UNL1       -0.1960
     28 C         -24.2047    0.3944   28.0253 C.3     1  UNL1        0.1861
     29 C         -22.8931    0.7361   28.7982 C.3     1  UNL1        0.0454
     30 C         -21.5868    0.7527   28.0193 C.3     1  UNL1        0.0038
     31 O         -24.5525    1.5598   27.1958 O.2     1  UNL1       -0.4748
     32 C         -21.4402    1.8208   26.9718 C.3     1  UNL1        0.0001
     33 C         -31.8485    1.2691   31.5211 C.3     1  UNL1        0.0174
     34 C         -30.6128    0.4124   31.2429 C.3     1  UNL1        0.0725
     35 O         -28.5904   -0.5573   28.5518 O.2     1  UNL1       -0.2718
     36 C         -31.7944    2.6625   30.8668 C.3     1  UNL1        0.0029
     37 C         -29.2840    2.3753   30.5540 C.3     1  UNL1        0.0725
     38 C         -30.6296    2.7209   29.8509 C.3     1  UNL1        0.0174
     39 C         -25.3766   -0.2516   28.8293 C.3     1  UNL1        0.1404
     40 N         -29.3487    1.0684   31.2595 N.3     1  UNL1       -0.2650
     41 C         -27.8178    0.0318   29.3127 C.2     1  UNL1        0.2578
     42 C         -28.2342    0.0486   30.8060 C.3     1  UNL1        0.1602
     43 N         -26.6301    0.6089   28.9615 N.am    1  UNL1       -0.2019
@<TRIPOS>BOND
     1     1    39    1
     2     2     7    1
     3     2     1    1
     4     3     2    2
     5     4     3    1
     6     4     5    2
     7     5     6    1
     8     6     7    2
     9     8     1    1
    10     8     9    1
    11     8    12    1
    12     9    10    1
    13    10    11    1
    14    12    11    1
    15    13    31    1
    16    14    13    1
    17    14    15    1
    18    15    18    2
    19    16    17    1
    20    16    15    1
    21    19    14    2
    22    20    21    2
    23    20    19    1
    24    21    26    1
    25    22    21    1
    26    23    22    1
    27    24    23    1
    28    24    25    1
    29    26    27    1
    30    26    13    2
    31    28    29    1
    32    28    39    1
    33    30    29    1
    34    31    28    1
    35    32    30    1
    36    34    40    1
    37    34    33    1
    38    35    41    2
    39    36    33    1
    40    37    40    1
    41    38    37    1
    42    38    36    1
    43    39    43    1
    44    41    42    1
    45    42    40    1
    46    43    41    1
