@<TRIPOS>MOLECULE
outputs/IAG933/test6/raw/output_1495_IAG933_linker_design_.xyz
 41 44 0 0 0
SMALL
GASTEIGER

@<TRIPOS>ATOM
      1 C         -24.8550   -1.0120   30.1430 C.3     1  UNL1        0.1350
      2 C         -24.9730   -2.5050   29.7880 C.2     1  UNL1       -0.0012
      3 C         -23.9060   -3.1730   29.1460 C.2     1  UNL1       -0.0026
      4 C         -23.9890   -4.5490   28.8530 C.2     1  UNL1       -0.0003
      5 C         -25.1370   -5.2800   29.2050 C.2     1  UNL1       -0.0000
      6 C         -26.2320   -4.6110   29.7840 C.2     1  UNL1       -0.0003
      7 C         -26.1550   -3.2320   30.0650 C.2     1  UNL1       -0.0026
      8 C         -25.3870   -0.6790   31.5710 C.3     1  UNL1        0.1128
      9 C         -25.1890    0.7730   32.0280 C.3     1  UNL1        0.0923
     10 C         -25.3360    0.6840   33.5440 C.3     1  UNL1        0.0377
     11 C         -24.8290   -0.7150   33.9050 C.3     1  UNL1        0.0903
     12 N         -24.7580   -1.4810   32.6460 N.3     1  UNL1       -0.2159
     13 C         -25.6880    1.6140   26.4610 C.3     1  UNL1        0.0920
     14 C         -26.2500    2.9200   26.3950 C.2     1  UNL1        0.0587
     15 C         -25.6420    4.0930   27.1230 C.2     1  UNL1        0.2627
     16 N         -25.6140    5.2520   26.4490 N.am    1  UNL1       -0.2000
     17 C         -25.0260    6.4790   26.9630 C.3     1  UNL1        0.1388
     18 O         -25.1430    3.9660   28.2430 O.2     1  UNL1       -0.2686
     19 C         -27.4380    3.0910   25.6450 C.2     1  UNL1        0.1025
     20 N         -28.0750    2.0890   25.0030 N.2     1  UNL1       -0.2118
     21 C         -27.5430    0.8490   25.0790 C.2     1  UNL1        0.2344
     22 O         -28.1930   -0.2080   24.4770 O.2     1  UNL1       -0.4585
     23 C         -29.4600    0.0050   23.8660 C.3     1  UNL1        0.2423
     24 C         -30.0650   -1.3770   23.5730 C.3     1  UNL1        0.2292
     25 O         -30.7290   -1.8780   24.7210 O.3     1  UNL1       -0.2162
     26 C         -26.3540    0.5760   25.7770 C.3     1  UNL1        0.2438
     27 F         -25.8600   -0.6810   25.7950 F       1  UNL1       -0.2265
     28 C         -23.3807    1.3890   27.9697 C.2     1  UNL1        0.0541
     29 C         -23.5531    1.0682   29.5170 C.2     1  UNL1        0.2647
     30 C         -22.0242    1.4747   27.8101 C.2     1  UNL1        0.0441
     31 O         -23.2477    1.9110   30.3703 O.2     1  UNL1       -0.2684
     32 O         -26.8223    4.5827   30.7414 O.3     1  UNL1       -0.3496
     33 N         -23.8389   -0.1559   29.7726 N.am    1  UNL1       -0.1975
     34 N         -25.5403    2.0838   31.5633 N.3     1  UNL1       -0.2153
     35 C         -23.4700    1.9669   25.5790 C.3     1  UNL1        0.2285
     36 O         -22.1391    2.0960   25.5903 O.2     1  UNL1       -0.4679
     37 C         -25.6337    4.4164   31.5377 C.3     1  UNL1        0.1610
     38 C         -21.3900    1.8296   26.6645 C.2     1  UNL1        0.1728
     39 C         -25.8634    3.1906   32.4066 C.3     1  UNL1        0.1207
     40 C         -27.6764    3.4669   30.4186 C.3     1  UNL1        0.1742
     41 C         -24.2121    1.6264   26.7279 C.2     1  UNL1        0.0106
@<TRIPOS>BOND
     1     1    33    1
     2     2     7    1
     3     2     1    1
     4     3     2    2
     5     4     3    1
     6     4     5    2
     7     5     6    1
     8     6     7    2
     9     8     1    1
    10     8     9    1
    11     8    12    1
    12     9    34    1
    13     9    10    1
    14    10    11    1
    15    12    11    1
    16    13    41    1
    17    14    13    1
    18    14    15    1
    19    15    18    2
    20    16    17    1
    21    16    15    1
    22    19    14    2
    23    20    21    2
    24    20    19    1
    25    21    26    1
    26    22    21    1
    27    23    22    1
    28    24    23    1
    29    24    25    1
    30    26    27    1
    31    26    13    1
    32    28    29    1
    33    29    33    1
    34    29    31    2
    35    30    28    1
    36    32    37    1
    37    34    39    1
    38    35    36    1
    39    35    41    1
    40    36    38    1
    41    37    39    1
    42    38    30    2
    43    40    32    1
    44    41    28    2
