@<TRIPOS>MOLECULE
No_1497-gen_results/8p0m/2024-11-27-11-27-31/
 16 18 0 0 0
SMALL
GASTEIGER

@<TRIPOS>ATOM
      1 C         -28.0162   -0.8135   28.8779 C.3     1  UNL1        0.0260
      2 C         -27.0636   -0.1189   28.6079 C.ar    1  UNL1       -0.0260
      3 C         -27.0010    0.6913   27.4910 C.ar    1  UNL1       -0.0023
      4 C         -25.8548    1.4825   27.0830 C.ar    1  UNL1        0.0293
      5 C         -24.6901    1.4526   27.8807 C.ar    1  UNL1        0.1398
      6 C         -24.7379    0.6010   29.0416 C.ar    1  UNL1        0.0251
      7 C         -25.8234   -0.1688   29.3887 C.ar    1  UNL1       -0.0239
      8 C         -28.7350   -0.4637   30.1419 C.3     1  UNL1        0.0044
      9 C         -29.8111   -1.3049   30.6007 C.3     1  UNL1        0.0003
     10 F         -23.6598    2.1375   27.5843 F       1  UNL1       -0.2042
     11 C         -30.9016   -1.0668   30.6484 C.3     1  UNL1        0.0000
     12 C         -31.3449    0.2688   30.2711 C.3     1  UNL1        0.0000
     13 C         -30.4153    1.2783   30.2295 C.3     1  UNL1        0.0000
     14 C         -29.3738    0.9136   29.9245 C.3     1  UNL1        0.0003
     15 C         -27.7218   -0.2854   31.3474 C.3     1  UNL1        0.0050
     16 C         -26.3564    0.2352   30.9120 C.3     1  UNL1        0.0261
@<TRIPOS>BOND
     1     1     2    1
     2     1     8    1
     3     8     9    1
     4     5    10    1
     5    11    12    1
     6     8    14    1
     7    13    14    1
     8     8    15    1
     9     7    16    1
    10    15    16    1
    11     9    11    1
    12    12    13    1
    13     2     3   ar
    14     3     4   ar
    15     4     5   ar
    16     5     6   ar
    17     6     7   ar
    18     7     2   ar
