@<TRIPOS>MOLECULE
outputs/IAG933/test6/raw/output_1498_IAG933_linker_design_.xyz
 45 49 0 0 0
SMALL
GASTEIGER

@<TRIPOS>ATOM
      1 C         -24.8550   -1.0120   30.1430 C.3     1  UNL1        0.0778
      2 C         -24.9730   -2.5050   29.7880 C.2     1  UNL1       -0.0156
      3 C         -23.9060   -3.1730   29.1460 C.2     1  UNL1       -0.0039
      4 C         -23.9890   -4.5490   28.8530 C.2     1  UNL1       -0.0003
      5 C         -25.1370   -5.2800   29.2050 C.2     1  UNL1       -0.0000
      6 C         -26.2320   -4.6110   29.7840 C.2     1  UNL1       -0.0003
      7 C         -26.1550   -3.2320   30.0650 C.2     1  UNL1       -0.0039
      8 C         -25.3870   -0.6790   31.5710 C.3     1  UNL1        0.0824
      9 C         -25.1890    0.7730   32.0280 C.3     1  UNL1        0.0196
     10 C         -25.3360    0.6840   33.5440 C.3     1  UNL1        0.0203
     11 C         -24.8290   -0.7150   33.9050 C.3     1  UNL1        0.0887
     12 N         -24.7580   -1.4810   32.6460 N.3     1  UNL1       -0.2187
     13 C         -25.6880    1.6140   26.4610 C.3     1  UNL1        0.1085
     14 C         -26.2500    2.9200   26.3950 C.2     1  UNL1        0.0604
     15 C         -25.6420    4.0930   27.1230 C.2     1  UNL1        0.2628
     16 N         -25.6140    5.2520   26.4490 N.am    1  UNL1       -0.2000
     17 C         -25.0260    6.4790   26.9630 C.3     1  UNL1        0.1388
     18 O         -25.1430    3.9660   28.2430 O.2     1  UNL1       -0.2686
     19 C         -27.4380    3.0910   25.6450 C.2     1  UNL1        0.1025
     20 N         -28.0750    2.0890   25.0030 N.2     1  UNL1       -0.2118
     21 C         -27.5430    0.8490   25.0790 C.2     1  UNL1        0.2345
     22 O         -28.1930   -0.2080   24.4770 O.2     1  UNL1       -0.4585
     23 C         -29.4600    0.0050   23.8660 C.3     1  UNL1        0.2423
     24 C         -30.0650   -1.3770   23.5730 C.3     1  UNL1        0.2292
     25 O         -30.7290   -1.8780   24.7210 O.3     1  UNL1       -0.2162
     26 C         -26.3540    0.5760   25.7770 C.3     1  UNL1        0.2455
     27 F         -25.8600   -0.6810   25.7950 F       1  UNL1       -0.2265
     28 C         -29.6131    3.6983   31.8596 C.2     1  UNL1       -0.0307
     29 C         -27.9299    2.7346   29.7633 C.3     1  UNL1        0.0371
     30 N         -25.5895    0.6468   28.4823 N.ar    1  UNL1       -0.3293
     31 C         -27.4891    1.3024   29.6882 C.3     1  UNL1        0.1747
     32 C         -23.2477    0.2609   28.7151 C.ar    1  UNL1        0.1075
     33 N         -22.0203   -0.1228   29.3474 N.pl3   1  UNL1       -0.1267
     34 O         -22.5564    2.3320   25.7402 O.2     1  UNL1       -0.2540
     35 C         -23.3684    1.0602   27.5766 C.ar    1  UNL1        0.0976
     36 C         -30.1508    3.3008   30.4752 C.2     1  UNL1       -0.0306
     37 C         -27.2717    3.5346   30.9518 C.3     1  UNL1        0.0076
     38 O         -28.4709    0.2824   29.3895 O.3     1  UNL1       -0.2211
     39 C         -24.5358   -0.0235   29.1013 C.ar    1  UNL1        0.0590
     40 C         -24.7526    1.2376   27.4559 C.ar    1  UNL1        0.0507
     41 C         -28.1605    3.3867   32.2564 C.3     1  UNL1        0.0258
     42 C         -26.6300    0.8979   28.9824 C.3     1  UNL1        0.1382
     43 F         -21.1243    1.4478   27.2901 F       1  UNL1       -0.1585
     44 C         -22.4018    1.6592   26.7858 C.2     1  UNL1        0.3359
     45 C         -29.4171    2.5919   29.3588 C.3     1  UNL1        0.0283
@<TRIPOS>BOND
     1     1    39    1
     2     2     7    1
     3     2     1    1
     4     3     2    2
     5     4     3    1
     6     4     5    2
     7     5     6    1
     8     6     7    2
     9     8     1    1
    10     8     9    1
    11     8    12    1
    12     9    10    1
    13    10    11    1
    14    12    11    1
    15    13    40    1
    16    14    13    1
    17    14    15    1
    18    15    18    2
    19    16    17    1
    20    16    15    1
    21    19    14    2
    22    20    21    2
    23    20    19    1
    24    21    26    1
    25    22    21    1
    26    23    22    1
    27    24    23    1
    28    24    25    1
    29    26    27    1
    30    26    13    1
    31    28    41    1
    32    29    31    1
    33    29    37    1
    34    30    42    1
    35    30    39   ar
    36    31    38    1
    37    32    39   ar
    38    32    33    1
    39    34    44    2
    40    35    32   ar
    41    36    28    2
    42    37    41    1
    43    40    35   ar
    44    40    30   ar
    45    42    31    1
    46    44    43    1
    47    44    35    1
    48    45    29    1
    49    45    36    1
