@<TRIPOS>MOLECULE
outputs/IAG933/test6/raw/output_1499_IAG933_linker_design_.xyz
 45 48 0 0 0
SMALL
GASTEIGER

@<TRIPOS>ATOM
      1 C         -24.8550   -1.0120   30.1430 C.3     1  UNL1        0.0570
      2 C         -24.9730   -2.5050   29.7880 C.2     1  UNL1       -0.0195
      3 C         -23.9060   -3.1730   29.1460 C.2     1  UNL1       -0.0042
      4 C         -23.9890   -4.5490   28.8530 C.2     1  UNL1       -0.0003
      5 C         -25.1370   -5.2800   29.2050 C.2     1  UNL1       -0.0000
      6 C         -26.2320   -4.6110   29.7840 C.2     1  UNL1       -0.0003
      7 C         -26.1550   -3.2320   30.0650 C.2     1  UNL1       -0.0042
      8 C         -25.3870   -0.6790   31.5710 C.3     1  UNL1        0.0784
      9 C         -25.1890    0.7730   32.0280 C.3     1  UNL1        0.0192
     10 C         -25.3360    0.6840   33.5440 C.3     1  UNL1        0.0202
     11 C         -24.8290   -0.7150   33.9050 C.3     1  UNL1        0.0887
     12 N         -24.7580   -1.4810   32.6460 N.3     1  UNL1       -0.2191
     13 C         -25.6880    1.6140   26.4610 C.3     1  UNL1        0.1469
     14 C         -26.2500    2.9200   26.3950 C.2     1  UNL1        0.0636
     15 C         -25.6420    4.0930   27.1230 C.2     1  UNL1        0.2629
     16 N         -25.6140    5.2520   26.4490 N.am    1  UNL1       -0.2000
     17 C         -25.0260    6.4790   26.9630 C.3     1  UNL1        0.1388
     18 O         -25.1430    3.9660   28.2430 O.2     1  UNL1       -0.2686
     19 C         -27.4380    3.0910   25.6450 C.2     1  UNL1        0.1026
     20 N         -28.0750    2.0890   25.0030 N.2     1  UNL1       -0.2118
     21 C         -27.5430    0.8490   25.0790 C.2     1  UNL1        0.2346
     22 O         -28.1930   -0.2080   24.4770 O.2     1  UNL1       -0.4585
     23 C         -29.4600    0.0050   23.8660 C.3     1  UNL1        0.2423
     24 C         -30.0650   -1.3770   23.5730 C.3     1  UNL1        0.2292
     25 O         -30.7290   -1.8780   24.7210 O.3     1  UNL1       -0.2162
     26 C         -26.3540    0.5760   25.7770 C.3     1  UNL1        0.2486
     27 F         -25.8600   -0.6810   25.7950 F       1  UNL1       -0.2264
     28 C         -28.5423    1.8690   29.0732 C.3     1  UNL1        0.0199
     29 C         -27.7010    0.5836   28.9056 C.3     1  UNL1        0.0032
     30 C         -22.6792    0.5067   28.2176 C.2     1  UNL1        0.3157
     31 C         -26.1808    0.9627   29.1924 C.3     1  UNL1        0.0207
     32 C         -24.9094    0.0172   28.8941 C.3     1  UNL1        0.0888
     33 N         -29.7634    1.4804   31.1638 N.3     1  UNL1       -0.1659
     34 O         -23.5439    2.0145   25.9138 O.2     1  UNL1       -0.2740
     35 C         -24.2693    1.4508   26.7065 C.2     1  UNL1        0.2392
     36 O         -22.2950   -0.1072   29.3491 O.2     1  UNL1       -0.2563
     37 C         -32.1432   -0.2831   31.8252 C.3     1  UNL1        0.0016
     38 C         -29.6812    0.7235   32.4441 C.3     1  UNL1        0.1010
     39 C         -31.7720    1.6369   33.4201 C.3     1  UNL1        0.0357
     40 CL        -21.2289    1.3647   27.5077 Cl      1  UNL1       -0.0218
     41 C         -28.5731    2.1511   30.6061 C.3     1  UNL1        0.1010
     42 C         -31.5416    2.6913   32.3242 C.3     1  UNL1        0.1666
     43 N         -23.9384    0.7086   27.8643 N.am    1  UNL1       -0.2180
     44 O         -30.9096    2.2213   31.1321 O.3     1  UNL1       -0.2823
     45 C         -31.1708    0.3284   32.8892 C.3     1  UNL1        0.0210
@<TRIPOS>BOND
     1     1    32    1
     2     2     7    1
     3     2     1    1
     4     3     2    2
     5     4     3    1
     6     4     5    2
     7     5     6    1
     8     6     7    2
     9     8     1    1
    10     8     9    1
    11     8    12    1
    12     9    10    1
    13    10    11    1
    14    12    11    1
    15    13    35    1
    16    14    13    1
    17    14    15    1
    18    15    18    2
    19    16    17    1
    20    16    15    1
    21    19    14    2
    22    20    21    2
    23    20    19    1
    24    21    26    1
    25    22    21    1
    26    23    22    1
    27    24    23    1
    28    24    25    1
    29    26    27    1
    30    26    13    1
    31    28    41    1
    32    29    28    1
    33    29    31    1
    34    30    36    2
    35    32    31    1
    36    33    38    1
    37    34    35    2
    38    35    43   am
    39    38    45    1
    40    40    30    1
    41    41    33    1
    42    42    39    1
    43    43    30   am
    44    43    32    1
    45    44    33    1
    46    44    42    1
    47    45    37    1
    48    45    39    1
