@<TRIPOS>MOLECULE
outputs/IAG933/test6/raw/output_15_IAG933_linker_design_.xyz
 43 47 0 0 0
SMALL
GASTEIGER

@<TRIPOS>ATOM
      1 C         -24.8550   -1.0120   30.1430 C.3     1  UNL1        0.0586
      2 C         -24.9730   -2.5050   29.7880 C.2     1  UNL1       -0.0195
      3 C         -23.9060   -3.1730   29.1460 C.2     1  UNL1       -0.0042
      4 C         -23.9890   -4.5490   28.8530 C.2     1  UNL1       -0.0003
      5 C         -25.1370   -5.2800   29.2050 C.2     1  UNL1       -0.0000
      6 C         -26.2320   -4.6110   29.7840 C.2     1  UNL1       -0.0003
      7 C         -26.1550   -3.2320   30.0650 C.2     1  UNL1       -0.0042
      8 C         -25.3870   -0.6790   31.5710 C.3     1  UNL1        0.0798
      9 C         -25.1890    0.7730   32.0280 C.3     1  UNL1        0.0345
     10 C         -25.3360    0.6840   33.5440 C.3     1  UNL1        0.0216
     11 C         -24.8290   -0.7150   33.9050 C.3     1  UNL1        0.0887
     12 N         -24.7580   -1.4810   32.6460 N.3     1  UNL1       -0.2190
     13 C         -25.6880    1.6140   26.4610 C.2     1  UNL1        0.0357
     14 C         -26.2500    2.9200   26.3950 C.2     1  UNL1        0.0742
     15 C         -25.6420    4.0930   27.1230 C.2     1  UNL1        0.2662
     16 N         -25.6140    5.2520   26.4490 N.am    1  UNL1       -0.1997
     17 C         -25.0260    6.4790   26.9630 C.3     1  UNL1        0.1388
     18 O         -25.1430    3.9660   28.2430 O.2     1  UNL1       -0.2683
     19 C         -27.4380    3.0910   25.6450 C.2     1  UNL1        0.1065
     20 N         -28.0750    2.0890   25.0030 N.2     1  UNL1       -0.2081
     21 C         -27.5430    0.8490   25.0790 C.2     1  UNL1        0.2530
     22 O         -28.1930   -0.2080   24.4770 O.2     1  UNL1       -0.4558
     23 C         -29.4600    0.0050   23.8660 C.3     1  UNL1        0.2426
     24 C         -30.0650   -1.3770   23.5730 C.3     1  UNL1        0.2292
     25 O         -30.7290   -1.8780   24.7210 O.3     1  UNL1       -0.2162
     26 C         -26.3540    0.5760   25.7770 C.2     1  UNL1        0.1907
     27 F         -25.8600   -0.6810   25.7950 F       1  UNL1       -0.1995
     28 O         -26.2404    4.5583   31.7680 O.co2   1  UNL1       -0.2456
     29 C         -21.2952    0.8452   27.6154 C.2     1  UNL1        0.1903
     30 C         -24.4731    0.1353   29.1593 C.3     1  UNL1        0.1012
     31 C         -24.6286    1.3601   27.1587 C.3     1  UNL1        0.1204
     32 O         -20.8484    1.6154   26.6776 O.2     1  UNL1       -0.2897
     33 C         -25.0790    1.7780   30.8851 C.3     1  UNL1        0.0857
     34 N         -23.3739    1.4773   26.6802 N.pl3   1  UNL1       -0.2998
     35 C         -23.1913    2.1344   25.4085 C.3     1  UNL1        0.1125
     36 C         -22.5927    0.8763   27.5983 C.2     1  UNL1        0.0806
     37 C         -25.1073    4.2536   32.0780 C.2     1  UNL1        0.3663
     38 N         -24.7832    1.5759   29.4643 N.3     1  UNL1       -0.2154
     39 C         -22.0469   -0.4819   29.3635 C.2     1  UNL1       -0.0195
     40 O         -24.4423    4.8701   32.9185 O.co2   1  UNL1       -0.2456
     41 C         -24.4703    3.1674   31.3233 C.3     1  UNL1        0.1314
     42 C         -23.0229    0.1249   28.7022 C.2     1  UNL1        0.0062
     43 C         -20.8955   -0.0621   28.7470 C.3     1  UNL1        0.0962
@<TRIPOS>BOND
     1     1     2    1
     2     1     8    1
     3     2     7    1
     4     3     2    2
     5     4     3    1
     6     4     5    2
     7     5     6    1
     8     6     7    2
     9     8     9    1
    10     8    12    1
    11     9    10    1
    12    10    11    1
    13    12    11    1
    14    13    31    1
    15    14    13    1
    16    14    15    1
    17    15    18    2
    18    16    17    1
    19    16    15    1
    20    19    14    2
    21    20    21    2
    22    20    19    1
    23    21    26    1
    24    22    21    1
    25    23    22    1
    26    24    23    1
    27    24    25    1
    28    26    27    1
    29    26    13    2
    30    28    37   ar
    31    29    43    1
    32    30    42    1
    33    30    38    1
    34    30     1    1
    35    32    29    1
    36    33    41    1
    37    33     9    1
    38    34    31    1
    39    34    36    1
    40    35    34    1
    41    36    29    2
    42    36    42    1
    43    37    40   ar
    44    38    33    1
    45    41    37    1
    46    42    39    2
    47    43    39    1
