@<TRIPOS>MOLECULE
No_1501-gen_results/8p0m/2024-11-27-11-27-31/
 14 15 0 0 0
SMALL
GASTEIGER

@<TRIPOS>ATOM
      1 C         -28.0162   -0.8135   28.8779 C.3     1  UNL1        0.0885
      2 C         -28.4690   -0.7850   29.8287 C.3     1  UNL1        0.0466
      3 C         -26.5042   -0.7777   28.8766 C.2     1  UNL1        0.2295
      4 N         -25.8552   -1.6534   29.6136 N.am    1  UNL1       -0.2558
      5 C         -28.1381   -1.8885   30.9026 C.3     1  UNL1        0.1815
      6 C         -24.4999   -1.7721   29.7313 C.ar    1  UNL1        0.0539
      7 C         -26.6500   -2.4274   30.6196 C.3     1  UNL1        0.1333
      8 C         -23.7782   -0.6158   30.2709 C.ar    1  UNL1        0.0149
      9 C         -22.5709   -0.2769   29.7173 C.ar    1  UNL1        0.0013
     10 C         -23.8448   -2.0125   28.4124 C.ar    1  UNL1        0.0149
     11 C         -22.3571   -0.2641   28.7348 C.ar    1  UNL1        0.0001
     12 C         -22.8011   -1.3457   27.9354 C.ar    1  UNL1        0.0013
     13 O         -25.7926   -0.3327   27.9140 O.2     1  UNL1       -0.2745
     14 F         -28.7488   -2.3802   31.8238 F       1  UNL1       -0.2354
@<TRIPOS>BOND
     1     1     2    1
     2     1     3    1
     3     3     4   am
     4     2     5    1
     5     4     6    1
     6     4     7    1
     7     5     7    1
     8     3    13    2
     9     5    14    1
    10     6     8   ar
    11     8     9   ar
    12     9    11   ar
    13    11    12   ar
    14    12    10   ar
    15    10     6   ar
