@<TRIPOS>MOLECULE
No_1506-gen_results/8p0m/2024-11-27-11-27-31/
 22 25 0 0 0
SMALL
GASTEIGER

@<TRIPOS>ATOM
      1 C         -28.0162   -0.8135   28.8779 C.3     1  UNL1        0.0966
      2 C         -27.0636   -0.1189   28.6079 C.ar    1  UNL1        0.0109
      3 C         -26.9287    1.1713   29.0083 C.ar    1  UNL1        0.0679
      4 C         -25.7702    2.0341   28.6884 C.ar    1  UNL1        0.0174
      5 C         -24.7141    1.4431   27.9188 C.ar    1  UNL1        0.0448
      6 C         -24.8590    0.0783   27.5836 C.ar    1  UNL1        0.0009
      7 C         -25.9647   -0.6606   27.9164 C.ar    1  UNL1       -0.0015
      8 N         -29.1701   -0.2984   28.9471 N.pl3   1  UNL1       -0.3043
      9 C         -30.1841   -0.8920   29.7048 C.3     1  UNL1        0.0911
     10 C         -23.5181    2.1584   27.5785 C.3     1  UNL1        0.3410
     11 F         -23.3694    2.8211   26.7301 F       1  UNL1       -0.1933
     12 F         -22.3783    1.6739   28.2017 F       1  UNL1       -0.1933
     13 C         -29.8637   -2.0677   30.3646 C.3     1  UNL1        0.0215
     14 C         -28.6043   -2.6124   30.4119 C.3     1  UNL1        0.0038
     15 C         -27.6297   -1.9013   29.8350 C.3     1  UNL1        0.0244
     16 C         -29.5295    0.7941   28.1502 C.ar    1  UNL1        0.0635
     17 C         -30.6186    0.6146   27.2927 C.ar    1  UNL1        0.0158
     18 C         -30.6360    0.9901   26.2770 C.ar    1  UNL1        0.0014
     19 C         -29.8197    2.1366   25.7903 C.ar    1  UNL1        0.0014
     20 C         -28.7748    2.5008   26.6327 C.ar    1  UNL1        0.0178
     21 C         -28.5916    1.7662   27.7476 C.ar    1  UNL1        0.0837
     22 N         -27.5058    2.0225   28.5144 N.pl3   1  UNL1       -0.2115
@<TRIPOS>BOND
     1     1     2    1
     2     1     8    1
     3     8     9    1
     4     5    10    1
     5    10    11    1
     6    10    12    1
     7    13    14    1
     8     1    15    1
     9    14    15    1
    10     8    16    1
    11     3    22    1
    12    21    22    1
    13    13     9    1
    14     2     3   ar
    15     3     4   ar
    16     4     5   ar
    17     5     6   ar
    18     6     7   ar
    19     7     2   ar
    20    16    17   ar
    21    17    18   ar
    22    18    19   ar
    23    19    20   ar
    24    20    21   ar
    25    21    16   ar
