@<TRIPOS>MOLECULE
No_1508-gen_results/8p0m/2024-11-27-11-27-31/
 26 28 0 0 0
SMALL
GASTEIGER

@<TRIPOS>ATOM
      1 C         -28.0162   -0.8135   28.8779 C.ar    1  UNL1        0.0131
      2 C         -28.4690   -0.7850   29.8287 C.ar    1  UNL1        0.0765
      3 C         -26.5042   -0.7777   28.8766 C.ar    1  UNL1        0.0348
      4 C         -25.8103   -0.8531   30.1028 C.ar    1  UNL1        0.0062
      5 C         -27.9906   -0.8916   31.2257 C.ar    1  UNL1        0.0065
      6 C         -26.6042   -0.8676   31.2652 C.ar    1  UNL1        0.0007
      7 C         -24.3894   -0.8049   30.1638 C.ar    1  UNL1        0.0005
      8 C         -23.7660   -0.9500   31.0679 C.ar    1  UNL1        0.0000
      9 C         -24.4866   -1.0287   32.3849 C.ar    1  UNL1        0.0000
     10 C         -25.8375   -0.9259   32.4678 C.ar    1  UNL1        0.0000
     11 BR        -25.5066   -0.6828   27.2731 Br      1  UNL1       -0.0490
     12 C         -30.0990   -0.8539   29.8321 C.2     1  UNL1        0.3458
     13 O         -30.7836   -1.6550   30.2899 O.2     1  UNL1       -0.2445
     14 O         -30.6003    0.3381   29.4973 O.3     1  UNL1       -0.4179
     15 C         -31.6767    0.6232   29.1667 C.2     1  UNL1        0.1831
     16 C         -31.8408    1.8810   28.5332 C.2     1  UNL1        0.0408
     17 C         -30.9489    2.7936   28.6586 C.ar    1  UNL1        0.0028
     18 C         -30.9954    4.0588   28.0078 C.ar    1  UNL1        0.0001
     19 C         -29.9880    5.0979   28.1196 C.ar    1  UNL1       -0.0003
     20 C         -28.8134    4.8193   28.8393 C.ar    1  UNL1       -0.0039
     21 C         -28.7277    3.5455   29.4936 C.ar    1  UNL1       -0.0151
     22 C         -29.7206    2.6411   29.3802 C.ar    1  UNL1       -0.0037
     23 C         -27.4798    3.3108   30.2799 C.3     1  UNL1        0.0871
     24 C         -27.5690    2.7025   31.4633 C.3     1  UNL1        0.0130
     25 C         -26.2664    3.6796   29.6488 C.2     1  UNL1        0.2113
     26 O         -26.0864    4.0504   28.6123 O.2     1  UNL1       -0.2880
@<TRIPOS>BOND
     1     3    11    1
     2     2    12    1
     3    12    13    2
     4    12    14    1
     5    14    15    1
     6    15    16    2
     7    16    17    1
     8    21    23    1
     9    23    24    1
    10    23    25    1
    11    25    26    2
    12     6    10   ar
    13    10     9   ar
    14     9     8   ar
    15     8     7   ar
    16     7     4   ar
    17    17    18   ar
    18    18    19   ar
    19    19    20   ar
    20    20    21   ar
    21    21    22   ar
    22    22    17   ar
    23     1     2   ar
    24     2     5   ar
    25     5     6   ar
    26     6     4   ar
    27     4     3   ar
    28     3     1   ar
