@<TRIPOS>MOLECULE
No_1509-gen_results/8p0m/2024-11-27-11-27-31/
 17 17 0 0 0
SMALL
GASTEIGER

@<TRIPOS>ATOM
      1 C         -28.0162   -0.8135   28.8779 C.ar    1  UNL1       -0.0026
      2 C         -27.0636   -0.1190   28.6079 C.ar    1  UNL1        0.0036
      3 C         -25.7647   -0.3897   29.0360 C.ar    1  UNL1        0.0714
      4 C         -25.5296   -1.5302   29.9014 C.ar    1  UNL1        0.0036
      5 C         -26.6577   -2.2915   30.2035 C.ar    1  UNL1       -0.0026
      6 C         -27.8548   -1.9555   29.7630 C.ar    1  UNL1       -0.0007
      7 C         -24.5441    0.4126   28.7379 C.3     1  UNL1        0.4186
      8 F         -24.5303    0.9050   27.6108 F       1  UNL1       -0.1659
      9 F         -23.3835   -0.3814   28.8356 F       1  UNL1       -0.1659
     10 F         -24.3588    1.3927   29.6617 F       1  UNL1       -0.1659
     11 C         -29.0331   -2.7718   30.1948 C.3     1  UNL1        0.1386
     12 N         -29.3012   -2.8446   31.4545 N.pl3   1  UNL1       -0.2315
     13 C         -29.4887   -1.8919   32.1565 C.2     1  UNL1        0.0804
     14 C         -29.5377   -0.6473   31.7359 C.2     1  UNL1        0.0171
     15 C         -30.2994   -0.2706   30.8175 C.2     1  UNL1       -0.0032
     16 C         -30.4601    1.1136   30.4315 C.2     1  UNL1       -0.0257
     17 C         -29.6721    2.0650   31.1131 C.3     1  UNL1        0.0307
@<TRIPOS>BOND
     1     3     7    1
     2     7     8    1
     3     7     9    1
     4     7    10    1
     5     6    11    1
     6    11    12    1
     7    12    13    1
     8    13    14    2
     9    14    15    1
    10    15    16    2
    11    16    17    1
    12     1     2   ar
    13     2     3   ar
    14     3     4   ar
    15     4     5   ar
    16     5     6   ar
    17     6     1   ar
