@<TRIPOS>MOLECULE
No_1512-gen_results/8p0m/2024-11-27-11-27-31/
 14 15 0 0 0
SMALL
GASTEIGER

@<TRIPOS>ATOM
      1 C         -28.0162   -0.8135   28.8779 C.ar    1  UNL1        0.0045
      2 C         -28.4690   -0.7850   29.8287 C.ar    1  UNL1        0.0536
      3 C         -26.5042   -0.7777   28.8766 C.ar    1  UNL1        0.0001
      4 C         -25.8103   -0.8531   30.1028 C.ar    1  UNL1        0.0000
      5 C         -27.9906   -0.8916   31.2257 C.ar    1  UNL1        0.0045
      6 C         -26.6042   -0.8676   31.2652 C.ar    1  UNL1        0.0001
      7 C         -30.0773   -0.8857   30.0240 C.2     1  UNL1        0.2490
      8 O         -30.6406   -1.8993   30.1420 O.2     1  UNL1       -0.2699
      9 N         -30.7443    0.3043   29.7721 N.am    1  UNL1       -0.2761
     10 C         -32.1554    0.2895   29.7136 C.3     1  UNL1        0.0937
     11 C         -30.1255    1.1995   28.8267 C.3     1  UNL1        0.0937
     12 C         -30.9481    2.0914   28.2625 C.3     1  UNL1        0.0216
     13 C         -32.8639    1.4027   29.2804 C.3     1  UNL1        0.0216
     14 C         -32.2159    2.3289   28.5354 C.3     1  UNL1        0.0035
@<TRIPOS>BOND
     1     2     7    1
     2     7     8    2
     3     7     9   am
     4     9    10    1
     5     9    11    1
     6    12    14    1
     7    13    14    1
     8    10    13    1
     9    12    11    1
    10     1     2   ar
    11     2     5   ar
    12     5     6   ar
    13     6     4   ar
    14     4     3   ar
    15     3     1   ar
