@<TRIPOS>MOLECULE
No_1517-gen_results/8p0m/2024-11-27-11-27-31/
 31 34 0 0 0
SMALL
GASTEIGER

@<TRIPOS>ATOM
      1 C         -28.0162   -0.8135   28.8779 C.ar    1  UNL1        0.0000
      2 C         -28.4690   -0.7850   29.8287 C.ar    1  UNL1        0.0000
      3 C         -27.1356    0.2359   28.5352 C.ar    1  UNL1        0.0000
      4 C         -26.8745    1.2825   29.3982 C.ar    1  UNL1        0.0000
      5 C         -28.3613    0.1987   30.9244 C.ar    1  UNL1        0.0000
      6 C         -27.5277    1.2234   30.6356 C.ar    1  UNL1        0.0000
      7 C         -26.3987    0.2949   27.2279 C.ar    1  UNL1        0.0001
      8 C         -25.0392    0.2356   27.3538 C.ar    1  UNL1        0.0000
      9 C         -26.8420    1.2723   26.2572 C.ar    1  UNL1        0.0023
     10 C         -24.1353    0.9376   26.5875 C.ar    1  UNL1        0.0000
     11 C         -24.6369    1.7194   25.5290 C.ar    1  UNL1        0.0000
     12 C         -25.9592    1.8671   25.3831 C.ar    1  UNL1        0.0001
     13 C         -28.2664    1.3946   25.9246 C.ar    1  UNL1        0.0305
     14 C         -28.8627    1.8875   25.1771 C.ar    1  UNL1        0.0024
     15 C         -29.9400    2.0649   24.8532 C.ar    1  UNL1        0.0033
     16 C         -30.9913    1.5129   25.7255 C.ar    1  UNL1        0.0399
     17 C         -30.4712    0.7682   26.8189 C.ar    1  UNL1        0.1762
     18 C         -29.0916    0.6821   26.9877 C.ar    1  UNL1        0.1744
     19 F         -29.0239    1.0524   28.1208 F       1  UNL1       -0.2009
     20 O         -31.3795    0.1491   27.5993 O.3     1  UNL1       -0.4141
     21 C         -31.7332   -1.1445   27.3960 C.2     1  UNL1        0.4268
     22 C         -32.4672   -1.6745   28.5174 C.2     1  UNL1        0.4625
     23 O         -32.5299   -1.1090   29.5161 O.co2   1  UNL1       -0.2332
     24 O         -32.9935   -2.8209   28.3328 O.co2   1  UNL1       -0.2332
     25 O         -31.8857   -1.5045   26.2099 O.2     1  UNL1       -0.2370
     26 C         -24.4246   -0.6484   28.4120 C.ar    1  UNL1        0.0000
     27 C         -23.3387   -0.2995   29.2049 C.ar    1  UNL1        0.0000
     28 C         -22.7767   -1.2248   30.0327 C.ar    1  UNL1        0.0000
     29 C         -23.4946   -2.3671   30.3159 C.ar    1  UNL1        0.0000
     30 C         -24.8555   -1.9458   28.7916 C.ar    1  UNL1        0.0000
     31 C         -24.5025   -2.7968   29.5939 C.ar    1  UNL1        0.0000
@<TRIPOS>BOND
     1     3     7    1
     2     9    13    1
     3    18    19    1
     4    17    20    1
     5    20    21    1
     6    21    22    1
     7    22    23   ar
     8    22    24   ar
     9    21    25    2
    10     8    26    1
    11    26    27   ar
    12    27    28   ar
    13    28    29   ar
    14    29    31   ar
    15    31    30   ar
    16    30    26   ar
    17    13    14   ar
    18    14    15   ar
    19    15    16   ar
    20    16    17   ar
    21    17    18   ar
    22    18    13   ar
    23     1     2   ar
    24     2     5   ar
    25     5     6   ar
    26     6     4   ar
    27     4     3   ar
    28     3     1   ar
    29     7     8   ar
    30     8    10   ar
    31    10    11   ar
    32    11    12   ar
    33    12     9   ar
    34     9     7   ar
