@<TRIPOS>MOLECULE
No_1519-gen_results/8p0m/2024-11-27-11-27-31/
 17 18 0 0 0
SMALL
GASTEIGER

@<TRIPOS>ATOM
      1 C         -28.0162   -0.8135   28.8779 C.ar    1  UNL1       -0.0035
      2 C         -27.0636   -0.1190   28.6079 C.ar    1  UNL1       -0.0097
      3 C         -25.7923   -0.4302   29.0761 C.ar    1  UNL1       -0.0035
      4 C         -25.5756   -1.5654   29.9363 C.ar    1  UNL1       -0.0003
      5 C         -26.7354   -2.3004   30.2173 C.ar    1  UNL1       -0.0000
      6 C         -27.9184   -1.9537   29.7629 C.ar    1  UNL1       -0.0003
      7 C         -27.1057    1.1023   27.7593 C.3     1  UNL1        0.1226
      8 C         -26.7157    2.2350   27.9945 C.ar    1  UNL1       -0.0097
      9 C         -26.0688    2.4770   29.3567 C.ar    1  UNL1       -0.0035
     10 C         -26.2622    3.4491   30.0956 C.ar    1  UNL1       -0.0003
     11 C         -26.6042    4.7187   29.3954 C.ar    1  UNL1       -0.0000
     12 C         -27.0476    4.6411   28.1010 C.ar    1  UNL1       -0.0003
     13 C         -27.2102    3.4198   27.4436 C.ar    1  UNL1       -0.0035
     14 C         -27.5530    0.8062   26.3680 C.2     1  UNL1        0.2492
     15 N         -28.7514    0.9638   26.0417 N.am    1  UNL1       -0.2030
     16 O         -26.7052    0.6630   25.4724 O.2     1  UNL1       -0.2726
     17 C         -29.3238    0.7333   24.7760 C.3     1  UNL1        0.1385
@<TRIPOS>BOND
     1     2     7    1
     2     7    14    1
     3    14    15   am
     4    14    16    2
     5    15    17    1
     6     7     8    1
     7     1     2   ar
     8     2     3   ar
     9     3     4   ar
    10     4     5   ar
    11     5     6   ar
    12     6     1   ar
    13     8     9   ar
    14     9    10   ar
    15    10    11   ar
    16    11    12   ar
    17    12    13   ar
    18    13     8   ar
