@<TRIPOS>MOLECULE
outputs/IAG933/test6/raw/output_152_IAG933_linker_design_.xyz
 40 43 0 0 0
SMALL
GASTEIGER

@<TRIPOS>ATOM
      1 C         -24.8550   -1.0120   30.1430 C.3     1  UNL1        0.1538
      2 C         -24.9730   -2.5050   29.7880 C.2     1  UNL1        0.0059
      3 C         -23.9060   -3.1730   29.1460 C.2     1  UNL1       -0.0019
      4 C         -23.9890   -4.5490   28.8530 C.2     1  UNL1       -0.0002
      5 C         -25.1370   -5.2800   29.2050 C.2     1  UNL1       -0.0000
      6 C         -26.2320   -4.6110   29.7840 C.2     1  UNL1       -0.0002
      7 C         -26.1550   -3.2320   30.0650 C.2     1  UNL1       -0.0019
      8 C         -25.3870   -0.6790   31.5710 C.3     1  UNL1        0.1041
      9 C         -25.1890    0.7730   32.0280 C.3     1  UNL1        0.0217
     10 C         -25.3360    0.6840   33.5440 C.3     1  UNL1        0.0203
     11 C         -24.8290   -0.7150   33.9050 C.3     1  UNL1        0.0888
     12 N         -24.7580   -1.4810   32.6460 N.3     1  UNL1       -0.2166
     13 C         -25.6880    1.6140   26.4610 C.2     1  UNL1        0.0271
     14 C         -26.2500    2.9200   26.3950 C.2     1  UNL1        0.0731
     15 C         -25.6420    4.0930   27.1230 C.2     1  UNL1        0.2661
     16 N         -25.6140    5.2520   26.4490 N.am    1  UNL1       -0.1997
     17 C         -25.0260    6.4790   26.9630 C.3     1  UNL1        0.1388
     18 O         -25.1430    3.9660   28.2430 O.2     1  UNL1       -0.2683
     19 C         -27.4380    3.0910   25.6450 C.2     1  UNL1        0.1064
     20 N         -28.0750    2.0890   25.0030 N.2     1  UNL1       -0.2081
     21 C         -27.5430    0.8490   25.0790 C.2     1  UNL1        0.2530
     22 O         -28.1930   -0.2080   24.4770 O.2     1  UNL1       -0.4558
     23 C         -29.4600    0.0050   23.8660 C.3     1  UNL1        0.2426
     24 C         -30.0650   -1.3770   23.5730 C.3     1  UNL1        0.2292
     25 O         -30.7290   -1.8780   24.7210 O.3     1  UNL1       -0.2162
     26 C         -26.3540    0.5760   25.7770 C.2     1  UNL1        0.1897
     27 F         -25.8600   -0.6810   25.7950 F       1  UNL1       -0.1996
     28 N         -22.6557    1.4958   29.7588 N.am    1  UNL1       -0.1807
     29 F         -20.1781    1.6150   28.0602 F       1  UNL1       -0.2095
     30 C         -23.2809    1.9494   26.5327 C.2     1  UNL1        0.2503
     31 N         -21.9306    1.7356   26.8463 N.am    1  UNL1       -0.1697
     32 C         -22.2433    0.4207   28.7167 C.3     1  UNL1        0.2389
     33 C         -24.5385    1.4895   27.2310 C.3     1  UNL1        0.1390
     34 C         -23.9559    1.8987   29.7139 C.2     1  UNL1        0.2708
     35 O         -24.4330    2.6863   30.7595 O.2     1  UNL1       -0.2706
     36 C         -24.8159    1.0630   28.7624 C.3     1  UNL1        0.2055
     37 C         -21.3342    1.3446   27.8532 C.3     1  UNL1        0.2937
     38 O         -24.5839   -0.2631   29.1824 O.3     1  UNL1       -0.3428
     39 N         -21.9433   -0.4799   29.7276 N.3     1  UNL1       -0.1041
     40 O         -23.3290    2.7757   25.4378 O.2     1  UNL1       -0.2728
@<TRIPOS>BOND
     1     1    38    1
     2     2     7    1
     3     2     1    1
     4     3     2    2
     5     4     3    1
     6     4     5    2
     7     5     6    1
     8     6     7    2
     9     8     1    1
    10     8     9    1
    11     8    12    1
    12     9    10    1
    13    10    11    1
    14    12    11    1
    15    14    13    1
    16    14    15    1
    17    15    18    2
    18    16    17    1
    19    16    15    1
    20    19    14    2
    21    20    21    2
    22    20    19    1
    23    21    26    1
    24    22    21    1
    25    23    22    1
    26    24    23    1
    27    24    25    1
    28    26    27    1
    29    26    13    2
    30    30    31    1
    31    30    33    1
    32    31    37    1
    33    32    39    1
    34    32    28    1
    35    33    13    1
    36    33    36    1
    37    34    28    1
    38    34    35    2
    39    36    38    1
    40    36    34    1
    41    37    29    1
    42    37    32    1
    43    40    30    2
