@<TRIPOS>MOLECULE
No_1520-gen_results/8p0m/2024-11-27-11-27-31/
 18 19 0 0 0
SMALL
GASTEIGER

@<TRIPOS>ATOM
      1 C         -28.0162   -0.8135   28.8779 C.ar    1  UNL1        0.0399
      2 C         -27.0636   -0.1189   28.6079 C.ar    1  UNL1        0.0328
      3 C         -25.7647   -0.3897   29.0360 C.ar    1  UNL1        0.1403
      4 C         -25.5296   -1.5302   29.9014 C.ar    1  UNL1        0.0328
      5 C         -26.6888   -2.2893   30.1810 C.ar    1  UNL1        0.0399
      6 C         -27.8727   -1.9508   29.7373 C.ar    1  UNL1        0.1481
      7 O         -28.7636   -2.8289   30.2096 O.3     1  UNL1       -0.4279
      8 F         -24.6982    0.3798   28.7771 F       1  UNL1       -0.2042
      9 C         -29.4352   -2.5791   31.3390 C.2     1  UNL1        0.3116
     10 C         -29.7991   -3.6702   31.9889 C.2     1  UNL1        0.1849
     11 C         -29.7610   -4.9251   31.4217 C.3     1  UNL1        0.0846
     12 C         -30.8935   -5.3800   30.8207 C.2     1  UNL1       -0.0330
     13 C         -30.9247   -6.2395   29.8890 C.2     1  UNL1       -0.0081
     14 C         -32.1080   -6.7135   29.2988 C.2     1  UNL1       -0.0049
     15 C         -32.9551   -6.0892   29.4692 C.2     1  UNL1       -0.0218
     16 C         -32.3201   -4.9936   30.8290 C.3     1  UNL1        0.0484
     17 F         -29.4624   -1.4687   31.8523 F       1  UNL1       -0.1607
     18 F         -31.2044   -3.4971   32.3193 F       1  UNL1       -0.2028
@<TRIPOS>BOND
     1     6     7    1
     2     3     8    1
     3     7     9    1
     4     9    10    2
     5    10    11    1
     6    11    12    1
     7    12    13    2
     8    13    14    1
     9    14    15    2
    10    12    16    1
    11    15    16    1
    12     9    17    1
    13    10    18    1
    14     1     2   ar
    15     2     3   ar
    16     3     4   ar
    17     4     5   ar
    18     5     6   ar
    19     6     1   ar
