@<TRIPOS>MOLECULE
No_1521-gen_results/8p0m/2024-11-27-11-27-31/
 31 32 0 0 0
SMALL
GASTEIGER

@<TRIPOS>ATOM
      1 C         -28.0162   -0.8135   28.8779 C.ar    1  UNL1        0.0104
      2 C         -28.4690   -0.7850   29.8287 C.ar    1  UNL1        0.0797
      3 C         -27.0871    0.2903   28.6377 C.ar    1  UNL1        0.0716
      4 C         -26.2516    0.4114   27.4223 C.3     1  UNL1        0.4186
      5 C         -28.3913    0.1041   30.9805 C.ar    1  UNL1        0.0066
      6 C         -27.5332    1.1666   30.7866 C.ar    1  UNL1        0.0002
      7 C         -26.8281    1.2557   29.6454 C.ar    1  UNL1        0.0039
      8 F         -26.2894   -0.3208   26.7008 F       1  UNL1       -0.1659
      9 F         -26.4501    1.7036   26.8785 F       1  UNL1       -0.1659
     10 F         -24.8206    0.5393   27.7857 F       1  UNL1       -0.1659
     11 C         -29.4616   -2.0181   30.2134 C.2     1  UNL1        0.3877
     12 O         -29.0571   -3.1828   30.3946 O.co2   1  UNL1       -0.2406
     13 O         -30.6852   -1.7927   30.3630 O.co2   1  UNL1       -0.2406
     14 C         -27.3240    2.1925   31.8316 C.ar    1  UNL1        0.0004
     15 C         -26.5719    3.0554   31.7348 C.ar    1  UNL1        0.0064
     16 C         -26.3038    4.1538   32.7644 C.ar    1  UNL1        0.0759
     17 C         -27.0015    4.0384   33.9332 C.ar    1  UNL1        0.0130
     18 C         -27.8629    2.9808   34.0809 C.ar    1  UNL1        0.0800
     19 C         -28.0576    2.0491   33.0930 C.ar    1  UNL1        0.0066
     20 C         -25.2970    5.2120   32.5001 C.2     1  UNL1        0.3413
     21 O         -24.2072    5.0668   32.9109 O.2     1  UNL1       -0.2449
     22 O         -25.6864    6.2017   31.8415 O.3     1  UNL1       -0.4413
     23 C         -28.6018    2.8538   35.4007 C.2     1  UNL1        0.3878
     24 O         -28.2482    3.5838   36.3182 O.co2   1  UNL1       -0.2406
     25 O         -29.5587    1.9832   35.4606 O.co2   1  UNL1       -0.2406
     26 C         -24.8194    7.1061   31.3881 C.3     1  UNL1        0.2559
     27 C         -25.0379    7.5320   30.0122 C.3     1  UNL1        0.2536
     28 O         -25.3808    6.7529   29.1901 O.2     1  UNL1       -0.4593
     29 C         -25.9647    5.8830   29.0601 C.2     1  UNL1        0.2588
     30 C         -25.6968    4.8318   28.0265 C.1     1  UNL1        0.1748
     31 O         -24.6761    4.1907   28.0876 O.2     1  UNL1       -0.2278
@<TRIPOS>BOND
     1     3     4    1
     2     4     8    1
     3     4     9    1
     4     4    10    1
     5     2    11    1
     6    11    12   ar
     7    11    13   ar
     8     6    14    1
     9    16    20    1
    10    20    21    2
    11    20    22    1
    12    18    23    1
    13    23    24   ar
    14    23    25   ar
    15    22    26    1
    16    26    27    1
    17    27    28    1
    18    28    29    1
    19    29    30    2
    20    30    31    2
    21    14    15   ar
    22    15    16   ar
    23    16    17   ar
    24    17    18   ar
    25    18    19   ar
    26    19    14   ar
    27     1     2   ar
    28     2     5   ar
    29     5     6   ar
    30     6     7   ar
    31     7     3   ar
    32     3     1   ar
