@<TRIPOS>MOLECULE
outputs/IAG933/test6/raw/output_1522_IAG933_linker_design_.xyz
 45 49 0 0 0
SMALL
GASTEIGER

@<TRIPOS>ATOM
      1 C         -24.8550   -1.0120   30.1430 C.3     1  UNL1        0.0695
      2 C         -24.9730   -2.5050   29.7880 C.2     1  UNL1       -0.0185
      3 C         -23.9060   -3.1730   29.1460 C.2     1  UNL1       -0.0041
      4 C         -23.9890   -4.5490   28.8530 C.2     1  UNL1       -0.0003
      5 C         -25.1370   -5.2800   29.2050 C.2     1  UNL1       -0.0000
      6 C         -26.2320   -4.6110   29.7840 C.2     1  UNL1       -0.0003
      7 C         -26.1550   -3.2320   30.0650 C.2     1  UNL1       -0.0041
      8 C         -25.3870   -0.6790   31.5710 C.3     1  UNL1        0.0795
      9 C         -25.1890    0.7730   32.0280 C.3     1  UNL1        0.0193
     10 C         -25.3360    0.6840   33.5440 C.3     1  UNL1        0.0202
     11 C         -24.8290   -0.7150   33.9050 C.3     1  UNL1        0.0887
     12 N         -24.7580   -1.4810   32.6460 N.3     1  UNL1       -0.2190
     13 C         -25.6880    1.6140   26.4610 C.3     1  UNL1        0.0917
     14 C         -26.2500    2.9200   26.3950 C.2     1  UNL1        0.0587
     15 C         -25.6420    4.0930   27.1230 C.2     1  UNL1        0.2627
     16 N         -25.6140    5.2520   26.4490 N.am    1  UNL1       -0.2000
     17 C         -25.0260    6.4790   26.9630 C.3     1  UNL1        0.1388
     18 O         -25.1430    3.9660   28.2430 O.2     1  UNL1       -0.2686
     19 C         -27.4380    3.0910   25.6450 C.2     1  UNL1        0.1025
     20 N         -28.0750    2.0890   25.0030 N.2     1  UNL1       -0.2118
     21 C         -27.5430    0.8490   25.0790 C.2     1  UNL1        0.2344
     22 O         -28.1930   -0.2080   24.4770 O.2     1  UNL1       -0.4586
     23 C         -29.4600    0.0050   23.8660 C.3     1  UNL1        0.2388
     24 C         -30.0650   -1.3770   23.5730 C.3     1  UNL1        0.1893
     25 O         -30.7290   -1.8780   24.7210 O.3     1  UNL1       -0.3497
     26 C         -26.3540    0.5760   25.7770 C.3     1  UNL1        0.2438
     27 F         -25.8600   -0.6810   25.7950 F       1  UNL1       -0.2265
     28 C         -23.2291    1.6005   26.4862 C.3     1  UNL1        0.2479
     29 C         -25.1715    1.0102   27.8232 C.2     1  UNL1        0.0046
     30 C         -31.5180   -1.1377   26.9159 C.3     1  UNL1        0.0535
     31 O         -28.8972   -1.7728   29.6542 O.2     1  UNL1       -0.2721
     32 N         -23.1126    0.2218   28.5838 N.pl3   1  UNL1       -0.2091
     33 C         -25.4301   -0.1551   29.0361 C.3     1  UNL1        0.1409
     34 N         -30.0574   -0.0779   28.6013 N.am    1  UNL1       -0.2774
     35 O         -26.8790   -0.4168   29.0236 O.3     1  UNL1       -0.3423
     36 C         -31.0880    0.4766   30.7862 C.3     1  UNL1        0.0233
     37 C         -27.8834    0.4247   29.4477 C.3     1  UNL1        0.2273
     38 C         -30.3133   -0.1506   27.1539 C.3     1  UNL1        0.0961
     39 C         -23.8750    0.9533   27.6002 C.2     1  UNL1        0.0867
     40 C         -31.8730   -1.3124   25.4087 C.3     1  UNL1        0.1441
     41 C         -30.9837    0.9757   29.2991 C.3     1  UNL1        0.0935
     42 C         -21.8887    0.6927   28.7951 C.2     1  UNL1        0.1254
     43 C         -21.3720    1.6618   27.9176 C.2     1  UNL1        0.1905
     44 C         -29.0517   -0.6211   29.2765 C.2     1  UNL1        0.2559
     45 O         -21.9588    1.9372   26.7902 O.2     1  UNL1       -0.4648
@<TRIPOS>BOND
     1     1     2    1
     2     2     7    1
     3     3     2    2
     4     4     3    1
     5     4     5    2
     6     5     6    1
     7     6     7    2
     8     8     1    1
     9     8     9    1
    10     8    12    1
    11     9    10    1
    12    10    11    1
    13    12    11    1
    14    13    14    1
    15    13    29    1
    16    14    15    1
    17    15    18    2
    18    16    17    1
    19    16    15    1
    20    19    14    2
    21    20    21    2
    22    20    19    1
    23    21    26    1
    24    22    21    1
    25    23    22    1
    26    24    23    1
    27    24    25    1
    28    25    40    1
    29    26    27    1
    30    26    13    1
    31    28    45    1
    32    28    39    1
    33    29    33    1
    34    30    38    1
    35    32    42    1
    36    33     1    1
    37    34    44   am
    38    34    41    1
    39    35    33    1
    40    35    37    1
    41    38    34    1
    42    39    29    2
    43    39    32    1
    44    40    30    1
    45    41    36    1
    46    43    42    2
    47    44    37    1
    48    44    31    2
    49    45    43    1
