@<TRIPOS>MOLECULE
No_1528-gen_results/8p0m/2024-11-27-11-27-31/
 27 29 0 0 0
SMALL
GASTEIGER

@<TRIPOS>ATOM
      1 C         -28.0162   -0.8135   28.8779 C.ar    1  UNL1        0.0146
      2 C         -28.4690   -0.7850   29.8287 C.ar    1  UNL1        0.0810
      3 C         -27.0871    0.2903   28.6377 C.ar    1  UNL1       -0.0234
      4 C         -26.2516    0.4114   27.4223 C.3     1  UNL1        0.0339
      5 C         -28.3913    0.1041   30.9805 C.ar    1  UNL1        0.0188
      6 C         -27.5332    1.1666   30.7866 C.ar    1  UNL1       -0.0022
      7 C         -26.8281    1.2557   29.6454 C.ar    1  UNL1       -0.0107
      8 C         -25.6444    1.6653   27.2216 C.3     1  UNL1        0.0700
      9 C         -25.4280    2.5904   28.2367 C.2     1  UNL1        0.1633
     10 C         -26.1083    2.4673   29.4212 C.3     1  UNL1        0.1558
     11 C         -25.8864    3.5250   30.4298 C.2     1  UNL1        0.2364
     12 O         -25.1114    3.2917   31.3388 O.2     1  UNL1       -0.2741
     13 N         -26.6073    4.6251   30.3808 N.am    1  UNL1       -0.2784
     14 C         -26.4438    5.6859   31.4094 C.3     1  UNL1        0.0934
     15 C         -27.5417    4.9160   29.3330 C.3     1  UNL1        0.1046
     16 C         -27.0133    6.5618   31.4123 C.3     1  UNL1        0.0221
     17 C         -28.3094    6.1354   29.4982 C.3     1  UNL1        0.1232
     18 C         -29.3119    6.4224   28.4913 C.2     1  UNL1        0.3660
     19 C         -28.0005    6.9745   30.5085 C.3     1  UNL1        0.0147
     20 O         -29.9224    7.2221   28.3042 O.co2   1  UNL1       -0.2456
     21 O         -29.3696    5.3006   27.5321 O.co2   1  UNL1       -0.2456
     22 O         -24.6994    3.6903   27.9660 O.2     1  UNL1       -0.2952
     23 N         -29.3720   -1.8703   30.3596 N.2     1  UNL1       -0.2439
     24 C         -29.8729   -2.2320   31.3005 C.2     1  UNL1        0.0985
     25 C         -30.6653   -3.3799   31.4542 C.2     1  UNL1        0.0161
     26 C         -30.7085   -4.2383   30.3441 C.2     1  UNL1       -0.0242
     27 C         -29.9369   -4.0725   29.3154 C.3     1  UNL1        0.0307
@<TRIPOS>BOND
     1     3     4    1
     2     8     9    1
     3     7    10    1
     4     9    10    1
     5    10    11    1
     6    11    12    2
     7    11    13   am
     8    13    14    1
     9    13    15    1
    10    17    18    1
    11    16    19    1
    12    17    19    1
    13    18    20   ar
    14    18    21   ar
    15     9    22    2
    16     2    23    1
    17    23    24    2
    18    24    25    1
    19    25    26    2
    20    26    27    1
    21    14    16    1
    22    17    15    1
    23     8     4    1
    24     1     2   ar
    25     2     5   ar
    26     5     6   ar
    27     6     7   ar
    28     7     3   ar
    29     3     1   ar
