@<TRIPOS>MOLECULE
No_1530-gen_results/8p0m/2024-11-27-11-27-31/
 23 24 0 0 0
SMALL
GASTEIGER

@<TRIPOS>ATOM
      1 C         -28.0162   -0.8135   28.8779 C.3     1  UNL1        0.3439
      2 C         -27.0636   -0.1190   28.6079 C.ar    1  UNL1        0.0783
      3 C         -25.7923   -0.4302   29.0761 C.ar    1  UNL1        0.0158
      4 C         -24.5456    0.3494   28.8225 C.ar    1  UNL1        0.0641
      5 C         -24.6586    1.4196   27.8878 C.ar    1  UNL1        0.0933
      6 C         -25.9471    1.6811   27.3792 C.ar    1  UNL1        0.0442
      7 C         -27.0439    0.9739   27.6871 C.ar    1  UNL1        0.1399
      8 F         -27.9229   -2.0316   29.0996 F       1  UNL1       -0.1931
      9 F         -29.2598   -0.4545   28.8119 F       1  UNL1       -0.1931
     10 C         -23.4622    2.1487   27.6087 C.2     1  UNL1        0.3887
     11 O         -22.3199    1.8901   28.0717 O.co2   1  UNL1       -0.2405
     12 O         -23.5705    3.0278   26.5775 O.co2   1  UNL1       -0.2405
     13 CL        -23.0814   -0.1538   29.5088 Cl      1  UNL1       -0.0820
     14 O         -28.2152    1.2762   27.1230 O.3     1  UNL1       -0.4790
     15 C         -28.1646    2.2350   26.1324 C.3     1  UNL1        0.1703
     16 C         -28.6286    3.3107   26.4191 C.3     1  UNL1        0.0698
     17 C         -27.8991    1.7327   24.8233 C.3     1  UNL1        0.0476
     18 C         -29.4928    3.8541   26.5431 C.ar    1  UNL1       -0.0186
     19 C         -29.8698    5.2850   26.8459 C.ar    1  UNL1       -0.0041
     20 C         -31.1563    5.8322   26.9751 C.ar    1  UNL1       -0.0003
     21 C         -32.2072    4.9353   26.7410 C.ar    1  UNL1       -0.0000
     22 C         -31.9860    3.6089   26.4960 C.ar    1  UNL1       -0.0003
     23 C         -30.7921    3.0948   26.4261 C.ar    1  UNL1       -0.0041
@<TRIPOS>BOND
     1     1     2    1
     2     1     8    1
     3     1     9    1
     4     5    10    1
     5    10    11   ar
     6    10    12   ar
     7     4    13    1
     8     7    14    1
     9    14    15    1
    10    15    16    1
    11    15    17    1
    12    16    18    1
    13    18    19   ar
    14    19    20   ar
    15    20    21   ar
    16    21    22   ar
    17    22    23   ar
    18    23    18   ar
    19     2     3   ar
    20     3     4   ar
    21     4     5   ar
    22     5     6   ar
    23     6     7   ar
    24     7     2   ar
