@<TRIPOS>MOLECULE
outputs/IAG933/test6/raw/output_1532_IAG933_linker_design_.xyz
 42 46 0 0 0
SMALL
GASTEIGER

@<TRIPOS>ATOM
      1 C         -24.8550   -1.0120   30.1430 C.3     1  UNL1        0.1113
      2 C         -24.9730   -2.5050   29.7880 C.2     1  UNL1       -0.0030
      3 C         -23.9060   -3.1730   29.1460 C.2     1  UNL1       -0.0026
      4 C         -23.9890   -4.5490   28.8530 C.2     1  UNL1       -0.0003
      5 C         -25.1370   -5.2800   29.2050 C.2     1  UNL1       -0.0000
      6 C         -26.2320   -4.6110   29.7840 C.2     1  UNL1       -0.0003
      7 C         -26.1550   -3.2320   30.0650 C.2     1  UNL1       -0.0026
      8 C         -25.3870   -0.6790   31.5710 C.3     1  UNL1        0.0950
      9 C         -25.1890    0.7730   32.0280 C.3     1  UNL1        0.0209
     10 C         -25.3360    0.6840   33.5440 C.3     1  UNL1        0.0203
     11 C         -24.8290   -0.7150   33.9050 C.3     1  UNL1        0.0888
     12 N         -24.7580   -1.4810   32.6460 N.3     1  UNL1       -0.2174
     13 C         -25.6880    1.6140   26.4610 C.2     1  UNL1        0.0425
     14 C         -26.2500    2.9200   26.3950 C.2     1  UNL1        0.0767
     15 C         -25.6420    4.0930   27.1230 C.2     1  UNL1        0.2664
     16 N         -25.6140    5.2520   26.4490 N.am    1  UNL1       -0.1997
     17 C         -25.0260    6.4790   26.9630 C.3     1  UNL1        0.1388
     18 O         -25.1430    3.9660   28.2430 O.2     1  UNL1       -0.2683
     19 C         -27.4380    3.0910   25.6450 C.2     1  UNL1        0.1067
     20 N         -28.0750    2.0890   25.0030 N.2     1  UNL1       -0.2081
     21 C         -27.5430    0.8490   25.0790 C.2     1  UNL1        0.2533
     22 O         -28.1930   -0.2080   24.4770 O.2     1  UNL1       -0.4558
     23 C         -29.4600    0.0050   23.8660 C.3     1  UNL1        0.2426
     24 C         -30.0650   -1.3770   23.5730 C.3     1  UNL1        0.2292
     25 O         -30.7290   -1.8780   24.7210 O.3     1  UNL1       -0.2162
     26 C         -26.3540    0.5760   25.7770 C.2     1  UNL1        0.1932
     27 F         -25.8600   -0.6810   25.7950 F       1  UNL1       -0.1992
     28 C         -24.5300    1.3966   27.1034 C.2     1  UNL1        0.0581
     29 N         -25.4136   -0.0202   29.0523 N.pl3   1  UNL1       -0.3027
     30 C         -28.1274    0.3608   29.5654 C.3     1  UNL1        0.0230
     31 C         -23.3172    1.9605   26.7261 C.2     1  UNL1        0.2193
     32 C         -26.8887   -0.0646   28.7119 C.3     1  UNL1        0.0912
     33 N         -21.0271    1.3371   27.5085 N.3     1  UNL1       -0.0449
     34 C         -22.9673    0.4585   28.3583 C.2     1  UNL1        0.1596
     35 N         -28.6583    2.2829   32.4033 N.3     1  UNL1       -0.1314
     36 N         -22.0751   -0.0012   29.1410 N.2     1  UNL1       -0.0469
     37 C         -24.3395    0.5082   28.1334 C.2     1  UNL1        0.0741
     38 C         -28.9674    2.3501   30.9994 C.3     1  UNL1        0.1094
     39 O         -20.8351    0.5250   28.4921 O.2     1  UNL1       -0.2414
     40 C         -28.0216    1.8084   29.9809 C.3     1  UNL1        0.0223
     41 C         -22.3646    1.3202   27.4691 C.2     1  UNL1        0.1831
     42 O         -22.9691    2.8682   25.8344 O.2     1  UNL1       -0.2847
@<TRIPOS>BOND
     1     1    29    1
     2     2     7    1
     3     2     1    1
     4     3     2    2
     5     4     3    1
     6     4     5    2
     7     5     6    1
     8     6     7    2
     9     8     1    1
    10     8     9    1
    11     8    12    1
    12     9    10    1
    13    10    11    1
    14    12    11    1
    15    13    28    1
    16    14    13    1
    17    14    15    1
    18    15    18    2
    19    16    17    1
    20    16    15    1
    21    19    14    2
    22    20    21    2
    23    20    19    1
    24    21    26    1
    25    22    21    1
    26    23    22    1
    27    24    23    1
    28    24    25    1
    29    26    27    1
    30    26    13    2
    31    28    37    2
    32    30    40    1
    33    31    28    1
    34    31    41    2
    35    32    29    1
    36    32    30    1
    37    33    39    1
    38    34    36    2
    39    37    34    1
    40    37    29    1
    41    38    35    1
    42    39    36    1
    43    40    38    1
    44    41    33    1
    45    41    34    1
    46    42    31    1
