@<TRIPOS>MOLECULE
No_1533-gen_results/8p0m/2024-11-27-11-27-31/
 16 18 0 0 0
SMALL
GASTEIGER

@<TRIPOS>ATOM
      1 C         -28.0162   -0.8135   28.8779 C.ar    1  UNL1       -0.0027
      2 C         -28.4690   -0.7850   29.8287 C.ar    1  UNL1       -0.0002
      3 C         -27.0871    0.2903   28.6377 C.ar    1  UNL1       -0.0041
      4 C         -26.7676    1.0274   29.4716 C.ar    1  UNL1        0.0478
      5 C         -28.2764    0.0268   31.0145 C.ar    1  UNL1        0.0013
      6 C         -27.3287    1.0538   30.7535 C.ar    1  UNL1        0.0145
      7 C         -26.3859    0.3011   27.2661 C.3     1  UNL1        0.0551
      8 C         -26.0047    1.5465   26.8605 C.ar    1  UNL1       -0.0041
      9 C         -25.1668    1.6782   25.8655 C.ar    1  UNL1       -0.0027
     10 C         -24.2377    2.7802   25.8241 C.ar    1  UNL1       -0.0002
     11 C         -24.2559    3.6158   26.8150 C.ar    1  UNL1        0.0013
     12 C         -25.2004    3.6472   27.8128 C.ar    1  UNL1        0.0145
     13 C         -26.0269    2.5028   27.9582 C.ar    1  UNL1        0.0478
     14 N         -26.4412    2.3114   29.1832 N.pl3   1  UNL1       -0.2874
     15 C         -26.3492    3.3758   30.1903 C.3     1  UNL1        0.0956
     16 C         -27.4479    3.6292   30.9163 C.3     1  UNL1        0.0236
@<TRIPOS>BOND
     1     3     7    1
     2     7     8    1
     3     4    14    1
     4    13    14    1
     5    14    15    1
     6    15    16    1
     7     8     9   ar
     8     9    10   ar
     9    10    11   ar
    10    11    12   ar
    11    12    13   ar
    12    13     8   ar
    13     1     2   ar
    14     2     5   ar
    15     5     6   ar
    16     6     4   ar
    17     4     3   ar
    18     3     1   ar
