@<TRIPOS>MOLECULE
No_1535-gen_results/8p0m/2024-11-27-11-27-31/
 16 17 0 0 0
SMALL
GASTEIGER

@<TRIPOS>ATOM
      1 C         -28.0162   -0.8135   28.8779 C.ar    1  UNL1        0.0046
      2 C         -28.4690   -0.7850   29.8287 C.ar    1  UNL1        0.0554
      3 C         -26.5042   -0.7777   28.8766 C.ar    1  UNL1        0.0001
      4 C         -25.8103   -0.8531   30.1028 C.ar    1  UNL1        0.0000
      5 C         -27.9906   -0.8916   31.2257 C.ar    1  UNL1        0.0046
      6 C         -26.6042   -0.8676   31.2652 C.ar    1  UNL1        0.0001
      7 C         -30.0739   -0.8360   29.8615 C.2     1  UNL1        0.2690
      8 O         -30.5608   -0.4417   28.9417 O.2     1  UNL1       -0.2680
      9 N         -30.7486   -1.4028   30.9474 N.am    1  UNL1       -0.1754
     10 C         -32.1750   -1.4682   30.8889 C.ar    1  UNL1        0.0738
     11 C         -32.7835   -2.0405   31.4468 C.ar    1  UNL1        0.0189
     12 C         -34.2955   -2.0689   31.4277 C.ar    1  UNL1        0.0310
     13 C         -34.8439   -1.2012   30.4640 C.ar    1  UNL1        0.1402
     14 C         -34.0049   -0.4630   29.6725 C.ar    1  UNL1        0.0310
     15 C         -32.6784   -0.4694   29.8433 C.ar    1  UNL1        0.0189
     16 F         -36.1687   -1.1777   30.3955 F       1  UNL1       -0.2042
@<TRIPOS>BOND
     1     2     7    1
     2     7     8    2
     3     7     9   am
     4     9    10    1
     5    13    16    1
     6     1     2   ar
     7     2     5   ar
     8     5     6   ar
     9     6     4   ar
    10     4     3   ar
    11     3     1   ar
    12    10    11   ar
    13    11    12   ar
    14    12    13   ar
    15    13    14   ar
    16    14    15   ar
    17    15    10   ar
