@<TRIPOS>MOLECULE
outputs/IAG933/test6/raw/output_154_IAG933_linker_design_.xyz
 41 44 0 0 0
SMALL
GASTEIGER

@<TRIPOS>ATOM
      1 C         -24.8550   -1.0120   30.1430 C.3     1  UNL1        0.0596
      2 C         -24.9730   -2.5050   29.7880 C.2     1  UNL1       -0.0194
      3 C         -23.9060   -3.1730   29.1460 C.2     1  UNL1       -0.0042
      4 C         -23.9890   -4.5490   28.8530 C.2     1  UNL1       -0.0003
      5 C         -25.1370   -5.2800   29.2050 C.2     1  UNL1       -0.0000
      6 C         -26.2320   -4.6110   29.7840 C.2     1  UNL1       -0.0003
      7 C         -26.1550   -3.2320   30.0650 C.2     1  UNL1       -0.0042
      8 C         -25.3870   -0.6790   31.5710 C.3     1  UNL1        0.0785
      9 C         -25.1890    0.7730   32.0280 C.3     1  UNL1        0.0192
     10 C         -25.3360    0.6840   33.5440 C.3     1  UNL1        0.0202
     11 C         -24.8290   -0.7150   33.9050 C.3     1  UNL1        0.0887
     12 N         -24.7580   -1.4810   32.6460 N.3     1  UNL1       -0.2191
     13 C         -25.6880    1.6140   26.4610 C.3     1  UNL1        0.1313
     14 C         -26.2500    2.9200   26.3950 C.2     1  UNL1        0.0697
     15 C         -25.6420    4.0930   27.1230 C.2     1  UNL1        0.2637
     16 N         -25.6140    5.2520   26.4490 N.am    1  UNL1       -0.2000
     17 C         -25.0260    6.4790   26.9630 C.3     1  UNL1        0.1388
     18 O         -25.1430    3.9660   28.2430 O.2     1  UNL1       -0.2686
     19 C         -27.4380    3.0910   25.6450 C.2     1  UNL1        0.1035
     20 N         -28.0750    2.0890   25.0030 N.2     1  UNL1       -0.2118
     21 C         -27.5430    0.8490   25.0790 C.2     1  UNL1        0.2355
     22 O         -28.1930   -0.2080   24.4770 O.2     1  UNL1       -0.4585
     23 C         -29.4600    0.0050   23.8660 C.3     1  UNL1        0.2423
     24 C         -30.0650   -1.3770   23.5730 C.3     1  UNL1        0.2292
     25 O         -30.7290   -1.8780   24.7210 O.3     1  UNL1       -0.2162
     26 C         -26.3540    0.5760   25.7770 C.3     1  UNL1        0.2547
     27 F         -25.8600   -0.6810   25.7950 F       1  UNL1       -0.2254
     28 C         -25.7416   -0.0158   29.3357 C.3     1  UNL1        0.1156
     29 C         -28.6951    1.6382   29.0793 C.3     1  UNL1        0.0768
     30 C         -21.5494    1.4526   28.4135 C.3     1  UNL1        0.1758
     31 C         -25.7958    0.9235   28.7312 C.3     1  UNL1        0.1572
     32 C         -29.1199    1.9595   30.5175 C.3     1  UNL1        0.0096
     33 O         -22.9403    1.4487   28.9481 O.3     1  UNL1       -0.3382
     34 C         -29.7819    2.3818   28.2288 C.3     1  UNL1        0.0091
     35 C         -23.6411    1.5220   27.9656 C.3     1  UNL1        0.1779
     36 C         -28.1824    0.1740   28.7797 C.2     1  UNL1        0.2261
     37 O         -28.9179   -0.7475   28.4360 O.2     1  UNL1       -0.2748
     38 C         -23.1506    1.4540   26.4809 C.3     1  UNL1        0.0508
     39 C         -30.8767    1.6984   28.9786 C.3     1  UNL1        0.0005
     40 N         -24.9541    1.3851   27.6670 N.3     1  UNL1       -0.2288
     41 N         -26.8742    0.0682   28.8570 N.am    1  UNL1       -0.2646
@<TRIPOS>BOND
     1     1     2    1
     2     2     7    1
     3     3     2    2
     4     4     3    1
     5     4     5    2
     6     5     6    1
     7     6     7    2
     8     8     1    1
     9     8     9    1
    10     8    12    1
    11     9    10    1
    12    10    11    1
    13    12    11    1
    14    13    40    1
    15    14    13    1
    16    14    15    1
    17    15    18    2
    18    16    17    1
    19    16    15    1
    20    19    14    2
    21    20    21    2
    22    20    19    1
    23    21    26    1
    24    22    21    1
    25    23    22    1
    26    24    23    1
    27    24    25    1
    28    26    27    1
    29    26    13    1
    30    28     1    1
    31    29    32    1
    32    30    33    1
    33    31    40    1
    34    31    41    1
    35    31    28    1
    36    34    39    1
    37    34    29    1
    38    35    38    1
    39    35    33    1
    40    36    41   am
    41    36    29    1
    42    37    36    2
    43    40    35    1
    44    41    28    1
