@<TRIPOS>MOLECULE
outputs/IAG933/test6/raw/output_1544_IAG933_linker_design_.xyz
 42 45 0 0 0
SMALL
GASTEIGER

@<TRIPOS>ATOM
      1 C         -24.8550   -1.0120   30.1430 C.3     1  UNL1        0.0649
      2 C         -24.9730   -2.5050   29.7880 C.2     1  UNL1       -0.0169
      3 C         -23.9060   -3.1730   29.1460 C.2     1  UNL1       -0.0039
      4 C         -23.9890   -4.5490   28.8530 C.2     1  UNL1       -0.0003
      5 C         -25.1370   -5.2800   29.2050 C.2     1  UNL1       -0.0000
      6 C         -26.2320   -4.6110   29.7840 C.2     1  UNL1       -0.0003
      7 C         -26.1550   -3.2320   30.0650 C.2     1  UNL1       -0.0039
      8 C         -25.3870   -0.6790   31.5710 C.3     1  UNL1        0.0810
      9 C         -25.1890    0.7730   32.0280 C.3     1  UNL1        0.0195
     10 C         -25.3360    0.6840   33.5440 C.3     1  UNL1        0.0203
     11 C         -24.8290   -0.7150   33.9050 C.3     1  UNL1        0.0887
     12 N         -24.7580   -1.4810   32.6460 N.3     1  UNL1       -0.2188
     13 C         -25.6880    1.6140   26.4610 C.2     1  UNL1        0.0314
     14 C         -26.2500    2.9200   26.3950 C.2     1  UNL1        0.0734
     15 C         -25.6420    4.0930   27.1230 C.2     1  UNL1        0.2661
     16 N         -25.6140    5.2520   26.4490 N.am    1  UNL1       -0.1997
     17 C         -25.0260    6.4790   26.9630 C.3     1  UNL1        0.1388
     18 O         -25.1430    3.9660   28.2430 O.2     1  UNL1       -0.2683
     19 C         -27.4380    3.0910   25.6450 C.2     1  UNL1        0.1064
     20 N         -28.0750    2.0890   25.0030 N.2     1  UNL1       -0.2081
     21 C         -27.5430    0.8490   25.0790 C.2     1  UNL1        0.2530
     22 O         -28.1930   -0.2080   24.4770 O.2     1  UNL1       -0.4558
     23 C         -29.4600    0.0050   23.8660 C.3     1  UNL1        0.2426
     24 C         -30.0650   -1.3770   23.5730 C.3     1  UNL1        0.2292
     25 O         -30.7290   -1.8780   24.7210 O.3     1  UNL1       -0.2162
     26 C         -26.3540    0.5760   25.7770 C.2     1  UNL1        0.1900
     27 F         -25.8600   -0.6810   25.7950 F       1  UNL1       -0.1996
     28 C         -24.8736    0.6063   28.3671 C.2     1  UNL1        0.1265
     29 C         -27.0903   -0.3923   28.3557 C.3     1  UNL1        0.2065
     30 N         -29.9055    0.9429   30.5889 N.3     1  UNL1       -0.1313
     31 O         -20.4330    0.9092   28.3965 O.2     1  UNL1       -0.2662
     32 C         -24.5729    1.3137   27.2892 C.3     1  UNL1        0.1595
     33 O         -23.3759    2.4871   25.5270 O.2     1  UNL1       -0.2721
     34 N         -21.7571   -1.0740   29.3930 N.2     1  UNL1       -0.1434
     35 O         -26.2551    0.6826   28.7536 O.2     1  UNL1       -0.4791
     36 N         -22.0549    1.5779   26.9968 N.am    1  UNL1       -0.1390
     37 C         -28.6713    0.2209   30.2842 C.3     1  UNL1        0.1131
     38 C         -24.0424   -0.1456   29.1697 C.2     1  UNL1        0.0374
     39 C         -23.3321    1.8117   26.5795 C.2     1  UNL1        0.2591
     40 C         -22.5093   -0.0835   28.9453 C.2     1  UNL1        0.1570
     41 C         -28.5652   -0.2061   28.7981 C.3     1  UNL1        0.0678
     42 C         -21.6078    0.7376   28.1382 C.2     1  UNL1        0.2906
@<TRIPOS>BOND
     1     1    38    1
     2     2     7    1
     3     2     1    1
     4     3     2    2
     5     4     3    1
     6     4     5    2
     7     5     6    1
     8     6     7    2
     9     8     1    1
    10     8     9    1
    11     8    12    1
    12     9    10    1
    13    10    11    1
    14    12    11    1
    15    14    13    1
    16    14    15    1
    17    15    18    2
    18    16    17    1
    19    16    15    1
    20    19    14    2
    21    20    21    2
    22    20    19    1
    23    21    26    1
    24    22    21    1
    25    23    22    1
    26    24    23    1
    27    24    25    1
    28    26    27    1
    29    26    13    2
    30    28    35    1
    31    28    38    2
    32    29    35    1
    33    29    41    1
    34    32    13    1
    35    32    28    1
    36    33    39    2
    37    36    42    1
    38    37    30    1
    39    39    36    1
    40    39    32    1
    41    40    38    1
    42    40    34    2
    43    41    37    1
    44    42    31    2
    45    42    40    1
