@<TRIPOS>MOLECULE
No_1545-gen_results/8p0m/2024-11-27-11-27-31/
 29 31 0 0 0
SMALL
GASTEIGER

@<TRIPOS>ATOM
      1 C         -28.0162   -0.8135   28.8779 C.ar    1  UNL1        0.0369
      2 C         -27.0636   -0.1190   28.6079 C.ar    1  UNL1        0.0031
      3 C         -25.7923   -0.4302   29.0761 C.ar    1  UNL1        0.0002
      4 C         -25.5756   -1.5654   29.9363 C.ar    1  UNL1        0.0031
      5 C         -26.7354   -2.3004   30.2173 C.ar    1  UNL1        0.0369
      6 C         -27.9184   -1.9537   29.7629 C.ar    1  UNL1        0.1387
      7 O         -29.0001   -2.7012   30.1151 O.3     1  UNL1       -0.4727
      8 C         -24.5290    0.3490   28.7998 C.ar    1  UNL1        0.0000
      9 C         -23.3442    0.0060   29.1658 C.ar    1  UNL1        0.0000
     10 C         -22.1783    0.7811   28.7783 C.ar    1  UNL1        0.0000
     11 C         -22.3217    1.7499   27.7727 C.ar    1  UNL1        0.0000
     12 C         -24.6102    1.3558   27.7479 C.ar    1  UNL1        0.0000
     13 C         -23.5148    2.0341   27.3068 C.ar    1  UNL1        0.0000
     14 C         -29.3590   -2.8169   31.4427 C.3     1  UNL1        0.2374
     15 C         -29.7819   -4.1265   31.7466 C.3     1  UNL1        0.1911
     16 O         -29.6800   -4.4391   32.9377 O.3     1  UNL1       -0.3209
     17 C         -30.0934   -5.7720   33.3645 C.3     1  UNL1        0.3118
     18 C         -31.3976   -5.9612   33.0015 C.3     1  UNL1        0.2456
     19 C         -31.6070   -5.7348   31.5732 C.3     1  UNL1        0.2169
     20 C         -31.0839   -4.3363   31.2343 C.3     1  UNL1        0.1789
     21 O         -31.6141   -3.7474   30.2419 O.3     1  UNL1       -0.3506
     22 F         -29.8597   -5.8246   34.7599 F       1  UNL1       -0.2011
     23 O         -31.7857   -7.3459   33.3176 O.3     1  UNL1       -0.2145
     24 O         -32.9410   -5.7631   31.1521 O.3     1  UNL1       -0.2175
     25 C         -32.1269   -2.5284   30.4682 C.3     1  UNL1        0.1469
     26 C         -33.5037   -2.4949   30.1693 C.3     1  UNL1        0.0577
     27 C         -34.1310   -1.4488   30.6829 C.2     1  UNL1       -0.0281
     28 C         -33.3463   -0.3488   30.8898 C.2     1  UNL1       -0.0303
     29 C         -33.9098    0.9093   31.4683 C.3     1  UNL1        0.0303
@<TRIPOS>BOND
     1     6     7    1
     2     3     8    1
     3     7    14    1
     4    14    15    1
     5    15    16    1
     6    16    17    1
     7    17    18    1
     8    18    19    1
     9    15    20    1
    10    19    20    1
    11    20    21    1
    12    17    22    1
    13    18    23    1
    14    19    24    1
    15    21    25    1
    16    25    26    1
    17    26    27    1
    18    27    28    2
    19    28    29    1
    20     1     2   ar
    21     2     3   ar
    22     3     4   ar
    23     4     5   ar
    24     5     6   ar
    25     6     1   ar
    26     8     9   ar
    27     9    10   ar
    28    10    11   ar
    29    11    13   ar
    30    13    12   ar
    31    12     8   ar
