@<TRIPOS>MOLECULE
No_1548-gen_results/8p0m/2024-11-27-11-27-31/
 35 36 0 0 0
SMALL
GASTEIGER

@<TRIPOS>ATOM
      1 C         -28.0162   -0.8135   28.8779 C.ar    1  UNL1        0.0796
      2 C         -27.0636   -0.1190   28.6079 C.ar    1  UNL1        0.0026
      3 C         -26.9716    0.7139   27.5060 C.ar    1  UNL1       -0.0177
      4 C         -28.1053    0.7744   26.6421 C.ar    1  UNL1       -0.0012
      5 C         -29.2008    0.1044   27.0527 C.ar    1  UNL1        0.0287
      6 C         -29.2096   -0.6029   28.1853 C.ar    1  UNL1        0.0093
      7 P         -30.6087    0.2568   26.0024 P.3     1  UNL1        0.1395
      8 O         -31.5394   -0.4349   26.1938 O.3     1  UNL1       -0.3542
      9 O         -29.9803    0.1322   24.5479 O.2     1  UNL1       -0.4557
     10 O         -30.8807    1.8198   26.1359 O.3     1  UNL1       -0.3542
     11 C         -25.6504    1.3949   27.1480 C.3     1  UNL1        0.0501
     12 C         -25.2065    2.3886   28.0485 C.2     1  UNL1       -0.0155
     13 C         -24.1725    2.6950   28.5357 C.2     1  UNL1        0.0576
     14 C         -25.9590    3.7534   27.8228 C.3     1  UNL1        0.1104
     15 C         -27.1532    3.8423   27.1924 C.3     1  UNL1        0.0154
     16 N         -23.2740    1.6690   28.4174 N.pl3   1  UNL1       -0.2834
     17 C         -23.1129    0.7517   29.3638 C.ar    1  UNL1        0.0711
     18 C         -23.7450    0.6095   30.4447 C.ar    1  UNL1        0.0195
     19 C         -22.1401   -0.3648   29.0680 C.ar    1  UNL1        0.1136
     20 C         -23.7022   -0.4693   31.3680 C.ar    1  UNL1        0.0391
     21 N         -22.1028   -1.4170   29.8387 N.ar    1  UNL1       -0.2410
     22 C         -22.7441   -1.4618   30.9971 C.ar    1  UNL1        0.1005
     23 C         -22.4453    1.7178   27.2227 C.3     1  UNL1        0.1173
     24 C         -25.0305    4.8159   27.2268 C.3     1  UNL1        0.0154
     25 C         -26.2474    4.2631   29.3603 C.2     1  UNL1        0.3673
     26 O         -27.0750    3.9276   29.9348 O.co2   1  UNL1       -0.2453
     27 O         -25.6224    5.4181   29.7056 O.co2   1  UNL1       -0.2453
     28 C         -28.1093   -1.6132   30.1615 C.2     1  UNL1        0.3877
     29 O         -27.6618   -2.8129   30.0069 O.co2   1  UNL1       -0.2406
     30 O         -28.1647   -1.1098   31.3085 O.co2   1  UNL1       -0.2406
     31 C         -24.4591   -0.6090   32.5920 C.2     1  UNL1        0.0947
     32 N         -25.5141   -0.3598   33.2331 N.2     1  UNL1       -0.2689
     33 C         -26.3790    0.5109   32.5345 C.3     1  UNL1        0.1255
     34 C         -26.6617    1.7637   33.4516 C.3     1  UNL1        0.0263
     35 C         -27.7339    2.6002   32.8500 C.3     1  UNL1        0.0021
@<TRIPOS>BOND
     1     5     7    1
     2     7     8    1
     3     7     9    2
     4     7    10    1
     5     3    11    1
     6    11    12    1
     7    12    13    2
     8    12    14    1
     9    14    15    1
    10    13    16    1
    11    16    17    1
    12    16    23    1
    13    14    24    1
    14    14    25    1
    15    25    26   ar
    16    25    27   ar
    17     1    28    1
    18    28    29   ar
    19    28    30   ar
    20    20    31    1
    21    31    32    2
    22    32    33    1
    23    33    34    1
    24    34    35    1
    25     1     2   ar
    26     2     3   ar
    27     3     4   ar
    28     4     5   ar
    29     5     6   ar
    30     6     1   ar
    31    17    18   ar
    32    18    20   ar
    33    20    22   ar
    34    22    21   ar
    35    21    19   ar
    36    19    17   ar
