@<TRIPOS>MOLECULE
No_1549-gen_results/8p0m/2024-11-27-11-27-31/
 14 15 0 0 0
SMALL
GASTEIGER

@<TRIPOS>ATOM
      1 O         -28.1229   -1.3353   28.4874 O.2     1  UNL1       -0.2684
      2 C         -27.0637   -0.8242   28.8687 C.2     1  UNL1        0.2645
      3 C         -26.4017   -0.0623   28.6224 C.ar    1  UNL1        0.0513
      4 N         -26.3805   -1.7991   29.9619 N.am    1  UNL1       -0.2013
      5 C         -25.0334    0.3743   29.0484 C.ar    1  UNL1       -0.0106
      6 C         -24.5462   -0.4703   30.1069 C.3     1  UNL1        0.0501
      7 C         -25.2361   -1.5529   30.4712 C.3     1  UNL1        0.1201
      8 C         -26.6639    1.0448   27.4798 C.ar    1  UNL1        0.0043
      9 C         -25.8423    1.6705   26.7942 C.ar    1  UNL1        0.0003
     10 C         -24.5162    1.9735   27.3605 C.ar    1  UNL1        0.0053
     11 C         -24.1215    1.3345   28.5024 C.ar    1  UNL1        0.0640
     12 C         -22.7448    1.4747   28.9557 C.2     1  UNL1        0.3331
     13 O         -22.1433    2.4186   28.4972 O.2     1  UNL1       -0.2541
     14 F         -22.3335    0.8611   30.0067 F       1  UNL1       -0.1586
@<TRIPOS>BOND
     1     1     2    2
     2     2     3    1
     3     2     4   am
     4     6     7    1
     5    11    12    1
     6    12    13    2
     7    12    14    1
     8     5     6    1
     9     7     4    1
    10     3     5   ar
    11     5    11   ar
    12    11    10   ar
    13    10     9   ar
    14     9     8   ar
    15     8     3   ar
