@<TRIPOS>MOLECULE
outputs/IAG933/test6/raw/output_155_IAG933_linker_design_.xyz
 40 43 0 0 0
SMALL
GASTEIGER

@<TRIPOS>ATOM
      1 C         -24.8550   -1.0120   30.1430 C.3     1  UNL1        0.1167
      2 C         -24.9730   -2.5050   29.7880 C.2     1  UNL1       -0.0125
      3 C         -23.9060   -3.1730   29.1460 C.2     1  UNL1       -0.0038
      4 C         -23.9890   -4.5490   28.8530 C.2     1  UNL1       -0.0003
      5 C         -25.1370   -5.2800   29.2050 C.2     1  UNL1       -0.0000
      6 C         -26.2320   -4.6110   29.7840 C.2     1  UNL1       -0.0003
      7 C         -26.1550   -3.2320   30.0650 C.2     1  UNL1       -0.0038
      8 C         -25.3870   -0.6790   31.5710 C.3     1  UNL1        0.0855
      9 C         -25.1890    0.7730   32.0280 C.3     1  UNL1        0.0197
     10 C         -25.3360    0.6840   33.5440 C.3     1  UNL1        0.0203
     11 C         -24.8290   -0.7150   33.9050 C.3     1  UNL1        0.0887
     12 N         -24.7580   -1.4810   32.6460 N.3     1  UNL1       -0.2186
     13 C         -25.6880    1.6140   26.4610 C.3     1  UNL1        0.0967
     14 C         -26.2500    2.9200   26.3950 C.2     1  UNL1        0.0590
     15 C         -25.6420    4.0930   27.1230 C.2     1  UNL1        0.2628
     16 N         -25.6140    5.2520   26.4490 N.am    1  UNL1       -0.2000
     17 C         -25.0260    6.4790   26.9630 C.3     1  UNL1        0.1388
     18 O         -25.1430    3.9660   28.2430 O.2     1  UNL1       -0.2686
     19 C         -27.4380    3.0910   25.6450 C.2     1  UNL1        0.1025
     20 N         -28.0750    2.0890   25.0030 N.2     1  UNL1       -0.2118
     21 C         -27.5430    0.8490   25.0790 C.2     1  UNL1        0.2344
     22 O         -28.1930   -0.2080   24.4770 O.2     1  UNL1       -0.4585
     23 C         -29.4600    0.0050   23.8660 C.3     1  UNL1        0.2423
     24 C         -30.0650   -1.3770   23.5730 C.3     1  UNL1        0.2292
     25 O         -30.7290   -1.8780   24.7210 O.3     1  UNL1       -0.2162
     26 C         -26.3540    0.5760   25.7770 C.3     1  UNL1        0.2441
     27 F         -25.8600   -0.6810   25.7950 F       1  UNL1       -0.2265
     28 N         -25.0351    1.1552   29.1452 N.am    1  UNL1       -0.1790
     29 C         -22.7599    0.7148   28.5359 C.2     1  UNL1        0.0751
     30 C         -23.2637    2.1401   26.1150 C.2     1  UNL1        0.1966
     31 C         -21.9540   -0.2578   29.1177 C.2     1  UNL1        0.1266
     32 C         -21.9712    2.0068   26.5678 C.2     1  UNL1        0.0838
     33 C         -21.6763    1.5113   27.6828 C.2     1  UNL1        0.2016
     34 C         -25.6169   -0.1332   29.2136 C.2     1  UNL1        0.2506
     35 O         -26.6388   -0.3426   28.5954 O.2     1  UNL1       -0.2726
     36 O         -23.4415    2.7196   24.9589 O.2     1  UNL1       -0.2867
     37 O         -20.3032    1.9528   28.0721 O.2     1  UNL1       -0.2864
     38 C         -24.3089    1.5736   26.9256 C.2     1  UNL1        0.0394
     39 C         -24.0173    1.1155   28.2155 C.2     1  UNL1        0.0775
     40 N         -20.8503   -0.5635   28.7323 N.2     1  UNL1       -0.1462
@<TRIPOS>BOND
     1     1    34    1
     2     2     7    1
     3     2     1    1
     4     3     2    2
     5     4     3    1
     6     4     5    2
     7     5     6    1
     8     6     7    2
     9     8     1    1
    10     8     9    1
    11     8    12    1
    12     9    10    1
    13    10    11    1
    14    12    11    1
    15    13    38    1
    16    14    13    1
    17    14    15    1
    18    15    18    2
    19    16    17    1
    20    16    15    1
    21    19    14    2
    22    20    21    2
    23    20    19    1
    24    21    26    1
    25    22    21    1
    26    23    22    1
    27    24    23    1
    28    24    25    1
    29    26    27    1
    30    26    13    1
    31    28    34    1
    32    29    31    1
    33    30    32    2
    34    30    38    1
    35    32    33    1
    36    33    37    1
    37    33    29    2
    38    35    34    2
    39    36    30    1
    40    38    39    2
    41    39    29    1
    42    39    28    1
    43    40    31    2
