@<TRIPOS>MOLECULE
No_1553-gen_results/8p0m/2024-11-27-11-27-31/
 24 26 0 0 0
SMALL
GASTEIGER

@<TRIPOS>ATOM
      1 C         -28.0162   -0.8135   28.8779 C.ar    1  UNL1        0.0063
      2 C         -28.4690   -0.7850   29.8287 C.ar    1  UNL1        0.0798
      3 C         -26.5042   -0.7777   28.8766 C.ar    1  UNL1       -0.0040
      4 C         -25.8103   -0.8531   30.1028 C.ar    1  UNL1       -0.0207
      5 C         -27.9906   -0.8916   31.2257 C.ar    1  UNL1        0.0063
      6 C         -26.6042   -0.8676   31.2652 C.ar    1  UNL1       -0.0040
      7 C         -24.3894   -0.8050   30.1639 C.3     1  UNL1        0.0458
      8 C         -23.8172    0.4762   29.9118 C.3     1  UNL1        0.1086
      9 C         -22.5010    0.5449   29.4097 C.3     1  UNL1        0.0117
     10 C         -21.7696   -0.6524   29.2129 C.3     1  UNL1        0.0023
     11 C         -23.6812   -1.3591   31.3252 C.3     1  UNL1        0.0066
     12 C         -23.8058   -1.7929   29.1080 C.3     1  UNL1        0.0800
     13 C         -22.8395   -1.5787   28.5479 C.3     1  UNL1        0.0202
     14 C         -24.4773    1.7379   30.2423 C.2     1  UNL1        0.3647
     15 O         -24.8521    2.5078   29.3228 O.co2   1  UNL1       -0.2457
     16 O         -24.7111    2.0093   31.5427 O.co2   1  UNL1       -0.2457
     17 C         -30.0695   -0.8236   29.8180 C.2     1  UNL1        0.3878
     18 O         -30.7154    0.0786   30.4556 O.co2   1  UNL1       -0.2406
     19 O         -30.6155   -1.6639   29.1364 O.co2   1  UNL1       -0.2406
     20 N         -24.4527   -3.0044   28.9193 N.pl3   1  UNL1       -0.2713
     21 C         -25.4667   -3.6013   28.6926 C.2     1  UNL1        0.1853
     22 N         -25.5563   -4.9200   28.9189 N.2     1  UNL1       -0.1437
     23 C         -23.7376   -4.2095   29.4655 C.3     1  UNL1        0.2306
     24 N         -24.4636   -5.2445   29.2829 N.pl3   1  UNL1       -0.1197
@<TRIPOS>BOND
     1     4     7    1
     2     7     8    1
     3     9    10    1
     4     7    11    1
     5     7    12    1
     6    10    13    1
     7     8    14    1
     8    14    15   ar
     9    14    16   ar
    10     2    17    1
    11    17    18   ar
    12    17    19   ar
    13    12    20    1
    14    20    21    1
    15    21    22    2
    16    20    23    1
    17    22    24    1
    18    23    24    1
    19     8     9    1
    20    13    12    1
    21     1     2   ar
    22     2     5   ar
    23     5     6   ar
    24     6     4   ar
    25     4     3   ar
    26     3     1   ar
