@<TRIPOS>MOLECULE
outputs/IAG933/test6/raw/output_1554_IAG933_linker_design_.xyz
 44 47 0 0 0
SMALL
GASTEIGER

@<TRIPOS>ATOM
      1 C         -24.8550   -1.0120   30.1430 C.3     1  UNL1        0.1330
      2 C         -24.9730   -2.5050   29.7880 C.2     1  UNL1       -0.0012
      3 C         -23.9060   -3.1730   29.1460 C.2     1  UNL1       -0.0026
      4 C         -23.9890   -4.5490   28.8530 C.2     1  UNL1       -0.0003
      5 C         -25.1370   -5.2800   29.2050 C.2     1  UNL1       -0.0000
      6 C         -26.2320   -4.6110   29.7840 C.2     1  UNL1       -0.0003
      7 C         -26.1550   -3.2320   30.0650 C.2     1  UNL1       -0.0026
      8 C         -25.3870   -0.6790   31.5710 C.3     1  UNL1        0.0969
      9 C         -25.1890    0.7730   32.0280 C.3     1  UNL1        0.0210
     10 C         -25.3360    0.6840   33.5440 C.3     1  UNL1        0.0203
     11 C         -24.8290   -0.7150   33.9050 C.3     1  UNL1        0.0888
     12 N         -24.7580   -1.4810   32.6460 N.3     1  UNL1       -0.2174
     13 C         -25.6880    1.6140   26.4610 C.2     1  UNL1        0.0399
     14 C         -26.2500    2.9200   26.3950 C.2     1  UNL1        0.0766
     15 C         -25.6420    4.0930   27.1230 C.2     1  UNL1        0.2664
     16 N         -25.6140    5.2520   26.4490 N.am    1  UNL1       -0.1997
     17 C         -25.0260    6.4790   26.9630 C.3     1  UNL1        0.1388
     18 O         -25.1430    3.9660   28.2430 O.2     1  UNL1       -0.2683
     19 C         -27.4380    3.0910   25.6450 C.2     1  UNL1        0.1067
     20 N         -28.0750    2.0890   25.0030 N.2     1  UNL1       -0.2081
     21 C         -27.5430    0.8490   25.0790 C.2     1  UNL1        0.2533
     22 O         -28.1930   -0.2080   24.4770 O.2     1  UNL1       -0.4558
     23 C         -29.4600    0.0050   23.8660 C.3     1  UNL1        0.2426
     24 C         -30.0650   -1.3770   23.5730 C.3     1  UNL1        0.2292
     25 O         -30.7290   -1.8780   24.7210 O.3     1  UNL1       -0.2162
     26 C         -26.3540    0.5760   25.7770 C.2     1  UNL1        0.1931
     27 F         -25.8600   -0.6810   25.7950 F       1  UNL1       -0.1992
     28 C         -24.4433    1.4589   27.1266 C.2     1  UNL1        0.0286
     29 C         -27.7617    0.0500   28.7102 C.2     1  UNL1        0.4807
     30 F         -21.8449    2.7811   24.9033 F       1  UNL1       -0.1659
     31 C         -22.3140    0.0346   28.9388 C.2     1  UNL1        0.1245
     32 O         -28.3148   -0.0361   29.8091 O.co2   1  UNL1       -0.2190
     33 O         -28.2304   -0.2893   27.6222 O.co2   1  UNL1       -0.2190
     34 C         -24.4528    0.7023   28.3235 C.2     1  UNL1        0.1029
     35 N         -26.5783    0.5927   28.8486 N.am    1  UNL1       -0.0685
     36 C         -21.8234    1.6675   27.2496 C.2     1  UNL1        0.0059
     37 C         -23.5733    0.2311   28.7642 C.1     1  UNL1       -0.0677
     38 C         -21.4388    0.8892   28.2957 C.2     1  UNL1        0.0259
     39 C         -23.0117    2.4215   25.3250 C.3     1  UNL1        0.4186
     40 N         -25.2850   -0.0613   29.1095 N.pl3   1  UNL1       -0.2040
     41 F         -23.4154    1.5559   24.4348 F       1  UNL1       -0.1659
     42 F         -23.7261    3.4946   25.3306 F       1  UNL1       -0.1659
     43 C         -23.0920    1.8477   26.6541 C.2     1  UNL1        0.0734
     44 N         -21.9112   -1.0622   29.7147 N.pl3   1  UNL1       -0.1197
@<TRIPOS>BOND
     1     1    40    1
     2     2     7    1
     3     2     1    1
     4     3     2    2
     5     4     3    1
     6     4     5    2
     7     5     6    1
     8     6     7    2
     9     8     1    1
    10     8     9    1
    11     8    12    1
    12     9    10    1
    13    10    11    1
    14    12    11    1
    15    13    28    1
    16    14    13    1
    17    14    15    1
    18    15    18    2
    19    16    17    1
    20    16    15    1
    21    19    14    2
    22    20    21    2
    23    20    19    1
    24    21    26    1
    25    22    21    1
    26    23    22    1
    27    24    23    1
    28    24    25    1
    29    26    27    1
    30    26    13    2
    31    28    34    1
    32    29    35    1
    33    29    32   ar
    34    30    39    1
    35    31    44    1
    36    33    29   ar
    37    34    37    2
    38    34    40    1
    39    35    40    1
    40    36    38    2
    41    37    31    2
    42    38    31    1
    43    39    42    1
    44    39    43    1
    45    41    39    1
    46    43    28    2
    47    43    36    1
