@<TRIPOS>MOLECULE
No_1555-gen_results/8p0m/2024-11-27-11-27-31/
 16 17 0 0 0
SMALL
GASTEIGER

@<TRIPOS>ATOM
      1 C         -28.0162   -0.8135   28.8779 C.ar    1  UNL1        0.0066
      2 C         -28.4690   -0.7850   29.8287 C.ar    1  UNL1        0.0798
      3 C         -26.5042   -0.7777   28.8766 C.ar    1  UNL1        0.0002
      4 C         -25.6540   -0.6597   27.7191 C.ar    1  UNL1        0.0002
      5 C         -27.9180   -0.9374   31.1824 C.ar    1  UNL1        0.0066
      6 C         -26.5423   -0.9399   31.2606 C.ar    1  UNL1        0.0002
      7 C         -25.7832   -0.8935   30.1201 C.ar    1  UNL1        0.0002
      8 C         -24.3179   -0.2373   27.8436 C.ar    1  UNL1        0.0046
      9 C         -23.6632   -0.4277   29.0855 C.ar    1  UNL1        0.0567
     10 C         -24.3624   -0.6461   30.1936 C.ar    1  UNL1        0.0046
     11 C         -22.1965   -0.1594   29.1256 C.2     1  UNL1        0.2842
     12 N         -21.6176    0.9185   28.7176 N.am    1  UNL1       -0.0837
     13 O         -21.4660   -1.1454   29.4811 O.2     1  UNL1       -0.2667
     14 C         -30.0622   -0.9000   29.8704 C.2     1  UNL1        0.3878
     15 O         -30.7214   -0.1055   30.7167 O.co2   1  UNL1       -0.2406
     16 O         -30.6511   -1.5644   29.0647 O.co2   1  UNL1       -0.2406
@<TRIPOS>BOND
     1     9    11    1
     2    11    12   am
     3    11    13    2
     4     2    14    1
     5    14    15   ar
     6    14    16   ar
     7     1     2   ar
     8     2     5   ar
     9     5     6   ar
    10     6     7   ar
    11     3     1   ar
    12     3     4   ar
    13     4     8   ar
    14     8     9   ar
    15     9    10   ar
    16    10     7   ar
    17     7     3   ar
