@<TRIPOS>MOLECULE
No_1556-gen_results/8p0m/2024-11-27-11-27-31/
 13 14 0 0 0
SMALL
GASTEIGER

@<TRIPOS>ATOM
      1 C         -28.0162   -0.8135   28.8779 C.ar    1  UNL1        0.0000
      2 C         -28.4690   -0.7850   29.8287 C.ar    1  UNL1        0.0000
      3 C         -27.1356    0.2359   28.5352 C.ar    1  UNL1        0.0002
      4 C         -26.8745    1.2825   29.3982 C.ar    1  UNL1        0.0064
      5 C         -27.5070    1.2380   30.6295 C.ar    1  UNL1        0.0002
      6 C         -28.3293    0.1745   30.9350 C.ar    1  UNL1        0.0000
      7 C         -26.4077    0.3070   27.2259 C.ar    1  UNL1        0.0000
      8 C         -25.7128    1.4905   26.9213 C.ar    1  UNL1        0.0002
      9 C         -25.4301    2.4538   27.8655 C.ar    1  UNL1        0.0066
     10 C         -26.0915    2.4163   29.0923 C.ar    1  UNL1        0.0798
     11 C         -25.8331    3.5594   30.0163 C.2     1  UNL1        0.3878
     12 O         -25.9556    4.7662   29.5597 O.co2   1  UNL1       -0.2406
     13 O         -25.4051    3.2981   31.1972 O.co2   1  UNL1       -0.2406
@<TRIPOS>BOND
     1    10    11    1
     2    11    12   ar
     3    11    13   ar
     4     4    10   ar
     5    10     9   ar
     6     9     8   ar
     7     8     7   ar
     8     7     3   ar
     9     1     2   ar
    10     2     6   ar
    11     6     5   ar
    12     5     4   ar
    13     4     3   ar
    14     3     1   ar
