@<TRIPOS>MOLECULE
outputs/IAG933/test6/raw/output_1557_IAG933_linker_design_.xyz
 44 48 0 0 0
SMALL
GASTEIGER

@<TRIPOS>ATOM
      1 C         -24.8550   -1.0120   30.1430 C.3     1  UNL1        0.0437
      2 C         -24.9730   -2.5050   29.7880 C.2     1  UNL1       -0.0208
      3 C         -23.9060   -3.1730   29.1460 C.2     1  UNL1       -0.0042
      4 C         -23.9890   -4.5490   28.8530 C.2     1  UNL1       -0.0003
      5 C         -25.1370   -5.2800   29.2050 C.2     1  UNL1       -0.0000
      6 C         -26.2320   -4.6110   29.7840 C.2     1  UNL1       -0.0003
      7 C         -26.1550   -3.2320   30.0650 C.2     1  UNL1       -0.0042
      8 C         -25.3870   -0.6790   31.5710 C.3     1  UNL1        0.0776
      9 C         -25.1890    0.7730   32.0280 C.3     1  UNL1        0.0279
     10 C         -25.3360    0.6840   33.5440 C.3     1  UNL1        0.0207
     11 C         -24.8290   -0.7150   33.9050 C.3     1  UNL1        0.0887
     12 N         -24.7580   -1.4810   32.6460 N.3     1  UNL1       -0.2191
     13 C         -25.6880    1.6140   26.4610 C.2     1  UNL1        0.0607
     14 C         -26.2500    2.9200   26.3950 C.2     1  UNL1        0.0763
     15 C         -25.6420    4.0930   27.1230 C.2     1  UNL1        0.2662
     16 N         -25.6140    5.2520   26.4490 N.am    1  UNL1       -0.1997
     17 C         -25.0260    6.4790   26.9630 C.3     1  UNL1        0.1388
     18 O         -25.1430    3.9660   28.2430 O.2     1  UNL1       -0.2683
     19 C         -27.4380    3.0910   25.6450 C.2     1  UNL1        0.1065
     20 N         -28.0750    2.0890   25.0030 N.2     1  UNL1       -0.2081
     21 C         -27.5430    0.8490   25.0790 C.2     1  UNL1        0.2531
     22 O         -28.1930   -0.2080   24.4770 O.2     1  UNL1       -0.4558
     23 C         -29.4600    0.0050   23.8660 C.3     1  UNL1        0.2426
     24 C         -30.0650   -1.3770   23.5730 C.3     1  UNL1        0.2292
     25 O         -30.7290   -1.8780   24.7210 O.3     1  UNL1       -0.2162
     26 C         -26.3540    0.5760   25.7770 C.2     1  UNL1        0.1928
     27 F         -25.8600   -0.6810   25.7950 F       1  UNL1       -0.1994
     28 C         -23.0832    1.6020   27.0755 C.3     1  UNL1        0.2691
     29 N         -24.8598    1.3416   28.9327 N.3     1  UNL1       -0.1865
     30 C         -24.7919    2.0811   31.3342 C.3     1  UNL1        0.0974
     31 C         -26.3477    6.7512   31.0863 C.2     1  UNL1        0.0013
     32 C         -25.6248    2.0688   30.0216 C.3     1  UNL1        0.1007
     33 F         -21.8961    1.7493   27.8392 F       1  UNL1       -0.2051
     34 C         -22.8137    2.1804   25.6286 C.3     1  UNL1        0.0713
     35 C         -24.8917    3.2768   32.2629 C.2     1  UNL1        0.2465
     36 C         -25.8272    5.7027   31.9104 C.2     1  UNL1        0.0166
     37 O         -23.4697    0.2562   27.2883 O.3     1  UNL1       -0.3077
     38 N         -26.0564    3.5316   32.9632 N.am    1  UNL1       -0.1792
     39 C         -27.7629    6.8504   30.9502 C.2     1  UNL1        0.0001
     40 C         -28.6003    5.9520   31.6622 C.2     1  UNL1        0.0013
     41 C         -26.6514    4.7802   32.5947 C.2     1  UNL1        0.0734
     42 C         -28.0365    5.0021   32.5433 C.2     1  UNL1        0.0166
     43 C         -24.5167    1.2949   27.4082 C.3     1  UNL1        0.2288
     44 O         -23.9713    4.0423   32.4193 O.2     1  UNL1       -0.2729
@<TRIPOS>BOND
     1     2     7    1
     2     2     1    1
     3     3     2    2
     4     4     3    1
     5     4     5    2
     6     5     6    1
     7     6     7    2
     8     8     1    1
     9     8     9    1
    10     8    12    1
    11     9    30    1
    12     9    10    1
    13    10    11    1
    14    12    11    1
    15    13    43    1
    16    14    13    1
    17    14    15    1
    18    15    18    2
    19    16    17    1
    20    16    15    1
    21    19    14    2
    22    20    21    2
    23    20    19    1
    24    21    26    1
    25    22    21    1
    26    23    22    1
    27    24    23    1
    28    24    25    1
    29    26    27    1
    30    26    13    2
    31    28    34    1
    32    28    37    1
    33    28    43    1
    34    28    33    1
    35    29    32    1
    36    30    32    1
    37    30    35    1
    38    31    36    1
    39    35    44    2
    40    35    38    1
    41    36    41    2
    42    37    43    1
    43    39    31    2
    44    39    40    1
    45    40    42    2
    46    41    38    1
    47    42    41    1
    48    43    29    1
