@<TRIPOS>MOLECULE
outputs/IAG933/test6/raw/output_1559_IAG933_linker_design_.xyz
 46 50 0 0 0
SMALL
GASTEIGER

@<TRIPOS>ATOM
      1 C         -24.8550   -1.0120   30.1430 C.3     1  UNL1        0.0622
      2 C         -24.9730   -2.5050   29.7880 C.2     1  UNL1       -0.0193
      3 C         -23.9060   -3.1730   29.1460 C.2     1  UNL1       -0.0042
      4 C         -23.9890   -4.5490   28.8530 C.2     1  UNL1       -0.0003
      5 C         -25.1370   -5.2800   29.2050 C.2     1  UNL1       -0.0000
      6 C         -26.2320   -4.6110   29.7840 C.2     1  UNL1       -0.0003
      7 C         -26.1550   -3.2320   30.0650 C.2     1  UNL1       -0.0042
      8 C         -25.3870   -0.6790   31.5710 C.3     1  UNL1        0.1251
      9 C         -25.1890    0.7730   32.0280 C.3     1  UNL1        0.2225
     10 C         -25.3360    0.6840   33.5440 C.3     1  UNL1        0.0712
     11 C         -24.8290   -0.7150   33.9050 C.3     1  UNL1        0.0931
     12 N         -24.7580   -1.4810   32.6460 N.3     1  UNL1       -0.2147
     13 C         -25.6880    1.6140   26.4610 C.2     1  UNL1        0.0515
     14 C         -26.2500    2.9200   26.3950 C.2     1  UNL1        0.0777
     15 C         -25.6420    4.0930   27.1230 C.2     1  UNL1        0.2665
     16 N         -25.6140    5.2520   26.4490 N.am    1  UNL1       -0.1997
     17 C         -25.0260    6.4790   26.9630 C.3     1  UNL1        0.1388
     18 O         -25.1430    3.9660   28.2430 O.2     1  UNL1       -0.2683
     19 C         -27.4380    3.0910   25.6450 C.2     1  UNL1        0.1068
     20 N         -28.0750    2.0890   25.0030 N.2     1  UNL1       -0.2081
     21 C         -27.5430    0.8490   25.0790 C.2     1  UNL1        0.2533
     22 O         -28.1930   -0.2080   24.4770 O.2     1  UNL1       -0.4558
     23 C         -29.4600    0.0050   23.8660 C.3     1  UNL1        0.2426
     24 C         -30.0650   -1.3770   23.5730 C.3     1  UNL1        0.2292
     25 O         -30.7290   -1.8780   24.7210 O.3     1  UNL1       -0.2162
     26 C         -26.3540    0.5760   25.7770 C.2     1  UNL1        0.1942
     27 F         -25.8600   -0.6810   25.7950 F       1  UNL1       -0.1992
     28 N         -25.1168    2.1330   31.6040 N.pl3   1  UNL1       -0.0310
     29 O         -23.8039    3.6955   32.1221 O.3     1  UNL1       -0.1911
     30 C         -24.9958    3.7824   32.7066 C.3     1  UNL1        0.3267
     31 C         -23.2323    0.3785   28.9811 C.3     1  UNL1        0.1198
     32 N         -26.5525    3.6933   31.0361 N.2     1  UNL1        0.1963
     33 F         -20.9471    2.1381   27.2189 F       1  UNL1       -0.2044
     34 C         -22.1088    1.5683   27.5168 C.2     1  UNL1        0.1388
     35 C         -24.2340    6.4980   34.5907 C.3     1  UNL1        0.0175
     36 N         -25.2811    5.1765   33.0070 N.3     1  UNL1       -0.2381
     37 C         -25.4505    6.4686   35.3440 C.3     1  UNL1        0.0029
     38 C         -24.3606    6.2095   33.1980 C.3     1  UNL1        0.0749
     39 C         -23.2613    1.8005   26.7945 C.2     1  UNL1        0.0439
     40 C         -22.0871    0.8256   28.6152 C.2     1  UNL1        0.0249
     41 C         -26.5191    5.4257   33.6262 C.3     1  UNL1        0.0749
     42 C         -25.6088    3.2430   31.7132 C.2     1  UNL1        0.4356
     43 N         -24.3974    0.5443   28.3660 N.pl3   1  UNL1       -0.3030
     44 C         -25.4467   -0.1779   29.0158 C.3     1  UNL1        0.0969
     45 C         -26.5483    6.5711   34.4763 C.3     1  UNL1        0.0175
     46 C         -24.4429    1.2736   27.2773 C.2     1  UNL1        0.0528
@<TRIPOS>BOND
     1     1    44    1
     2     2     7    1
     3     2     1    1
     4     3     2    2
     5     4     3    1
     6     4     5    2
     7     5     6    1
     8     6     7    2
     9     8     1    1
    10     8     9    1
    11     8    12    1
    12     9    28    1
    13     9    10    1
    14    10    11    1
    15    12    11    1
    16    13    46    1
    17    14    13    1
    18    14    15    1
    19    15    18    2
    20    16    17    1
    21    16    15    1
    22    19    14    2
    23    20    21    2
    24    20    19    1
    25    21    26    1
    26    22    21    1
    27    23    22    1
    28    24    23    1
    29    24    25    1
    30    26    27    1
    31    26    13    2
    32    28    42    1
    33    30    29    1
    34    30    36    1
    35    32    42    2
    36    33    34    1
    37    34    40    2
    38    35    37    1
    39    36    38    1
    40    36    41    1
    41    38    35    1
    42    39    46    2
    43    39    34    1
    44    40    31    1
    45    41    45    1
    46    42    30    1
    47    43    31    1
    48    43    44    1
    49    45    37    1
    50    46    43    1
