@<TRIPOS>MOLECULE
No_156-gen_results/8p0m/2024-11-27-11-27-31/
 35 37 0 0 0
SMALL
GASTEIGER

@<TRIPOS>ATOM
      1 C         -28.0162   -0.8135   28.8779 C.ar    1  UNL1        0.0225
      2 C         -28.4690   -0.7850   29.8287 C.ar    1  UNL1        0.0585
      3 C         -27.0871    0.2903   28.6377 C.ar    1  UNL1        0.0549
      4 C         -26.8317    1.2487   29.5869 C.ar    1  UNL1       -0.0065
      5 C         -28.3914    0.0801   31.0065 C.ar    1  UNL1        0.0111
      6 C         -27.4940    1.1521   30.7841 C.ar    1  UNL1       -0.0022
      7 CL        -26.2087    0.3944   27.1645 Cl      1  UNL1       -0.0825
      8 CL        -29.6049   -2.1684   30.2564 Cl      1  UNL1       -0.0822
      9 C         -25.8849    2.3744   29.3265 C.3     1  UNL1        0.0600
     10 C         -24.5724    2.2201   29.3899 C.3     1  UNL1        0.0699
     11 C         -26.4265    3.6500   28.9619 C.2     1  UNL1       -0.0207
     12 N         -23.9523    1.4617   30.3019 N.3     1  UNL1       -0.2718
     13 C         -25.7640    4.4540   28.0382 C.2     1  UNL1       -0.0045
     14 C         -24.9709    4.2011   27.3655 C.2     1  UNL1       -0.0049
     15 C         -23.7099    3.3421   27.4237 C.2     1  UNL1       -0.0247
     16 C         -23.5374    2.5863   28.4648 C.3     1  UNL1        0.0426
     17 C         -23.2053    0.3207   30.0769 C.3     1  UNL1        0.0721
     18 C         -24.2902    1.7584   31.7696 C.3     1  UNL1        0.0896
     19 C         -23.6033   -0.8814   30.7670 C.3     1  UNL1        0.0177
     20 C         -24.7232   -1.5326   30.1910 C.3     1  UNL1        0.0061
     21 C         -24.3121   -2.5774   29.2696 C.3     1  UNL1        0.0257
     22 C         -25.1964   -3.7362   29.1571 C.2     1  UNL1       -0.0307
     23 C         -26.4661   -3.6098   29.7672 C.2     1  UNL1       -0.0304
     24 C         -27.3425   -4.6820   29.6564 C.3     1  UNL1        0.0304
     25 C         -28.4737   -4.5969   30.3788 C.3     1  UNL1        0.0307
     26 C         -29.3915   -5.8369   30.4757 C.2     1  UNL1       -0.0258
     27 C         -30.7090   -5.7886   30.8177 C.2     1  UNL1       -0.0043
     28 C         -31.4936   -6.8263   30.7515 C.ar    1  UNL1       -0.0003
     29 C         -30.9392   -8.0006   30.2719 C.ar    1  UNL1       -0.0000
     30 C         -31.7897   -9.1661   30.1932 C.ar    1  UNL1       -0.0000
     31 C         -33.0758   -9.0596   30.4373 C.ar    1  UNL1       -0.0000
     32 C         -33.6583   -7.9075   30.8399 C.ar    1  UNL1       -0.0000
     33 C         -32.8951   -6.7796   31.0015 C.ar    1  UNL1       -0.0000
     34 C         -31.2158   -4.4466   31.1905 C.2     1  UNL1       -0.0003
     35 C         -31.7973   -4.3857   32.4346 C.2     1  UNL1       -0.0000
@<TRIPOS>BOND
     1     3     7    1
     2     2     8    1
     3     4     9    1
     4     9    10    1
     5     9    11    1
     6    10    12    1
     7    11    13    2
     8    13    14    1
     9    14    15    2
    10    10    16    1
    11    15    16    1
    12    12    17    1
    13    12    18    1
    14    17    19    1
    15    19    20    1
    16    20    21    1
    17    21    22    1
    18    22    23    2
    19    23    24    1
    20    24    25    1
    21    25    26    1
    22    26    27    2
    23    27    28    1
    24    27    34    1
    25    34    35    2
    26    28    29   ar
    27    29    30   ar
    28    30    31   ar
    29    31    32   ar
    30    32    33   ar
    31    33    28   ar
    32     1     2   ar
    33     2     5   ar
    34     5     6   ar
    35     6     4   ar
    36     4     3   ar
    37     3     1   ar
