@<TRIPOS>MOLECULE
No_1561-gen_results/8p0m/2024-11-27-11-27-31/
 9 8 0 0 0
SMALL
GASTEIGER

@<TRIPOS>ATOM
      1 N         -28.0544   -1.0498   28.7246 N.3     1  UNL1       -0.2162
      2 C         -28.6544   -0.5669   29.5076 C.3     1  UNL1        0.1075
      3 C         -26.6945   -1.3221   29.0236 C.3     1  UNL1        0.0934
      4 C         -25.6511   -1.1026   28.1645 C.3     1  UNL1        0.0448
      5 C         -25.5937    0.1450   27.4821 C.2     1  UNL1       -0.0247
      6 C         -24.3753    0.7888   27.4353 C.2     1  UNL1       -0.0049
      7 C         -23.2314    0.3370   28.1315 C.2     1  UNL1       -0.0049
      8 C         -21.9708    0.9993   28.0925 C.2     1  UNL1       -0.0258
      9 C         -21.9322    2.0860   27.1684 C.3     1  UNL1        0.0307
@<TRIPOS>BOND
     1     1     2    1
     2     1     3    1
     3     3     4    1
     4     4     5    1
     5     5     6    2
     6     6     7    1
     7     7     8    2
     8     8     9    1
