@<TRIPOS>MOLECULE
No_1565-gen_results/8p0m/2024-11-27-11-27-31/
 9 9 0 0 0
SMALL
GASTEIGER

@<TRIPOS>ATOM
      1 C         -28.0162   -0.8135   28.8779 C.3     1  UNL1        0.0044
      2 C         -27.0636   -0.1190   28.6079 C.3     1  UNL1        0.0221
      3 C         -25.7923   -0.4302   29.0761 C.2     1  UNL1       -0.0426
      4 C         -24.6321    0.3096   28.7290 C.2     1  UNL1        0.0140
      5 C         -27.8949   -1.8615   29.8946 C.3     1  UNL1        0.0007
      6 C         -26.6706   -2.2977   30.3374 C.3     1  UNL1        0.0044
      7 C         -25.5508   -1.5631   29.9406 C.3     1  UNL1        0.0221
      8 C         -24.0654    1.2918   29.4219 C.2     1  UNL1        0.1215
      9 N         -23.1872    1.9287   29.1615 N.2     1  UNL1       -0.1464
@<TRIPOS>BOND
     1     1     2    1
     2     2     3    1
     3     3     4    2
     4     1     5    1
     5     5     6    1
     6     3     7    1
     7     6     7    1
     8     4     8    1
     9     8     9    2
