@<TRIPOS>MOLECULE
No_1567-gen_results/8p0m/2024-11-27-11-27-31/
 16 17 0 0 0
SMALL
GASTEIGER

@<TRIPOS>ATOM
      1 C         -28.0162   -0.8135   28.8779 C.ar    1  UNL1        0.0160
      2 C         -27.0636   -0.1190   28.6079 C.ar    1  UNL1        0.0578
      3 C         -25.7923   -0.4302   29.0761 C.ar    1  UNL1        0.0114
      4 C         -25.5756   -1.5654   29.9363 C.ar    1  UNL1        0.0010
      5 C         -26.7354   -2.3004   30.2173 C.ar    1  UNL1        0.0046
      6 C         -27.9184   -1.9537   29.7629 C.ar    1  UNL1        0.0562
      7 CL        -27.1463    1.2916   27.6407 Cl      1  UNL1       -0.0822
      8 C         -29.0683   -2.7883   30.1813 C.2     1  UNL1        0.2690
      9 N         -30.1887   -2.3151   30.1701 N.am    1  UNL1       -0.1754
     10 O         -28.8686   -3.9786   30.6030 O.2     1  UNL1       -0.2680
     11 C         -31.4204   -3.0585   30.5216 C.ar    1  UNL1        0.0737
     12 C         -32.4044   -2.4891   30.7664 C.ar    1  UNL1        0.0166
     13 C         -33.3553   -2.9397   31.4881 C.ar    1  UNL1        0.0013
     14 C         -33.3351   -4.3744   31.7879 C.ar    1  UNL1        0.0001
     15 C         -32.2110   -5.0808   31.4674 C.ar    1  UNL1        0.0013
     16 C         -31.1426   -4.4059   30.9265 C.ar    1  UNL1        0.0166
@<TRIPOS>BOND
     1     2     7    1
     2     6     8    1
     3     8     9   am
     4     8    10    2
     5     9    11    1
     6    11    12   ar
     7    12    13   ar
     8    13    14   ar
     9    14    15   ar
    10    15    16   ar
    11    16    11   ar
    12     1     2   ar
    13     2     3   ar
    14     3     4   ar
    15     4     5   ar
    16     5     6   ar
    17     6     1   ar
