@<TRIPOS>MOLECULE
No_1568-gen_results/8p0m/2024-11-27-11-27-31/
 16 18 0 0 0
SMALL
GASTEIGER

@<TRIPOS>ATOM
      1 C         -28.0162   -0.8135   28.8779 C.ar    1  UNL1       -0.0046
      2 C         -28.4690   -0.7850   29.8287 C.ar    1  UNL1       -0.0003
      3 C         -26.5042   -0.7777   28.8766 C.ar    1  UNL1       -0.0258
      4 C         -25.6540   -0.6597   27.7191 C.3     1  UNL1        0.0307
      5 C         -27.9180   -0.9374   31.1824 C.ar    1  UNL1       -0.0003
      6 C         -26.5423   -0.9399   31.2606 C.ar    1  UNL1       -0.0046
      7 C         -25.7832   -0.8935   30.1201 C.ar    1  UNL1       -0.0258
      8 C         -25.9259    0.2819   26.7445 C.3     1  UNL1        0.0307
      9 C         -25.6258    1.4719   26.8191 C.ar    1  UNL1       -0.0258
     10 C         -25.9389    2.3920   25.7413 C.ar    1  UNL1       -0.0046
     11 C         -25.6437    3.7699   25.9524 C.ar    1  UNL1       -0.0003
     12 C         -24.8904    4.1990   27.0799 C.ar    1  UNL1       -0.0003
     13 C         -24.9258    2.0528   27.9605 C.ar    1  UNL1       -0.0258
     14 C         -24.4871    1.2229   29.0610 C.3     1  UNL1        0.0307
     15 C         -24.6070    3.4462   28.0210 C.ar    1  UNL1       -0.0046
     16 C         -24.9610    0.5215   30.1863 C.3     1  UNL1        0.0307
@<TRIPOS>BOND
     1     3     4    1
     2     4     8    1
     3    13    14    1
     4     7    16    1
     5    14    16    1
     6     8     9    1
     7     9    10   ar
     8    10    11   ar
     9    11    12   ar
    10    12    15   ar
    11    15    13   ar
    12    13     9   ar
    13     1     2   ar
    14     2     5   ar
    15     5     6   ar
    16     6     7   ar
    17     7     3   ar
    18     3     1   ar
