@<TRIPOS>MOLECULE
outputs/IAG933/test6/raw/output_1570_IAG933_linker_design_.xyz
 41 44 0 0 0
SMALL
GASTEIGER

@<TRIPOS>ATOM
      1 C         -24.8550   -1.0120   30.1430 C.3     1  UNL1        0.1163
      2 C         -24.9730   -2.5050   29.7880 C.2     1  UNL1       -0.0125
      3 C         -23.9060   -3.1730   29.1460 C.2     1  UNL1       -0.0038
      4 C         -23.9890   -4.5490   28.8530 C.2     1  UNL1       -0.0003
      5 C         -25.1370   -5.2800   29.2050 C.2     1  UNL1       -0.0000
      6 C         -26.2320   -4.6110   29.7840 C.2     1  UNL1       -0.0003
      7 C         -26.1550   -3.2320   30.0650 C.2     1  UNL1       -0.0038
      8 C         -25.3870   -0.6790   31.5710 C.3     1  UNL1        0.0855
      9 C         -25.1890    0.7730   32.0280 C.3     1  UNL1        0.0197
     10 C         -25.3360    0.6840   33.5440 C.3     1  UNL1        0.0203
     11 C         -24.8290   -0.7150   33.9050 C.3     1  UNL1        0.0887
     12 N         -24.7580   -1.4810   32.6460 N.3     1  UNL1       -0.2186
     13 C         -25.6880    1.6140   26.4610 C.3     1  UNL1        0.0944
     14 C         -26.2500    2.9200   26.3950 C.2     1  UNL1        0.0568
     15 C         -25.6420    4.0930   27.1230 C.2     1  UNL1        0.2625
     16 N         -25.6140    5.2520   26.4490 N.am    1  UNL1       -0.2000
     17 C         -25.0260    6.4790   26.9630 C.3     1  UNL1        0.1388
     18 O         -25.1430    3.9660   28.2430 O.2     1  UNL1       -0.2687
     19 C         -27.4380    3.0910   25.6450 C.2     1  UNL1        0.1022
     20 N         -28.0750    2.0890   25.0030 N.2     1  UNL1       -0.2119
     21 C         -27.5430    0.8490   25.0790 C.2     1  UNL1        0.2342
     22 O         -28.1930   -0.2080   24.4770 O.2     1  UNL1       -0.4585
     23 C         -29.4600    0.0050   23.8660 C.3     1  UNL1        0.2423
     24 C         -30.0650   -1.3770   23.5730 C.3     1  UNL1        0.2292
     25 O         -30.7290   -1.8780   24.7210 O.3     1  UNL1       -0.2162
     26 C         -26.3540    0.5760   25.7770 C.3     1  UNL1        0.2420
     27 F         -25.8600   -0.6810   25.7950 F       1  UNL1       -0.2268
     28 C         -25.7526   -0.3789   29.0439 C.2     1  UNL1        0.2466
     29 O         -21.1001    1.0617   28.3030 O.2     1  UNL1       -0.4342
     30 F         -23.8031    1.8689   24.8764 F       1  UNL1       -0.1657
     31 C         -23.0448    2.6763   25.6531 C.3     1  UNL1        0.4214
     32 C         -22.5282    1.9490   26.7849 C.2     1  UNL1        0.1109
     33 C         -23.2965    1.2188   27.6420 C.2     1  UNL1        0.0572
     34 O         -26.9917   -0.2301   29.1716 O.2     1  UNL1       -0.2729
     35 F         -23.5714    3.8236   26.0265 F       1  UNL1       -0.1657
     36 N         -25.1617   -0.2123   27.9004 N.am    1  UNL1       -0.2018
     37 C         -21.1795    1.9138   27.1850 C.2     1  UNL1        0.1850
     38 C         -22.3286    0.5956   28.5811 C.2     1  UNL1        0.2324
     39 C         -24.7938    1.2140   27.6139 C.3     1  UNL1        0.1292
     40 N         -22.3802   -0.3025   29.6260 N.pl3   1  UNL1       -0.0880
     41 F         -22.1267    2.9962   24.6917 F       1  UNL1       -0.1657
@<TRIPOS>BOND
     1     1    28    1
     2     2     7    1
     3     2     1    1
     4     3     2    2
     5     4     3    1
     6     4     5    2
     7     5     6    1
     8     6     7    2
     9     8     1    1
    10     8     9    1
    11     8    12    1
    12     9    10    1
    13    10    11    1
    14    12    11    1
    15    13    39    1
    16    14    13    1
    17    14    15    1
    18    15    18    2
    19    16    17    1
    20    16    15    1
    21    19    14    2
    22    20    21    2
    23    20    19    1
    24    21    26    1
    25    22    21    1
    26    23    22    1
    27    24    23    1
    28    24    25    1
    29    26    27    1
    30    26    13    1
    31    28    34    2
    32    29    38    1
    33    30    31    1
    34    31    35    1
    35    31    32    1
    36    32    37    2
    37    32    33    1
    38    33    38    2
    39    36    28    1
    40    37    29    1
    41    38    40    1
    42    39    33    1
    43    39    36    1
    44    41    31    1
