@<TRIPOS>MOLECULE
No_1572-gen_results/8p0m/2024-11-27-11-27-31/
 25 28 0 0 0
SMALL
GASTEIGER

@<TRIPOS>ATOM
      1 C         -28.0162   -0.8135   28.8779 C.ar    1  UNL1        0.0265
      2 C         -28.4690   -0.7850   29.8287 C.ar    1  UNL1        0.0564
      3 C         -26.5455   -0.8762   28.8500 C.ar    1  UNL1        0.0589
      4 C         -25.8041   -1.0324   30.0571 C.ar    1  UNL1        0.0115
      5 C         -27.9437   -0.9869   31.2075 C.ar    1  UNL1        0.0152
      6 C         -26.5825   -1.0386   31.2231 C.ar    1  UNL1        0.0022
      7 N         -29.9648   -0.7353   29.8902 N.pl3   1  UNL1       -0.2656
      8 C         -30.7710   -1.5353   30.3549 C.ar    1  UNL1        0.0556
      9 C         -30.4814   -2.5338   30.9481 C.ar    1  UNL1        0.0151
     10 C         -31.4460   -3.5884   31.4600 C.ar    1  UNL1        0.0013
     11 C         -32.7028   -3.2127   31.2217 C.ar    1  UNL1        0.0001
     12 C         -32.1672   -1.3752   30.1789 C.ar    1  UNL1        0.0151
     13 C         -33.0877   -2.1674   30.5698 C.ar    1  UNL1        0.0013
     14 C         -30.3680    0.4787   29.1492 C.ar    1  UNL1        0.0556
     15 C         -30.5956    0.4629   27.8102 C.ar    1  UNL1        0.0148
     16 C         -31.0117    1.5634   27.2144 C.ar    1  UNL1        0.0118
     17 C         -30.6575    1.5872   29.9219 C.ar    1  UNL1        0.0160
     18 C         -31.0934    2.7443   29.3481 C.ar    1  UNL1        0.0127
     19 C         -31.2923    2.7408   27.9625 C.ar    1  UNL1        0.0577
     20 CL        -25.5520   -0.7521   27.4257 Cl      1  UNL1       -0.0822
     21 C         -31.2081    1.5886   25.7384 C.ar    1  UNL1        0.0009
     22 C         -30.5211    0.8136   24.9908 C.ar    1  UNL1        0.0000
     23 C         -29.4889   -0.0082   25.5552 C.ar    1  UNL1        0.0000
     24 C         -29.6587   -0.3519   26.9616 C.ar    1  UNL1        0.0013
     25 CL        -31.9743    4.1141   27.2062 Cl      1  UNL1       -0.0822
@<TRIPOS>BOND
     1     2     7    1
     2     7     8    1
     3     7    14    1
     4     3    20    1
     5    19    25    1
     6    16    21   ar
     7    21    22   ar
     8    22    23   ar
     9    23    24   ar
    10    24    15   ar
    11     1     2   ar
    12     2     5   ar
    13     5     6   ar
    14     6     4   ar
    15     4     3   ar
    16     3     1   ar
    17    14    15   ar
    18    15    16   ar
    19    16    19   ar
    20    19    18   ar
    21    18    17   ar
    22    17    14   ar
    23     8     9   ar
    24     9    10   ar
    25    10    11   ar
    26    11    13   ar
    27    13    12   ar
    28    12     8   ar
