@<TRIPOS>MOLECULE
outputs/IAG933/test6/raw/output_1573_IAG933_linker_design_.xyz
 47 51 0 0 0
SMALL
GASTEIGER

@<TRIPOS>ATOM
      1 C         -24.8550   -1.0120   30.1430 C.3     1  UNL1        0.0543
      2 C         -24.9730   -2.5050   29.7880 C.2     1  UNL1       -0.0198
      3 C         -23.9060   -3.1730   29.1460 C.2     1  UNL1       -0.0042
      4 C         -23.9890   -4.5490   28.8530 C.2     1  UNL1       -0.0003
      5 C         -25.1370   -5.2800   29.2050 C.2     1  UNL1       -0.0000
      6 C         -26.2320   -4.6110   29.7840 C.2     1  UNL1       -0.0003
      7 C         -26.1550   -3.2320   30.0650 C.2     1  UNL1       -0.0042
      8 C         -25.3870   -0.6790   31.5710 C.3     1  UNL1        0.0782
      9 C         -25.1890    0.7730   32.0280 C.3     1  UNL1        0.0192
     10 C         -25.3360    0.6840   33.5440 C.3     1  UNL1        0.0202
     11 C         -24.8290   -0.7150   33.9050 C.3     1  UNL1        0.0887
     12 N         -24.7580   -1.4810   32.6460 N.3     1  UNL1       -0.2191
     13 C         -25.6880    1.6140   26.4610 C.2     1  UNL1        0.0343
     14 C         -26.2500    2.9200   26.3950 C.2     1  UNL1        0.0741
     15 C         -25.6420    4.0930   27.1230 C.2     1  UNL1        0.2662
     16 N         -25.6140    5.2520   26.4490 N.am    1  UNL1       -0.1997
     17 C         -25.0260    6.4790   26.9630 C.3     1  UNL1        0.1388
     18 O         -25.1430    3.9660   28.2430 O.2     1  UNL1       -0.2683
     19 C         -27.4380    3.0910   25.6450 C.2     1  UNL1        0.1065
     20 N         -28.0750    2.0890   25.0030 N.2     1  UNL1       -0.2081
     21 C         -27.5430    0.8490   25.0790 C.2     1  UNL1        0.2530
     22 O         -28.1930   -0.2080   24.4770 O.2     1  UNL1       -0.4558
     23 C         -29.4600    0.0050   23.8660 C.3     1  UNL1        0.2426
     24 C         -30.0650   -1.3770   23.5730 C.3     1  UNL1        0.2292
     25 O         -30.7290   -1.8780   24.7210 O.3     1  UNL1       -0.2162
     26 C         -26.3540    0.5760   25.7770 C.2     1  UNL1        0.1907
     27 F         -25.8600   -0.6810   25.7950 F       1  UNL1       -0.1995
     28 O         -21.0550    1.8141   26.9801 O.2     1  UNL1       -0.3305
     29 C         -27.0559    5.6463   29.8633 C.2     1  UNL1        0.0103
     30 C         -26.6623    3.5974   31.1465 C.2     1  UNL1        0.0145
     31 C         -29.3196    4.0758   28.5260 C.3     1  UNL1        0.1122
     32 C         -26.2554    6.3207   30.7895 C.2     1  UNL1       -0.0206
     33 C         -22.7781    1.9432   25.6660 C.3     1  UNL1        0.2226
     34 C         -28.1813    2.1776   29.3276 C.3     1  UNL1        0.0923
     35 N         -28.1902    3.6435   29.2847 N.pl3   1  UNL1       -0.3058
     36 C         -25.4919    5.6492   31.7511 C.2     1  UNL1       -0.0042
     37 C         -27.3406    4.2762   30.1026 C.2     1  UNL1        0.0476
     38 C         -24.0661   -0.1820   29.2317 C.3     1  UNL1        0.0783
     39 C         -26.6906    1.9088   29.1355 C.3     1  UNL1        0.0387
     40 C         -22.0391    1.5216   27.7245 C.2     1  UNL1        0.2158
     41 C         -26.3299    7.7554   30.7969 C.3     1  UNL1        0.0311
     42 C         -23.1929    1.5184   26.9487 C.2     1  UNL1        0.0491
     43 C         -26.4194    0.5945   28.6792 C.3     1  UNL1        0.0744
     44 C         -24.5251    1.1393   27.3135 C.3     1  UNL1        0.1072
     45 O         -21.5723    2.1289   25.6889 O.3     1  UNL1       -0.1679
     46 C         -25.6603    4.2503   31.8834 C.2     1  UNL1        0.0009
     47 N         -24.9238    0.4302   28.2994 N.3     1  UNL1       -0.2665
@<TRIPOS>BOND
     1     1    38    1
     2     2     7    1
     3     2     1    1
     4     3     2    2
     5     4     3    1
     6     4     5    2
     7     5     6    1
     8     6     7    2
     9     8     1    1
    10     8     9    1
    11     8    12    1
    12     9    10    1
    13    10    11    1
    14    12    11    1
    15    13    44    1
    16    14    13    1
    17    14    15    1
    18    15    18    2
    19    16    17    1
    20    16    15    1
    21    19    14    2
    22    20    21    2
    23    20    19    1
    24    21    26    1
    25    22    21    1
    26    23    22    1
    27    24    23    1
    28    24    25    1
    29    26    27    1
    30    26    13    2
    31    28    40    1
    32    29    37    2
    33    29    32    1
    34    30    46    2
    35    31    35    1
    36    32    41    1
    37    32    36    2
    38    33    45    1
    39    33    42    1
    40    35    34    1
    41    35    37    1
    42    36    46    1
    43    37    30    1
    44    39    34    1
    45    42    44    1
    46    42    40    2
    47    43    39    1
    48    44    47    1
    49    45    28    1
    50    47    43    1
    51    47    38    1
