@<TRIPOS>MOLECULE
outputs/IAG933/test6/raw/output_1574_IAG933_linker_design_.xyz
 42 46 0 0 0
SMALL
GASTEIGER

@<TRIPOS>ATOM
      1 C         -24.8550   -1.0120   30.1430 C.3     1  UNL1        0.1283
      2 C         -24.9730   -2.5050   29.7880 C.2     1  UNL1       -0.0003
      3 C         -23.9060   -3.1730   29.1460 C.2     1  UNL1       -0.0024
      4 C         -23.9890   -4.5490   28.8530 C.2     1  UNL1       -0.0003
      5 C         -25.1370   -5.2800   29.2050 C.2     1  UNL1       -0.0000
      6 C         -26.2320   -4.6110   29.7840 C.2     1  UNL1       -0.0003
      7 C         -26.1550   -3.2320   30.0650 C.2     1  UNL1       -0.0024
      8 C         -25.3870   -0.6790   31.5710 C.3     1  UNL1        0.0978
      9 C         -25.1890    0.7730   32.0280 C.3     1  UNL1        0.0211
     10 C         -25.3360    0.6840   33.5440 C.3     1  UNL1        0.0203
     11 C         -24.8290   -0.7150   33.9050 C.3     1  UNL1        0.0888
     12 N         -24.7580   -1.4810   32.6460 N.3     1  UNL1       -0.2172
     13 C         -25.6880    1.6140   26.4610 C.3     1  UNL1        0.1599
     14 C         -26.2500    2.9200   26.3950 C.2     1  UNL1        0.0758
     15 C         -25.6420    4.0930   27.1230 C.2     1  UNL1        0.2642
     16 N         -25.6140    5.2520   26.4490 N.am    1  UNL1       -0.1999
     17 C         -25.0260    6.4790   26.9630 C.3     1  UNL1        0.1388
     18 O         -25.1430    3.9660   28.2430 O.2     1  UNL1       -0.2686
     19 C         -27.4380    3.0910   25.6450 C.2     1  UNL1        0.1040
     20 N         -28.0750    2.0890   25.0030 N.2     1  UNL1       -0.2117
     21 C         -27.5430    0.8490   25.0790 C.2     1  UNL1        0.2361
     22 O         -28.1930   -0.2080   24.4770 O.2     1  UNL1       -0.4585
     23 C         -29.4600    0.0050   23.8660 C.3     1  UNL1        0.2423
     24 C         -30.0650   -1.3770   23.5730 C.3     1  UNL1        0.2292
     25 O         -30.7290   -1.8780   24.7210 O.3     1  UNL1       -0.2162
     26 C         -26.3540    0.5760   25.7770 C.3     1  UNL1        0.2608
     27 F         -25.8600   -0.6810   25.7950 F       1  UNL1       -0.2248
     28 C         -21.3204    1.3214   27.9623 C.ar    1  UNL1        0.2513
     29 O         -26.9319   -0.1828   28.5445 O.2     1  UNL1       -0.2463
     30 N         -25.1091    0.9937   27.4740 N.ar    1  UNL1       -0.2731
     31 N         -21.6992    1.7508   26.7313 N.ar    1  UNL1       -0.2133
     32 C         -25.7757    0.2552   28.3957 C.ar    1  UNL1        0.3322
     33 C         -23.5576    1.7250   25.0722 C.3     1  UNL1        0.3597
     34 C         -22.1411    0.5605   28.8336 C.ar    1  UNL1        0.2029
     35 N         -24.7246   -0.0267   29.1198 N.ar    1  UNL1       -0.2743
     36 F         -21.6746    0.0323   29.9320 F       1  UNL1       -0.1985
     37 C         -22.9681    1.5007   26.4591 C.ar    1  UNL1        0.1446
     38 F         -20.1177    1.7157   28.3590 F       1  UNL1       -0.1807
     39 F         -23.8644    0.8170   24.2380 F       1  UNL1       -0.1915
     40 F         -23.8388    2.9972   24.8325 F       1  UNL1       -0.1915
     41 C         -23.8908    1.0437   27.3598 C.ar    1  UNL1        0.1014
     42 C         -23.5405    0.4594   28.5413 C.ar    1  UNL1        0.1126
@<TRIPOS>BOND
     1     1     2    1
     2     2     7    1
     3     3     2    2
     4     4     3    1
     5     4     5    2
     6     5     6    1
     7     6     7    2
     8     8     1    1
     9     8     9    1
    10     8    12    1
    11     9    10    1
    12    10    11    1
    13    12    11    1
    14    13    30    1
    15    14    13    1
    16    14    15    1
    17    15    18    2
    18    16    17    1
    19    16    15    1
    20    19    14    2
    21    20    21    2
    22    20    19    1
    23    21    26    1
    24    22    21    1
    25    23    22    1
    26    24    23    1
    27    24    25    1
    28    26    27    1
    29    26    13    1
    30    28    38    1
    31    28    34   ar
    32    30    32   ar
    33    31    28   ar
    34    32    29    2
    35    32    35   ar
    36    33    37    1
    37    34    36    1
    38    35     1    1
    39    37    31   ar
    40    37    41   ar
    41    39    33    1
    42    40    33    1
    43    41    30   ar
    44    41    42   ar
    45    42    34   ar
    46    42    35   ar
