@<TRIPOS>MOLECULE
outputs/IAG933/test6/raw/output_1575_IAG933_linker_design_.xyz
 45 49 0 0 0
SMALL
GASTEIGER

@<TRIPOS>ATOM
      1 C         -24.8550   -1.0120   30.1430 C.3     1  UNL1        0.1138
      2 C         -24.9730   -2.5050   29.7880 C.2     1  UNL1       -0.0029
      3 C         -23.9060   -3.1730   29.1460 C.2     1  UNL1       -0.0026
      4 C         -23.9890   -4.5490   28.8530 C.2     1  UNL1       -0.0003
      5 C         -25.1370   -5.2800   29.2050 C.2     1  UNL1       -0.0000
      6 C         -26.2320   -4.6110   29.7840 C.2     1  UNL1       -0.0003
      7 C         -26.1550   -3.2320   30.0650 C.2     1  UNL1       -0.0026
      8 C         -25.3870   -0.6790   31.5710 C.3     1  UNL1        0.0951
      9 C         -25.1890    0.7730   32.0280 C.3     1  UNL1        0.0209
     10 C         -25.3360    0.6840   33.5440 C.3     1  UNL1        0.0203
     11 C         -24.8290   -0.7150   33.9050 C.3     1  UNL1        0.0888
     12 N         -24.7580   -1.4810   32.6460 N.3     1  UNL1       -0.2174
     13 C         -25.6880    1.6140   26.4610 C.2     1  UNL1        0.0266
     14 C         -26.2500    2.9200   26.3950 C.2     1  UNL1        0.0731
     15 C         -25.6420    4.0930   27.1230 C.2     1  UNL1        0.2661
     16 N         -25.6140    5.2520   26.4490 N.am    1  UNL1       -0.1997
     17 C         -25.0260    6.4790   26.9630 C.3     1  UNL1        0.1388
     18 O         -25.1430    3.9660   28.2430 O.2     1  UNL1       -0.2683
     19 C         -27.4380    3.0910   25.6450 C.2     1  UNL1        0.1064
     20 N         -28.0750    2.0890   25.0030 N.2     1  UNL1       -0.2081
     21 C         -27.5430    0.8490   25.0790 C.2     1  UNL1        0.2530
     22 O         -28.1930   -0.2080   24.4770 O.2     1  UNL1       -0.4558
     23 C         -29.4600    0.0050   23.8660 C.3     1  UNL1        0.2426
     24 C         -30.0650   -1.3770   23.5730 C.3     1  UNL1        0.2292
     25 O         -30.7290   -1.8780   24.7210 O.3     1  UNL1       -0.2162
     26 C         -26.3540    0.5760   25.7770 C.2     1  UNL1        0.1896
     27 F         -25.8600   -0.6810   25.7950 F       1  UNL1       -0.1996
     28 C         -22.7823    0.1139   29.5578 C.3     1  UNL1        0.1234
     29 C         -21.0671    1.9334   27.3084 C.3     1  UNL1        0.1222
     30 N         -24.1136   -0.1123   29.2522 N.am    1  UNL1       -0.2732
     31 C         -22.3942    1.8247   27.8806 C.3     1  UNL1        0.0842
     32 C         -23.4037    3.0756   30.8676 C.3     1  UNL1        0.3289
     33 O         -23.3097    2.2891   25.8993 O.3     1  UNL1       -0.3526
     34 O         -23.6835    3.5513   31.8101 O.3     1  UNL1       -0.1841
     35 C         -24.5610    1.0998   27.2360 C.3     1  UNL1        0.1286
     36 O         -25.4101   -1.0748   27.7579 O.2     1  UNL1       -0.2744
     37 O         -23.1811    2.3016   30.0368 O.3     1  UNL1       -0.3253
     38 C         -22.6027    1.5113   29.1973 C.3     1  UNL1        0.1424
     39 O         -20.3341    2.9099   26.2453 O.3     1  UNL1       -0.3584
     40 C         -23.4209    1.7212   26.9465 C.3     1  UNL1        0.1327
     41 C         -19.2587    2.7383   27.2051 C.3     1  UNL1        0.1176
     42 C         -22.9940    3.5883   25.4129 C.3     1  UNL1        0.1740
     43 C         -19.9153    1.5985   28.0267 C.3     1  UNL1        0.0592
     44 C         -18.9416    4.0990   27.8650 C.3     1  UNL1        0.0321
     45 C         -24.8122    0.0031   28.0935 C.2     1  UNL1        0.2320
@<TRIPOS>BOND
     1     1     2    1
     2     2     7    1
     3     3     2    2
     4     4     3    1
     5     4     5    2
     6     5     6    1
     7     6     7    2
     8     8     1    1
     9     8     9    1
    10     8    12    1
    11     9    10    1
    12    10    11    1
    13    12    11    1
    14    14    13    1
    15    14    15    1
    16    15    18    2
    17    16    17    1
    18    16    15    1
    19    19    14    2
    20    20    21    2
    21    20    19    1
    22    21    26    1
    23    22    21    1
    24    23    22    1
    25    24    23    1
    26    24    25    1
    27    26    27    1
    28    26    13    2
    29    29    43    1
    30    30    28    1
    31    30     1    1
    32    31    29    1
    33    31    38    1
    34    32    34    1
    35    35    13    1
    36    35    45    1
    37    36    45    2
    38    37    32    1
    39    38    28    1
    40    38    37    1
    41    39    41    1
    42    39    29    1
    43    40    33    1
    44    40    35    1
    45    40    31    1
    46    41    44    1
    47    41    43    1
    48    42    33    1
    49    45    30   am
