@<TRIPOS>MOLECULE
No_1576-gen_results/8p0m/2024-11-27-11-27-31/
 21 23 0 0 0
SMALL
GASTEIGER

@<TRIPOS>ATOM
      1 C         -28.0162   -0.8135   28.8779 C.ar    1  UNL1        0.0046
      2 C         -27.0636   -0.1189   28.6079 C.ar    1  UNL1        0.0001
      3 C         -25.7923   -0.4302   29.0761 C.ar    1  UNL1        0.0000
      4 C         -24.5456    0.3494   28.8225 C.ar    1  UNL1        0.0000
      5 C         -23.2409    0.0217   29.3323 C.ar    1  UNL1        0.0000
      6 C         -27.8820   -1.8995   29.8633 C.ar    1  UNL1        0.0554
      7 C         -26.6706   -2.3272   30.3212 C.ar    1  UNL1        0.0046
      8 C         -25.5256   -1.5687   29.9818 C.ar    1  UNL1        0.0001
      9 C         -22.1698    0.7965   28.9549 C.ar    1  UNL1        0.0000
     10 C         -22.1316    1.7520   27.9916 C.ar    1  UNL1        0.0000
     11 C         -24.5371    1.3821   27.7945 C.ar    1  UNL1        0.0000
     12 C         -23.3474    2.0449   27.4322 C.ar    1  UNL1        0.0000
     13 C         -29.0591   -2.7282   30.2959 C.2     1  UNL1        0.2690
     14 O         -28.9645   -3.9301   30.3064 O.2     1  UNL1       -0.2680
     15 N         -30.1714   -2.1110   30.6695 N.am    1  UNL1       -0.1754
     16 C         -31.2339   -2.5007   30.9917 C.ar    1  UNL1        0.0737
     17 C         -32.2565   -2.2381   31.1371 C.ar    1  UNL1        0.0166
     18 C         -33.4804   -2.9394   31.5890 C.ar    1  UNL1        0.0013
     19 C         -33.2317   -4.2821   31.8702 C.ar    1  UNL1        0.0001
     20 C         -31.9937   -4.8348   31.7345 C.ar    1  UNL1        0.0013
     21 C         -30.9761   -4.0852   31.3843 C.ar    1  UNL1        0.0166
@<TRIPOS>BOND
     1     3     4    1
     2     6    13    1
     3    13    14    2
     4    13    15   am
     5    15    16    1
     6     1     2   ar
     7     2     3   ar
     8     3     8   ar
     9     8     7   ar
    10     7     6   ar
    11     6     1   ar
    12     4     5   ar
    13     5     9   ar
    14     9    10   ar
    15    10    12   ar
    16    12    11   ar
    17    11     4   ar
    18    16    17   ar
    19    17    18   ar
    20    18    19   ar
    21    19    20   ar
    22    20    21   ar
    23    21    16   ar
