@<TRIPOS>MOLECULE
outputs/IAG933/test6/raw/output_1578_IAG933_linker_design_.xyz
 51 55 0 0 0
SMALL
GASTEIGER

@<TRIPOS>ATOM
      1 C         -24.8550   -1.0120   30.1430 C.3     1  UNL1        0.0655
      2 C         -24.9730   -2.5050   29.7880 C.2     1  UNL1       -0.0188
      3 C         -23.9060   -3.1730   29.1460 C.2     1  UNL1       -0.0042
      4 C         -23.9890   -4.5490   28.8530 C.2     1  UNL1       -0.0003
      5 C         -25.1370   -5.2800   29.2050 C.2     1  UNL1       -0.0000
      6 C         -26.2320   -4.6110   29.7840 C.2     1  UNL1       -0.0003
      7 C         -26.1550   -3.2320   30.0650 C.2     1  UNL1       -0.0042
      8 C         -25.3870   -0.6790   31.5710 C.3     1  UNL1        0.0792
      9 C         -25.1890    0.7730   32.0280 C.3     1  UNL1        0.0193
     10 C         -25.3360    0.6840   33.5440 C.3     1  UNL1        0.0202
     11 C         -24.8290   -0.7150   33.9050 C.3     1  UNL1        0.0887
     12 N         -24.7580   -1.4810   32.6460 N.3     1  UNL1       -0.2191
     13 C         -25.6880    1.6140   26.4610 C.3     1  UNL1        0.1175
     14 C         -26.2500    2.9200   26.3950 C.2     1  UNL1        0.0649
     15 C         -25.6420    4.0930   27.1230 C.2     1  UNL1        0.2633
     16 N         -25.6140    5.2520   26.4490 N.am    1  UNL1       -0.2000
     17 C         -25.0260    6.4790   26.9630 C.3     1  UNL1        0.1388
     18 O         -25.1430    3.9660   28.2430 O.2     1  UNL1       -0.2686
     19 C         -27.4380    3.0910   25.6450 C.2     1  UNL1        0.1030
     20 N         -28.0750    2.0890   25.0030 N.2     1  UNL1       -0.2118
     21 C         -27.5430    0.8490   25.0790 C.2     1  UNL1        0.2350
     22 O         -28.1930   -0.2080   24.4770 O.2     1  UNL1       -0.4585
     23 C         -29.4600    0.0050   23.8660 C.3     1  UNL1        0.2423
     24 C         -30.0650   -1.3770   23.5730 C.3     1  UNL1        0.2292
     25 O         -30.7290   -1.8780   24.7210 O.3     1  UNL1       -0.2162
     26 C         -26.3540    0.5760   25.7770 C.3     1  UNL1        0.2499
     27 F         -25.8600   -0.6810   25.7950 F       1  UNL1       -0.2260
     28 C         -31.4268    0.1848   27.6586 C.3     1  UNL1        0.0543
     29 O         -29.5898   -0.8134   30.9086 O.2     1  UNL1       -0.2749
     30 C         -26.8384   -0.2567   28.7022 C.3     1  UNL1        0.0395
     31 C         -30.5429    2.9535   29.7944 C.3     1  UNL1        0.0511
     32 C         -22.6248    0.2329   29.3201 C.3     1  UNL1        0.0329
     33 C         -28.2236    2.4468   30.6405 C.3     1  UNL1        0.0225
     34 C         -25.3423   -0.1534   29.0215 C.3     1  UNL1        0.1209
     35 C         -27.7522    3.9014   30.4690 C.3     1  UNL1        0.0346
     36 C         -27.8733   -0.7154   29.4346 C.3     1  UNL1        0.0878
     37 C         -26.7049    4.3441   31.4854 C.3     1  UNL1        0.1522
     38 C         -31.0680    0.7927   29.0301 C.3     1  UNL1        0.1048
     39 O         -25.5026    4.7114   30.8406 O.3     1  UNL1       -0.2231
     40 C         -27.2970    5.3790   32.4501 C.3     1  UNL1        0.0355
     41 C         -23.5097    1.3092   28.8923 C.3     1  UNL1        0.1250
     42 C         -29.2161    2.1878   29.5031 C.3     1  UNL1        0.0779
     43 O         -24.6534    0.5075   28.5272 O.3     1  UNL1       -0.3575
     44 S         -23.9810    1.6697   26.3259 S.3     1  UNL1       -0.1315
     45 O         -31.1230    2.5916   27.4616 O.3     1  UNL1       -0.3544
     46 N         -29.6267    0.8050   29.3647 N.am    1  UNL1       -0.2802
     47 C         -29.0649   -0.2492   29.9395 C.2     1  UNL1        0.2257
     48 C         -31.1547    1.3456   26.6767 C.3     1  UNL1        0.1439
     49 C         -22.8530    1.9906   27.6023 C.3     1  UNL1        0.0752
     50 C         -21.5618    1.8422   27.2813 C.3     1  UNL1        0.0142
     51 C         -31.3622    2.2553   28.7918 C.3     1  UNL1        0.1350
@<TRIPOS>BOND
     1     1    34    1
     2     2     7    1
     3     2     1    1
     4     3     2    2
     5     4     3    1
     6     4     5    2
     7     5     6    1
     8     6     7    2
     9     8     1    1
    10     8     9    1
    11     8    12    1
    12     9    10    1
    13    10    11    1
    14    12    11    1
    15    13    44    1
    16    14    13    1
    17    14    15    1
    18    15    18    2
    19    16    17    1
    20    16    15    1
    21    19    14    2
    22    20    21    2
    23    20    19    1
    24    21    26    1
    25    22    21    1
    26    23    22    1
    27    24    23    1
    28    24    25    1
    29    26    27    1
    30    26    13    1
    31    30    36    1
    32    34    30    1
    33    35    33    1
    34    35    37    1
    35    36    47    1
    36    37    40    1
    37    38    28    1
    38    38    46    1
    39    39    37    1
    40    41    32    1
    41    42    31    1
    42    42    33    1
    43    43    41    1
    44    43    34    1
    45    44    49    1
    46    45    51    1
    47    46    42    1
    48    46    47   am
    49    47    29    2
    50    48    45    1
    51    48    28    1
    52    49    50    1
    53    49    41    1
    54    51    38    1
    55    51    31    1
