@<TRIPOS>MOLECULE
No_1581-gen_results/8p0m/2024-11-27-11-27-31/
 35 40 0 0 0
SMALL
GASTEIGER

@<TRIPOS>ATOM
      1 C         -28.0162   -0.8135   28.8779 C.ar    1  UNL1        0.0042
      2 C         -28.4690   -0.7850   29.8287 C.ar    1  UNL1        0.0497
      3 C         -26.5455   -0.8762   28.8500 C.ar    1  UNL1        0.0001
      4 C         -25.8041   -1.0324   30.0571 C.ar    1  UNL1       -0.0003
      5 C         -27.9437   -0.9869   31.2075 C.ar    1  UNL1       -0.0159
      6 C         -26.5825   -1.0386   31.2231 C.ar    1  UNL1       -0.0041
      7 C         -24.3810   -1.1082   30.0855 C.ar    1  UNL1       -0.0000
      8 C         -23.7590   -1.1322   30.8961 C.ar    1  UNL1       -0.0000
      9 C         -22.2395   -1.0663   30.9853 C.ar    1  UNL1       -0.0000
     10 C         -21.6850   -0.8653   29.7652 C.ar    1  UNL1        0.0000
     11 C         -22.4213   -0.7284   28.5819 C.ar    1  UNL1       -0.0000
     12 C         -23.8520   -0.8586   28.7157 C.ar    1  UNL1       -0.0000
     13 C         -30.0827   -0.6759   29.8751 C.2     1  UNL1        0.2488
     14 O         -30.5102   -0.1729   28.9395 O.2     1  UNL1       -0.2699
     15 N         -30.7956   -1.1341   30.9310 N.am    1  UNL1       -0.2764
     16 C         -30.3967   -1.7411   32.0909 C.3     1  UNL1        0.0838
     17 C         -28.9366   -1.5290   32.3595 C.3     1  UNL1        0.0489
     18 C         -32.2792   -1.1012   30.7336 C.3     1  UNL1        0.0844
     19 C         -33.0061   -1.6991   31.6747 C.3     1  UNL1        0.0446
     20 C         -34.0485   -2.4269   31.2371 C.2     1  UNL1       -0.0245
     21 C         -34.4375   -2.2673   29.9886 C.2     1  UNL1       -0.0049
     22 C         -33.6527   -1.7148   28.9677 C.2     1  UNL1       -0.0049
     23 C         -32.7906   -0.1136   29.8946 C.3     1  UNL1        0.0462
     24 C         -33.1362   -0.6022   28.8287 C.2     1  UNL1       -0.0244
     25 C         -31.1197   -1.1679   33.3446 C.3     1  UNL1        0.0275
     26 C         -32.7849   -1.2718   32.9012 C.3     1  UNL1        0.0293
     27 C         -30.4250   -3.2562   31.9670 C.ar    1  UNL1       -0.0057
     28 C         -30.8357   -4.1050   32.6127 C.ar    1  UNL1       -0.0027
     29 C         -30.6954   -5.4967   32.3805 C.ar    1  UNL1       -0.0003
     30 C         -30.0497   -5.8604   31.1787 C.ar    1  UNL1       -0.0000
     31 C         -29.5159   -4.9005   30.3408 C.ar    1  UNL1       -0.0003
     32 C         -29.6360   -3.5962   30.7537 C.ar    1  UNL1       -0.0027
     33 C         -33.6816   -1.0311   34.0132 C.2     1  UNL1       -0.0306
     34 C         -34.0382   -0.1903   34.4738 C.2     1  UNL1       -0.0304
     35 C         -35.0521   -0.0857   35.5450 C.3     1  UNL1        0.0303
@<TRIPOS>BOND
     1     4     7    1
     2     2    13    1
     3    13    14    2
     4    13    15   am
     5    15    16    1
     6     5    17    1
     7    16    17    1
     8    15    18    1
     9    18    19    1
    10    19    20    1
    11    20    21    2
    12    21    22    1
    13    18    23    1
    14    22    24    2
    15    23    24    1
    16    16    25    1
    17    19    26    1
    18    25    26    1
    19    16    27    1
    20    26    33    1
    21    33    34    2
    22    34    35    1
    23     7     8   ar
    24     8     9   ar
    25     9    10   ar
    26    10    11   ar
    27    11    12   ar
    28    12     7   ar
    29    27    28   ar
    30    28    29   ar
    31    29    30   ar
    32    30    31   ar
    33    31    32   ar
    34    32    27   ar
    35     1     2   ar
    36     2     5   ar
    37     5     6   ar
    38     6     4   ar
    39     4     3   ar
    40     3     1   ar
