@<TRIPOS>MOLECULE
outputs/IAG933/test6/raw/output_1584_IAG933_linker_design_.xyz
 42 45 0 0 0
SMALL
GASTEIGER

@<TRIPOS>ATOM
      1 C         -24.8550   -1.0120   30.1430 C.3     1  UNL1        0.0781
      2 C         -24.9730   -2.5050   29.7880 C.2     1  UNL1       -0.0118
      3 C         -23.9060   -3.1730   29.1460 C.2     1  UNL1       -0.0034
      4 C         -23.9890   -4.5490   28.8530 C.2     1  UNL1       -0.0003
      5 C         -25.1370   -5.2800   29.2050 C.2     1  UNL1       -0.0000
      6 C         -26.2320   -4.6110   29.7840 C.2     1  UNL1       -0.0003
      7 C         -26.1550   -3.2320   30.0650 C.2     1  UNL1       -0.0034
      8 C         -25.3870   -0.6790   31.5710 C.3     1  UNL1        0.0861
      9 C         -25.1890    0.7730   32.0280 C.3     1  UNL1        0.0200
     10 C         -25.3360    0.6840   33.5440 C.3     1  UNL1        0.0203
     11 C         -24.8290   -0.7150   33.9050 C.3     1  UNL1        0.0887
     12 N         -24.7580   -1.4810   32.6460 N.3     1  UNL1       -0.2183
     13 C         -25.6880    1.6140   26.4610 C.2     1  UNL1        0.0372
     14 C         -26.2500    2.9200   26.3950 C.2     1  UNL1        0.0763
     15 C         -25.6420    4.0930   27.1230 C.2     1  UNL1        0.2664
     16 N         -25.6140    5.2520   26.4490 N.am    1  UNL1       -0.1997
     17 C         -25.0260    6.4790   26.9630 C.3     1  UNL1        0.1388
     18 O         -25.1430    3.9660   28.2430 O.2     1  UNL1       -0.2683
     19 C         -27.4380    3.0910   25.6450 C.2     1  UNL1        0.1067
     20 N         -28.0750    2.0890   25.0030 N.2     1  UNL1       -0.2081
     21 C         -27.5430    0.8490   25.0790 C.2     1  UNL1        0.2533
     22 O         -28.1930   -0.2080   24.4770 O.2     1  UNL1       -0.4558
     23 C         -29.4600    0.0050   23.8660 C.3     1  UNL1        0.2426
     24 C         -30.0650   -1.3770   23.5730 C.3     1  UNL1        0.2292
     25 O         -30.7290   -1.8780   24.7210 O.3     1  UNL1       -0.2162
     26 C         -26.3540    0.5760   25.7770 C.2     1  UNL1        0.1928
     27 F         -25.8600   -0.6810   25.7950 F       1  UNL1       -0.1992
     28 C         -23.2237    1.5416   26.8005 C.2     1  UNL1        0.1546
     29 O         -22.5172    0.1421   29.7348 O.2     1  UNL1       -0.2915
     30 C         -22.3219    1.0935   27.5545 C.3     1  UNL1        0.2676
     31 C         -26.6439    4.2837   30.8969 C.3     1  UNL1        0.2979
     32 O         -25.4156    4.9253   30.6073 O.3     1  UNL1       -0.1941
     33 C         -24.5112    0.4379   28.2220 C.3     1  UNL1        0.1248
     34 F         -22.8872    2.2245   25.6138 F       1  UNL1       -0.2059
     35 O         -28.6386    2.1705   30.5416 O.2     1  UNL1       -0.2723
     36 C         -22.9659    0.4701   28.6305 C.2     1  UNL1        0.2025
     37 C         -27.2431    1.2278   28.8728 C.3     1  UNL1        0.1361
     38 S         -26.0201   -0.2557   28.8988 S.3     1  UNL1       -0.1557
     39 C         -24.4339    1.2098   27.2122 C.2     1  UNL1        0.0228
     40 C         -27.7232    2.4261   29.7833 C.2     1  UNL1        0.2538
     41 N         -27.2175    3.6803   29.7054 N.am    1  UNL1       -0.1703
     42 F         -21.0070    1.4197   27.6243 F       1  UNL1       -0.2218
@<TRIPOS>BOND
     1     1    38    1
     2     2     7    1
     3     2     1    1
     4     3     2    2
     5     4     3    1
     6     4     5    2
     7     5     6    1
     8     6     7    2
     9     8     1    1
    10     8     9    1
    11     8    12    1
    12     9    10    1
    13    10    11    1
    14    12    11    1
    15    13    39    1
    16    14    13    1
    17    14    15    1
    18    15    18    2
    19    16    17    1
    20    16    15    1
    21    19    14    2
    22    20    21    2
    23    20    19    1
    24    21    26    1
    25    22    21    1
    26    23    22    1
    27    24    23    1
    28    24    25    1
    29    26    27    1
    30    26    13    2
    31    28    39    2
    32    28    30    1
    33    30    42    1
    34    30    36    1
    35    32    31    1
    36    33    36    1
    37    33    38    1
    38    34    28    1
    39    36    29    2
    40    37    40    1
    41    38    37    1
    42    39    33    1
    43    40    35    2
    44    41    40    1
    45    41    31    1
