@<TRIPOS>MOLECULE
outputs/IAG933/test6/raw/output_1585_IAG933_linker_design_.xyz
 45 48 0 0 0
SMALL
GASTEIGER

@<TRIPOS>ATOM
      1 C         -24.8550   -1.0120   30.1430 C.3     1  UNL1        0.0963
      2 C         -24.9730   -2.5050   29.7880 C.2     1  UNL1       -0.0064
      3 C         -23.9060   -3.1730   29.1460 C.2     1  UNL1       -0.0029
      4 C         -23.9890   -4.5490   28.8530 C.2     1  UNL1       -0.0003
      5 C         -25.1370   -5.2800   29.2050 C.2     1  UNL1       -0.0000
      6 C         -26.2320   -4.6110   29.7840 C.2     1  UNL1       -0.0003
      7 C         -26.1550   -3.2320   30.0650 C.2     1  UNL1       -0.0029
      8 C         -25.3870   -0.6790   31.5710 C.3     1  UNL1        0.0916
      9 C         -25.1890    0.7730   32.0280 C.3     1  UNL1        0.0206
     10 C         -25.3360    0.6840   33.5440 C.3     1  UNL1        0.0203
     11 C         -24.8290   -0.7150   33.9050 C.3     1  UNL1        0.0888
     12 N         -24.7580   -1.4810   32.6460 N.3     1  UNL1       -0.2178
     13 C         -25.6880    1.6140   26.4610 C.2     1  UNL1        0.0173
     14 C         -26.2500    2.9200   26.3950 C.2     1  UNL1        0.0726
     15 C         -25.6420    4.0930   27.1230 C.2     1  UNL1        0.2661
     16 N         -25.6140    5.2520   26.4490 N.am    1  UNL1       -0.1997
     17 C         -25.0260    6.4790   26.9630 C.3     1  UNL1        0.1388
     18 O         -25.1430    3.9660   28.2430 O.2     1  UNL1       -0.2683
     19 C         -27.4380    3.0910   25.6450 C.2     1  UNL1        0.1064
     20 N         -28.0750    2.0890   25.0030 N.2     1  UNL1       -0.2081
     21 C         -27.5430    0.8490   25.0790 C.2     1  UNL1        0.2530
     22 O         -28.1930   -0.2080   24.4770 O.2     1  UNL1       -0.4558
     23 C         -29.4600    0.0050   23.8660 C.3     1  UNL1        0.2426
     24 C         -30.0650   -1.3770   23.5730 C.3     1  UNL1        0.2292
     25 O         -30.7290   -1.8780   24.7210 O.3     1  UNL1       -0.2162
     26 C         -26.3540    0.5760   25.7770 C.2     1  UNL1        0.1892
     27 F         -25.8600   -0.6810   25.7950 F       1  UNL1       -0.1996
     28 C         -26.4405   -0.2646   28.5760 C.3     1  UNL1        0.0771
     29 C         -29.1641    2.5965   30.2769 C.2     1  UNL1        0.0053
     30 C         -30.4856   -1.2520   29.2712 C.3     1  UNL1        0.0308
     31 C         -28.4175    1.8632   29.3301 C.2     1  UNL1       -0.0066
     32 C         -22.0775    1.7076   28.1328 C.3     1  UNL1        0.0343
     33 C         -27.7264   -0.4550   28.5396 C.3     1  UNL1        0.0433
     34 C         -24.1131    0.1931   28.0231 C.3     1  UNL1        0.0927
     35 C         -22.6947    0.3938   28.6559 C.3     1  UNL1        0.1668
     36 N         -25.1821   -0.2889   28.9704 N.3     1  UNL1       -0.2676
     37 C         -30.4129    0.7024   30.9226 C.2     1  UNL1        0.0247
     38 C         -29.0938    4.1133   30.4172 C.3     1  UNL1        0.0334
     39 O         -22.6000    0.0934   30.0634 O.3     1  UNL1       -0.2217
     40 C         -29.8490   -0.0009   29.8447 C.2     1  UNL1       -0.0235
     41 C         -28.6729    0.4805   29.2053 C.2     1  UNL1       -0.0249
     42 C         -24.3969    1.3993   27.1188 C.3     1  UNL1        0.0475
     43 F         -30.3535    2.6289   32.3003 F       1  UNL1       -0.2045
     44 C         -30.0238    1.9994   31.1444 C.2     1  UNL1        0.1358
     45 C         -20.6428    1.3962   27.7095 C.3     1  UNL1        0.0027
@<TRIPOS>BOND
     1     1    36    1
     2     2     7    1
     3     2     1    1
     4     3     2    2
     5     4     3    1
     6     4     5    2
     7     5     6    1
     8     6     7    2
     9     8     1    1
    10     8     9    1
    11     8    12    1
    12     9    10    1
    13    10    11    1
    14    12    11    1
    15    13    42    1
    16    14    13    1
    17    14    15    1
    18    15    18    2
    19    16    17    1
    20    16    15    1
    21    19    14    2
    22    20    21    2
    23    20    19    1
    24    21    26    1
    25    22    21    1
    26    23    22    1
    27    24    23    1
    28    24    25    1
    29    26    27    1
    30    26    13    2
    31    28    36    1
    32    29    38    1
    33    29    44    1
    34    30    40    1
    35    31    29    2
    36    32    35    1
    37    33    28    1
    38    33    41    1
    39    34    42    1
    40    34    35    1
    41    34    36    1
    42    35    39    1
    43    37    44    2
    44    40    37    1
    45    41    31    1
    46    41    40    2
    47    44    43    1
    48    45    32    1
