@<TRIPOS>MOLECULE
No_1588-gen_results/8p0m/2024-11-27-11-27-31/
 25 28 0 0 0
SMALL
GASTEIGER

@<TRIPOS>ATOM
      1 C         -28.0162   -0.8135   28.8779 C.ar    1  UNL1        0.0042
      2 C         -28.4690   -0.7850   29.8287 C.ar    1  UNL1        0.0497
      3 C         -26.5455   -0.8762   28.8500 C.ar    1  UNL1        0.0001
      4 C         -25.8041   -1.0324   30.0571 C.ar    1  UNL1       -0.0003
      5 C         -27.9437   -0.9869   31.2075 C.ar    1  UNL1       -0.0161
      6 C         -26.5825   -1.0386   31.2231 C.ar    1  UNL1       -0.0041
      7 C         -30.0279   -0.6588   29.6965 C.2     1  UNL1        0.2487
      8 O         -30.4353   -0.2357   28.7529 O.2     1  UNL1       -0.2699
      9 N         -30.8388   -1.1077   30.7955 N.am    1  UNL1       -0.2771
     10 C         -32.2498   -1.0053   30.6600 C.3     1  UNL1        0.1021
     11 C         -24.3716   -1.0975   30.0905 C.ar    1  UNL1       -0.0000
     12 C         -23.7280   -1.4302   30.7832 C.ar    1  UNL1       -0.0000
     13 C         -22.1999   -1.2521   30.8437 C.ar    1  UNL1       -0.0000
     14 C         -21.7077   -0.7179   29.6539 C.ar    1  UNL1        0.0000
     15 C         -23.7235   -0.4639   28.8623 C.ar    1  UNL1       -0.0000
     16 C         -22.4518   -0.2786   28.7494 C.ar    1  UNL1       -0.0000
     17 C         -32.8763   -1.8095   31.3337 C.3     1  UNL1        0.1149
     18 C         -32.2912   -2.5317   32.2471 C.3     1  UNL1        0.0119
     19 C         -30.9185   -2.8268   32.3951 C.3     1  UNL1        0.0205
     20 C         -30.2220   -2.1112   31.5846 C.3     1  UNL1        0.0800
     21 C         -28.7568   -2.0711   31.8384 C.3     1  UNL1        0.0463
     22 C         -34.3924   -1.7012   31.3411 C.3     1  UNL1        0.3991
     23 F         -34.9958   -2.6151   31.5871 F       1  UNL1       -0.1700
     24 F         -34.7158   -0.6066   32.1303 F       1  UNL1       -0.1700
     25 F         -34.7302   -1.2999   30.0615 F       1  UNL1       -0.1700
@<TRIPOS>BOND
     1     2     7    1
     2     7     8    2
     3     7     9   am
     4     9    10    1
     5     4    11    1
     6    10    17    1
     7    17    18    1
     8     9    20    1
     9    19    20    1
    10     5    21    1
    11    20    21    1
    12    17    22    1
    13    22    23    1
    14    22    24    1
    15    22    25    1
    16    18    19    1
    17    11    12   ar
    18    12    13   ar
    19    13    14   ar
    20    14    16   ar
    21    16    15   ar
    22    15    11   ar
    23     1     2   ar
    24     2     5   ar
    25     5     6   ar
    26     6     4   ar
    27     4     3   ar
    28     3     1   ar
