@<TRIPOS>MOLECULE
outputs/IAG933/test6/raw/output_1592_IAG933_linker_design_.xyz
 46 50 0 0 0
SMALL
GASTEIGER

@<TRIPOS>ATOM
      1 C         -24.8550   -1.0120   30.1430 C.3     1  UNL1        0.0393
      2 C         -24.9730   -2.5050   29.7880 C.2     1  UNL1       -0.0211
      3 C         -23.9060   -3.1730   29.1460 C.2     1  UNL1       -0.0042
      4 C         -23.9890   -4.5490   28.8530 C.2     1  UNL1       -0.0003
      5 C         -25.1370   -5.2800   29.2050 C.2     1  UNL1       -0.0000
      6 C         -26.2320   -4.6110   29.7840 C.2     1  UNL1       -0.0003
      7 C         -26.1550   -3.2320   30.0650 C.2     1  UNL1       -0.0042
      8 C         -25.3870   -0.6790   31.5710 C.3     1  UNL1        0.0768
      9 C         -25.1890    0.7730   32.0280 C.3     1  UNL1        0.0192
     10 C         -25.3360    0.6840   33.5440 C.3     1  UNL1        0.0202
     11 C         -24.8290   -0.7150   33.9050 C.3     1  UNL1        0.0887
     12 N         -24.7580   -1.4810   32.6460 N.3     1  UNL1       -0.2191
     13 C         -25.6880    1.6140   26.4610 C.2     1  UNL1        0.0407
     14 C         -26.2500    2.9200   26.3950 C.2     1  UNL1        0.0748
     15 C         -25.6420    4.0930   27.1230 C.2     1  UNL1        0.2264
     16 N         -25.6140    5.2520   26.4490 N.2     1  UNL1       -0.2353
     17 C         -25.0260    6.4790   26.9630 C.3     1  UNL1        0.1550
     18 O         -25.1430    3.9660   28.2430 O.2     1  UNL1       -0.4405
     19 C         -27.4380    3.0910   25.6450 C.2     1  UNL1        0.1068
     20 N         -28.0750    2.0890   25.0030 N.2     1  UNL1       -0.2081
     21 C         -27.5430    0.8490   25.0790 C.2     1  UNL1        0.2533
     22 O         -28.1930   -0.2080   24.4770 O.2     1  UNL1       -0.4558
     23 C         -29.4600    0.0050   23.8660 C.3     1  UNL1        0.2426
     24 C         -30.0650   -1.3770   23.5730 C.3     1  UNL1        0.2292
     25 O         -30.7290   -1.8780   24.7210 O.3     1  UNL1       -0.2162
     26 C         -26.3540    0.5760   25.7770 C.2     1  UNL1        0.1931
     27 F         -25.8600   -0.6810   25.7950 F       1  UNL1       -0.1992
     28 C         -30.2434   -0.2627   28.8653 C.3     1  UNL1        0.1505
     29 N         -21.3772    1.0547   28.2915 N.am    1  UNL1       -0.0874
     30 C         -23.9850   -0.1737   29.2462 C.3     1  UNL1        0.0226
     31 C         -28.2409    3.2424   30.7432 C.3     1  UNL1        0.1566
     32 C         -29.3864    1.6028   28.1887 C.3     1  UNL1        0.1505
     33 C         -23.7947    1.2677   28.8538 C.3     1  UNL1        0.1370
     34 O         -22.6675    2.5864   27.2310 O.2     1  UNL1       -0.2712
     35 C         -22.6247    1.7295   28.0598 C.2     1  UNL1        0.2675
     36 O         -29.1464    4.1722   30.2572 O.3     1  UNL1       -0.2226
     37 O         -28.1871   -1.3590   29.2416 O.3     1  UNL1       -0.2177
     38 C         -28.5528    1.7043   30.4974 C.3     1  UNL1        0.0383
     39 C         -26.8457    3.6187   30.1988 C.3     1  UNL1        0.0617
     40 O         -30.0633    0.4521   27.5107 O.3     1  UNL1       -0.3532
     41 O         -30.3446    3.5588   29.7714 O.3     1  UNL1       -0.2178
     42 C         -30.1487    2.7960   28.4938 C.3     1  UNL1        0.2115
     43 C         -29.6806    1.0072   29.6041 C.3     1  UNL1        0.0622
     44 C         -24.8645    2.6174   28.7335 C.2     1  UNL1        0.1289
     45 C         -29.5469   -1.6076   29.5868 C.3     1  UNL1        0.2115
     46 C         -25.7956    2.5093   29.9987 C.2     1  UNL1        0.0099
@<TRIPOS>BOND
     1     1    30    1
     2     2     7    1
     3     2     1    1
     4     3     2    2
     5     4     3    1
     6     4     5    2
     7     5     6    1
     8     6     7    2
     9     8     1    1
    10     8     9    1
    11     8    12    1
    12     9    10    1
    13    10    11    1
    14    12    11    1
    15    14    13    1
    16    14    15    1
    17    15    18    1
    18    16    17    1
    19    16    15    2
    20    18    44    1
    21    19    14    2
    22    20    21    2
    23    20    19    1
    24    21    26    1
    25    22    21    1
    26    23    22    1
    27    24    23    1
    28    24    25    1
    29    26    27    1
    30    26    13    2
    31    28    45    1
    32    28    43    1
    33    31    39    1
    34    32    42    1
    35    32    43    1
    36    33    30    1
    37    34    35    2
    38    35    29    1
    39    35    33    1
    40    36    31    1
    41    37    45    1
    42    38    31    1
    43    40    32    1
    44    40    28    1
    45    41    36    1
    46    42    41    1
    47    43    38    1
    48    44    33    1
    49    44    46    2
    50    46    39    1
