@<TRIPOS>MOLECULE
No_1595-gen_results/8p0m/2024-11-27-11-27-31/
 13 14 0 0 0
SMALL
GASTEIGER

@<TRIPOS>ATOM
      1 C         -28.0162   -0.8135   28.8779 C.ar    1  UNL1       -0.0003
      2 C         -28.4690   -0.7850   29.8287 C.ar    1  UNL1       -0.0000
      3 C         -26.5455   -0.8762   28.8500 C.ar    1  UNL1       -0.0043
      4 C         -25.8041   -1.0324   30.0571 C.ar    1  UNL1       -0.0228
      5 C         -26.5373   -1.0386   31.2171 C.ar    1  UNL1       -0.0043
      6 C         -27.8843   -0.9532   31.1862 C.ar    1  UNL1       -0.0003
      7 C         -24.3655   -1.1134   30.0483 C.3     1  UNL1        0.0189
      8 C         -23.6925    0.1188   29.9185 C.3     1  UNL1        0.0040
      9 C         -22.3936    0.1820   29.3480 C.3     1  UNL1        0.0003
     10 C         -21.7660   -1.0836   29.1002 C.3     1  UNL1        0.0000
     11 C         -23.6501   -1.9106   30.9707 C.3     1  UNL1        0.0044
     12 C         -24.0433   -2.0266   28.6445 C.3     1  UNL1        0.0040
     13 C         -22.5602   -2.1961   28.6664 C.3     1  UNL1        0.0003
@<TRIPOS>BOND
     1     4     7    1
     2     7     8    1
     3     9    10    1
     4     7    11    1
     5     7    12    1
     6    10    13    1
     7    12    13    1
     8     8     9    1
     9     1     2   ar
    10     2     6   ar
    11     6     5   ar
    12     5     4   ar
    13     4     3   ar
    14     3     1   ar
