@<TRIPOS>MOLECULE
outputs/IAG933/test6/raw/output_1598_IAG933_linker_design_.xyz
 46 50 0 0 0
SMALL
GASTEIGER

@<TRIPOS>ATOM
      1 C         -24.8550   -1.0120   30.1430 C.3     1  UNL1        0.0618
      2 C         -24.9730   -2.5050   29.7880 C.2     1  UNL1       -0.0170
      3 C         -23.9060   -3.1730   29.1460 C.2     1  UNL1       -0.0039
      4 C         -23.9890   -4.5490   28.8530 C.2     1  UNL1       -0.0003
      5 C         -25.1370   -5.2800   29.2050 C.2     1  UNL1       -0.0000
      6 C         -26.2320   -4.6110   29.7840 C.2     1  UNL1       -0.0003
      7 C         -26.1550   -3.2320   30.0650 C.2     1  UNL1       -0.0039
      8 C         -25.3870   -0.6790   31.5710 C.3     1  UNL1        0.0809
      9 C         -25.1890    0.7730   32.0280 C.3     1  UNL1        0.0195
     10 C         -25.3360    0.6840   33.5440 C.3     1  UNL1        0.0203
     11 C         -24.8290   -0.7150   33.9050 C.3     1  UNL1        0.0887
     12 N         -24.7580   -1.4810   32.6460 N.3     1  UNL1       -0.2188
     13 C         -25.6880    1.6140   26.4610 C.3     1  UNL1        0.0967
     14 C         -26.2500    2.9200   26.3950 C.2     1  UNL1        0.0590
     15 C         -25.6420    4.0930   27.1230 C.2     1  UNL1        0.2628
     16 N         -25.6140    5.2520   26.4490 N.am    1  UNL1       -0.2000
     17 C         -25.0260    6.4790   26.9630 C.3     1  UNL1        0.1388
     18 O         -25.1430    3.9660   28.2430 O.2     1  UNL1       -0.2686
     19 C         -27.4380    3.0910   25.6450 C.2     1  UNL1        0.1025
     20 N         -28.0750    2.0890   25.0030 N.2     1  UNL1       -0.2118
     21 C         -27.5430    0.8490   25.0790 C.2     1  UNL1        0.2344
     22 O         -28.1930   -0.2080   24.4770 O.2     1  UNL1       -0.4585
     23 C         -29.4600    0.0050   23.8660 C.3     1  UNL1        0.2423
     24 C         -30.0650   -1.3770   23.5730 C.3     1  UNL1        0.2292
     25 O         -30.7290   -1.8780   24.7210 O.3     1  UNL1       -0.2162
     26 C         -26.3540    0.5760   25.7770 C.3     1  UNL1        0.2441
     27 F         -25.8600   -0.6810   25.7950 F       1  UNL1       -0.2265
     28 C         -22.8685    0.2042   29.1418 C.2     1  UNL1        0.0006
     29 C         -24.2643   -0.0845   29.3176 C.2     1  UNL1       -0.0018
     30 C         -28.9813    0.6063   29.3811 C.3     1  UNL1        0.1057
     31 C         -24.7572    1.1963   27.4935 C.2     1  UNL1        0.0381
     32 N         -26.5105    0.9102   28.9712 N.am    1  UNL1       -0.1797
     33 O         -23.0361    1.7861   25.9100 O.2     1  UNL1       -0.2922
     34 F         -21.8420    2.2627   25.8871 F       1  UNL1        0.0138
     35 N         -30.6148   -1.6898   30.1371 N.3     1  UNL1       -0.2700
     36 C         -31.5369   -0.2046   28.5607 C.3     1  UNL1        0.1683
     37 C         -22.4115    1.0431   28.0615 C.2     1  UNL1        0.0407
     38 C         -23.3575    1.4474   27.1509 C.2     1  UNL1        0.1865
     39 O         -27.4719   -1.1083   28.7383 O.2     1  UNL1       -0.2729
     40 C         -27.6059    0.1812   28.7354 C.2     1  UNL1        0.2470
     41 C         -25.1930    0.6424   28.5442 C.2     1  UNL1        0.0692
     42 C         -32.3622   -1.5121   28.5546 C.3     1  UNL1        0.0516
     43 C         -30.1587   -0.5247   29.2728 C.3     1  UNL1        0.0973
     44 C         -29.7651   -2.3205   31.1915 C.3     1  UNL1        0.0897
     45 C         -31.5156   -2.5648   29.2972 C.3     1  UNL1        0.0748
     46 O         -31.3022    0.2405   27.2339 O.3     1  UNL1       -0.2216
@<TRIPOS>BOND
     1     1    29    1
     2     2     7    1
     3     2     1    1
     4     3     2    2
     5     4     3    1
     6     4     5    2
     7     5     6    1
     8     6     7    2
     9     8     1    1
    10     8     9    1
    11     8    12    1
    12     9    10    1
    13    10    11    1
    14    12    11    1
    15    13    31    1
    16    14    13    1
    17    14    15    1
    18    15    18    2
    19    16    17    1
    20    16    15    1
    21    19    14    2
    22    20    21    2
    23    20    19    1
    24    21    26    1
    25    22    21    1
    26    23    22    1
    27    24    23    1
    28    24    25    1
    29    26    27    1
    30    26    13    1
    31    28    29    1
    32    31    41    1
    33    33    38    1
    34    34    33    1
    35    35    44    1
    36    36    46    1
    37    36    43    1
    38    37    28    2
    39    38    31    2
    40    38    37    1
    41    40    39    2
    42    40    32    1
    43    40    30    1
    44    41    32    1
    45    41    29    2
    46    42    36    1
    47    42    45    1
    48    43    30    1
    49    43    35    1
    50    45    35    1
