@<TRIPOS>MOLECULE
outputs/IAG933/test6/raw/output_160_IAG933_linker_design_.xyz
 43 46 0 0 0
SMALL
GASTEIGER

@<TRIPOS>ATOM
      1 C         -24.8550   -1.0120   30.1430 C.3     1  UNL1        0.0711
      2 C         -24.9730   -2.5050   29.7880 C.2     1  UNL1       -0.0184
      3 C         -23.9060   -3.1730   29.1460 C.2     1  UNL1       -0.0041
      4 C         -23.9890   -4.5490   28.8530 C.2     1  UNL1       -0.0003
      5 C         -25.1370   -5.2800   29.2050 C.2     1  UNL1       -0.0000
      6 C         -26.2320   -4.6110   29.7840 C.2     1  UNL1       -0.0003
      7 C         -26.1550   -3.2320   30.0650 C.2     1  UNL1       -0.0041
      8 C         -25.3870   -0.6790   31.5710 C.3     1  UNL1        0.0795
      9 C         -25.1890    0.7730   32.0280 C.3     1  UNL1        0.0193
     10 C         -25.3360    0.6840   33.5440 C.3     1  UNL1        0.0202
     11 C         -24.8290   -0.7150   33.9050 C.3     1  UNL1        0.0887
     12 N         -24.7580   -1.4810   32.6460 N.3     1  UNL1       -0.2190
     13 C         -25.6880    1.6140   26.4610 C.3     1  UNL1        0.0765
     14 C         -26.2500    2.9200   26.3950 C.2     1  UNL1        0.0552
     15 C         -25.6420    4.0930   27.1230 C.2     1  UNL1        0.2625
     16 N         -25.6140    5.2520   26.4490 N.am    1  UNL1       -0.2000
     17 C         -25.0260    6.4790   26.9630 C.3     1  UNL1        0.1388
     18 O         -25.1430    3.9660   28.2430 O.2     1  UNL1       -0.2687
     19 C         -27.4380    3.0910   25.6450 C.2     1  UNL1        0.1022
     20 N         -28.0750    2.0890   25.0030 N.2     1  UNL1       -0.2119
     21 C         -27.5430    0.8490   25.0790 C.2     1  UNL1        0.2341
     22 O         -28.1930   -0.2080   24.4770 O.2     1  UNL1       -0.4585
     23 C         -29.4600    0.0050   23.8660 C.3     1  UNL1        0.2423
     24 C         -30.0650   -1.3770   23.5730 C.3     1  UNL1        0.2292
     25 O         -30.7290   -1.8780   24.7210 O.3     1  UNL1       -0.2162
     26 C         -26.3540    0.5760   25.7770 C.3     1  UNL1        0.2404
     27 F         -25.8600   -0.6810   25.7950 F       1  UNL1       -0.2269
     28 O         -28.9071    0.0150   27.3985 O.co2   1  UNL1       -0.2456
     29 C         -24.2611    1.5503   26.5238 C.3     1  UNL1        0.0602
     30 C         -23.4768    1.0788   27.5606 C.2     1  UNL1        0.0182
     31 C         -25.0841   -0.0347   29.0398 C.3     1  UNL1        0.1586
     32 C         -23.6517    0.3059   28.5940 C.2     1  UNL1        0.0899
     33 N         -21.1410    1.4612   27.9512 N.3     1  UNL1       -0.0956
     34 O         -22.2194    2.1850   26.0100 O.3     1  UNL1       -0.3349
     35 N         -22.4814   -0.2560   29.2209 N.pl3   1  UNL1       -0.1308
     36 C         -23.4539    1.9515   25.5155 C.3     1  UNL1        0.1487
     37 C         -28.2054   -0.2673   29.5940 C.3     1  UNL1        0.1435
     38 C         -27.9403    2.2140   29.6550 C.3     1  UNL1        0.0327
     39 C         -29.2779    0.1444   28.5334 C.2     1  UNL1        0.3673
     40 C         -22.2431    1.5938   27.2054 C.3     1  UNL1        0.2270
     41 C         -27.2971    0.8797   29.7697 C.3     1  UNL1        0.1270
     42 O         -30.3546    0.5621   28.8584 O.co2   1  UNL1       -0.2456
     43 O         -26.2089    0.8877   28.8430 O.3     1  UNL1       -0.3520
@<TRIPOS>BOND
     1     1    31    1
     2     2     7    1
     3     2     1    1
     4     3     2    2
     5     4     3    1
     6     4     5    2
     7     5     6    1
     8     6     7    2
     9     8     1    1
    10     8     9    1
    11     8    12    1
    12     9    10    1
    13    10    11    1
    14    12    11    1
    15    13    14    1
    16    13    29    1
    17    14    15    1
    18    15    18    2
    19    16    17    1
    20    16    15    1
    21    19    14    2
    22    20    21    2
    23    20    19    1
    24    21    26    1
    25    22    21    1
    26    23    22    1
    27    24    23    1
    28    24    25    1
    29    26    27    1
    30    26    13    1
    31    28    39   ar
    32    29    36    1
    33    29    30    1
    34    30    32    2
    35    31    32    1
    36    32    35    1
    37    34    40    1
    38    36    34    1
    39    37    41    1
    40    39    42   ar
    41    39    37    1
    42    40    30    1
    43    40    33    1
    44    41    38    1
    45    43    31    1
    46    43    41    1
