@<TRIPOS>MOLECULE
outputs/IAG933/test6/raw/output_1603_IAG933_linker_design_.xyz
 42 46 0 0 0
SMALL
GASTEIGER

@<TRIPOS>ATOM
      1 C         -24.8550   -1.0120   30.1430 C.3     1  UNL1        0.0629
      2 C         -24.9730   -2.5050   29.7880 C.2     1  UNL1       -0.0191
      3 C         -23.9060   -3.1730   29.1460 C.2     1  UNL1       -0.0042
      4 C         -23.9890   -4.5490   28.8530 C.2     1  UNL1       -0.0003
      5 C         -25.1370   -5.2800   29.2050 C.2     1  UNL1       -0.0000
      6 C         -26.2320   -4.6110   29.7840 C.2     1  UNL1       -0.0003
      7 C         -26.1550   -3.2320   30.0650 C.2     1  UNL1       -0.0042
      8 C         -25.3870   -0.6790   31.5710 C.3     1  UNL1        0.0788
      9 C         -25.1890    0.7730   32.0280 C.3     1  UNL1        0.0193
     10 C         -25.3360    0.6840   33.5440 C.3     1  UNL1        0.0202
     11 C         -24.8290   -0.7150   33.9050 C.3     1  UNL1        0.0887
     12 N         -24.7580   -1.4810   32.6460 N.3     1  UNL1       -0.2191
     13 C         -25.6880    1.6140   26.4610 C.3     1  UNL1        0.0925
     14 C         -26.2500    2.9200   26.3950 C.2     1  UNL1        0.0589
     15 C         -25.6420    4.0930   27.1230 C.2     1  UNL1        0.2628
     16 N         -25.6140    5.2520   26.4490 N.am    1  UNL1       -0.2000
     17 C         -25.0260    6.4790   26.9630 C.3     1  UNL1        0.1388
     18 O         -25.1430    3.9660   28.2430 O.2     1  UNL1       -0.2686
     19 C         -27.4380    3.0910   25.6450 C.2     1  UNL1        0.1025
     20 N         -28.0750    2.0890   25.0030 N.2     1  UNL1       -0.2118
     21 C         -27.5430    0.8490   25.0790 C.2     1  UNL1        0.2344
     22 O         -28.1930   -0.2080   24.4770 O.2     1  UNL1       -0.4585
     23 C         -29.4600    0.0050   23.8660 C.3     1  UNL1        0.2423
     24 C         -30.0650   -1.3770   23.5730 C.3     1  UNL1        0.2292
     25 O         -30.7290   -1.8780   24.7210 O.3     1  UNL1       -0.2162
     26 C         -26.3540    0.5760   25.7770 C.3     1  UNL1        0.2440
     27 F         -25.8600   -0.6810   25.7950 F       1  UNL1       -0.2265
     28 C         -30.2645    0.7951   29.5818 C.2     1  UNL1        0.0421
     29 S         -22.2762    0.4905   28.5138 S.3     1  UNL1       -0.1118
     30 N         -26.3300   -0.3839   28.4431 N.pl3   1  UNL1       -0.2339
     31 C         -21.9586    1.9245   26.1899 C.2     1  UNL1       -0.0144
     32 C         -24.2601    1.4002   26.8547 C.2     1  UNL1       -0.0120
     33 C         -24.9632   -0.0016   28.9258 C.3     1  UNL1        0.1252
     34 O         -31.0850   -1.4025   29.3205 O.2     1  UNL1       -0.2865
     35 C         -29.9835   -0.5890   29.4157 C.2     1  UNL1        0.1970
     36 C         -23.3356    2.0216   26.0053 C.2     1  UNL1       -0.0073
     37 C         -21.3507    1.2860   27.2596 C.3     1  UNL1        0.0878
     38 C         -27.6040   -0.1380   28.9575 C.2     1  UNL1        0.0688
     39 C         -28.6525   -1.0812   29.2244 C.2     1  UNL1        0.0581
     40 C         -29.2222    1.7055   29.3652 C.2     1  UNL1        0.0046
     41 C         -27.9226    1.2404   29.0402 C.2     1  UNL1        0.0163
     42 C         -23.9871    0.6707   28.0264 C.2     1  UNL1        0.0197
@<TRIPOS>BOND
     1     1    33    1
     2     2     7    1
     3     2     1    1
     4     3     2    2
     5     4     3    1
     6     4     5    2
     7     5     6    1
     8     6     7    2
     9     8     1    1
    10     8     9    1
    11     8    12    1
    12     9    10    1
    13    10    11    1
    14    12    11    1
    15    13    32    1
    16    14    13    1
    17    14    15    1
    18    15    18    2
    19    16    17    1
    20    16    15    1
    21    19    14    2
    22    20    21    2
    23    20    19    1
    24    21    26    1
    25    22    21    1
    26    23    22    1
    27    24    23    1
    28    24    25    1
    29    26    27    1
    30    26    13    1
    31    30    38    1
    32    31    37    1
    33    32    42    2
    34    33    30    1
    35    34    35    1
    36    35    28    1
    37    36    31    2
    38    36    32    1
    39    37    29    1
    40    38    41    2
    41    38    39    1
    42    39    35    2
    43    40    28    2
    44    41    40    1
    45    42    29    1
    46    42    33    1
