@<TRIPOS>MOLECULE
outputs/IAG933/test6/raw/output_1604_IAG933_linker_design_.xyz
 42 45 0 0 0
SMALL
GASTEIGER

@<TRIPOS>ATOM
      1 C         -24.8550   -1.0120   30.1430 C.3     1  UNL1        0.1117
      2 C         -24.9730   -2.5050   29.7880 C.2     1  UNL1       -0.0030
      3 C         -23.9060   -3.1730   29.1460 C.2     1  UNL1       -0.0026
      4 C         -23.9890   -4.5490   28.8530 C.2     1  UNL1       -0.0003
      5 C         -25.1370   -5.2800   29.2050 C.2     1  UNL1       -0.0000
      6 C         -26.2320   -4.6110   29.7840 C.2     1  UNL1       -0.0003
      7 C         -26.1550   -3.2320   30.0650 C.2     1  UNL1       -0.0026
      8 C         -25.3870   -0.6790   31.5710 C.3     1  UNL1        0.0950
      9 C         -25.1890    0.7730   32.0280 C.3     1  UNL1        0.0209
     10 C         -25.3360    0.6840   33.5440 C.3     1  UNL1        0.0203
     11 C         -24.8290   -0.7150   33.9050 C.3     1  UNL1        0.0888
     12 N         -24.7580   -1.4810   32.6460 N.3     1  UNL1       -0.2174
     13 C         -25.6880    1.6140   26.4610 C.3     1  UNL1        0.0795
     14 C         -26.2500    2.9200   26.3950 C.2     1  UNL1        0.0553
     15 C         -25.6420    4.0930   27.1230 C.2     1  UNL1        0.2625
     16 N         -25.6140    5.2520   26.4490 N.am    1  UNL1       -0.2000
     17 C         -25.0260    6.4790   26.9630 C.3     1  UNL1        0.1388
     18 O         -25.1430    3.9660   28.2430 O.2     1  UNL1       -0.2687
     19 C         -27.4380    3.0910   25.6450 C.2     1  UNL1        0.1022
     20 N         -28.0750    2.0890   25.0030 N.2     1  UNL1       -0.2119
     21 C         -27.5430    0.8490   25.0790 C.2     1  UNL1        0.2341
     22 O         -28.1930   -0.2080   24.4770 O.2     1  UNL1       -0.4585
     23 C         -29.4600    0.0050   23.8660 C.3     1  UNL1        0.2423
     24 C         -30.0650   -1.3770   23.5730 C.3     1  UNL1        0.2292
     25 O         -30.7290   -1.8780   24.7210 O.3     1  UNL1       -0.2162
     26 C         -26.3540    0.5760   25.7770 C.3     1  UNL1        0.2405
     27 F         -25.8600   -0.6810   25.7950 F       1  UNL1       -0.2269
     28 C         -23.0422    0.0686   29.1755 C.2     1  UNL1        0.0694
     29 C         -29.0249    2.5184   31.4514 C.3     1  UNL1        0.0252
     30 O         -22.9445    2.2671   26.3609 O.2     1  UNL1       -0.2911
     31 N         -20.3514   -0.0074   28.4585 N.am    1  UNL1       -0.0836
     32 N         -27.4050    1.7880   29.6014 N.am    1  UNL1       -0.2040
     33 C         -23.4250    1.4738   27.2361 C.2     1  UNL1        0.1809
     34 C         -25.3515    0.7565   28.5862 C.3     1  UNL1        0.1594
     35 C         -24.8020    1.3161   27.4132 C.3     1  UNL1        0.0965
     36 C         -22.5074    0.8198   28.1537 C.2     1  UNL1        0.1058
     37 C         -28.8248    1.9787   30.0179 C.3     1  UNL1        0.1153
     38 O         -27.5995   -0.4656   28.8208 O.2     1  UNL1       -0.2715
     39 O         -20.7607    2.0738   27.8788 O.2     1  UNL1       -0.2665
     40 C         -21.1644    0.9734   28.1452 C.2     1  UNL1        0.2882
     41 C         -26.9644    0.5887   28.9663 C.2     1  UNL1        0.2598
     42 N         -24.3708   -0.0244   29.3003 N.pl3   1  UNL1       -0.2964
@<TRIPOS>BOND
     1     1     2    1
     2     2     7    1
     3     3     2    2
     4     4     3    1
     5     4     5    2
     6     5     6    1
     7     6     7    2
     8     8     1    1
     9     8     9    1
    10     8    12    1
    11     9    10    1
    12    10    11    1
    13    12    11    1
    14    13    14    1
    15    13    35    1
    16    14    15    1
    17    15    18    2
    18    16    17    1
    19    16    15    1
    20    19    14    2
    21    20    21    2
    22    20    19    1
    23    21    26    1
    24    22    21    1
    25    23    22    1
    26    24    23    1
    27    24    25    1
    28    26    27    1
    29    26    13    1
    30    28    42    1
    31    30    33    2
    32    32    37    1
    33    33    36    1
    34    34    41    1
    35    34    42    1
    36    35    33    1
    37    35    34    1
    38    36    28    2
    39    37    29    1
    40    38    41    2
    41    39    40    2
    42    40    36    1
    43    40    31    1
    44    41    32    1
    45    42     1    1
