@<TRIPOS>MOLECULE
No_1606-gen_results/8p0m/2024-11-27-11-27-31/
 12 12 0 0 0
SMALL
GASTEIGER

@<TRIPOS>ATOM
      1 C         -28.0162   -0.8135   28.8779 C.ar    1  UNL1       -0.0003
      2 C         -28.4690   -0.7850   29.8287 C.ar    1  UNL1       -0.0000
      3 C         -26.5042   -0.7777   28.8766 C.ar    1  UNL1       -0.0043
      4 C         -25.9150   -0.6580   29.9230 C.ar    1  UNL1       -0.0222
      5 C         -27.9691   -0.7243   31.2047 C.ar    1  UNL1       -0.0003
      6 C         -26.5847   -0.6393   31.2062 C.ar    1  UNL1       -0.0043
      7 C         -24.4026   -0.5847   30.0419 C.3     1  UNL1        0.0267
      8 C         -23.7439   -1.3708   30.5510 C.3     1  UNL1        0.0050
      9 C         -23.7804    0.5803   29.3840 C.3     1  UNL1        0.0300
     10 C         -24.4044    1.6915   28.8492 C.2     1  UNL1       -0.0304
     11 C         -23.7663    2.4736   27.9180 C.2     1  UNL1       -0.0303
     12 C         -22.4546    2.1332   27.5170 C.3     1  UNL1        0.0303
@<TRIPOS>BOND
     1     4     7    1
     2     7     8    1
     3     7     9    1
     4     9    10    1
     5    10    11    2
     6    11    12    1
     7     1     2   ar
     8     2     5   ar
     9     5     6   ar
    10     6     4   ar
    11     4     3   ar
    12     3     1   ar
