@<TRIPOS>MOLECULE
No_161-gen_results/8p0m/2024-11-27-11-27-31/
 14 14 0 0 0
SMALL
GASTEIGER

@<TRIPOS>ATOM
      1 C         -28.0162   -0.8135   28.8779 C.3     1  UNL1        0.1386
      2 C         -27.0636   -0.1190   28.6079 C.ar    1  UNL1       -0.0007
      3 C         -25.7923   -0.4302   29.0761 C.ar    1  UNL1       -0.0026
      4 C         -24.5456    0.3494   28.8225 C.ar    1  UNL1       -0.0003
      5 C         -24.6586    1.4196   27.8878 C.ar    1  UNL1       -0.0000
      6 C         -25.9471    1.6811   27.3792 C.ar    1  UNL1       -0.0003
      7 C         -27.0439    0.9739   27.6871 C.ar    1  UNL1       -0.0026
      8 N         -28.6567   -0.5529   30.0960 N.pl3   1  UNL1       -0.2315
      9 C         -28.5841    0.2508   30.7384 C.2     1  UNL1        0.0804
     10 C         -28.7996    0.8319   31.7151 C.2     1  UNL1        0.0171
     11 C         -29.0037    1.9598   32.5040 C.2     1  UNL1       -0.0032
     12 C         -29.0710    3.2615   32.0044 C.2     1  UNL1       -0.0261
     13 C         -28.9588    3.5021   30.6545 C.3     1  UNL1        0.0260
     14 C         -28.9966    4.8519   30.2384 C.3     1  UNL1        0.0050
@<TRIPOS>BOND
     1     1     2    1
     2     1     8    1
     3     8     9    1
     4     9    10    2
     5    10    11    1
     6    11    12    2
     7    12    13    1
     8    13    14    1
     9     2     3   ar
    10     3     4   ar
    11     4     5   ar
    12     5     6   ar
    13     6     7   ar
    14     7     2   ar
