@<TRIPOS>MOLECULE
No_1611-gen_results/8p0m/2024-11-27-11-27-31/
 10 10 0 0 0
SMALL
GASTEIGER

@<TRIPOS>ATOM
      1 C         -28.0162   -0.8135   28.8779 C.ar    1  UNL1        0.0046
      2 C         -27.0636   -0.1190   28.6079 C.ar    1  UNL1        0.0001
      3 C         -25.7923   -0.4302   29.0761 C.ar    1  UNL1        0.0000
      4 C         -25.5756   -1.5654   29.9363 C.ar    1  UNL1        0.0001
      5 C         -26.7354   -2.3004   30.2173 C.ar    1  UNL1        0.0046
      6 C         -27.9184   -1.9537   29.7629 C.ar    1  UNL1        0.0550
      7 C         -29.0732   -2.7835   30.1783 C.2     1  UNL1        0.2648
      8 O         -29.0022   -3.9850   30.2347 O.2     1  UNL1       -0.2684
      9 N         -30.2323   -2.1525   30.4715 N.am    1  UNL1       -0.1998
     10 C         -31.3959   -2.9331   30.8362 C.3     1  UNL1        0.1388
@<TRIPOS>BOND
     1     6     7    1
     2     7     8    2
     3     7     9   am
     4     9    10    1
     5     1     2   ar
     6     2     3   ar
     7     3     4   ar
     8     4     5   ar
     9     5     6   ar
    10     6     1   ar
