@<TRIPOS>MOLECULE
No_1612-gen_results/8p0m/2024-11-27-11-27-31/
 35 39 0 0 0
SMALL
GASTEIGER

@<TRIPOS>ATOM
      1 C         -28.0162   -0.8135   28.8779 C.ar    1  UNL1        0.0019
      2 C         -28.4690   -0.7850   29.8287 C.ar    1  UNL1        0.0682
      3 C         -26.5042   -0.7777   28.8766 C.ar    1  UNL1       -0.0176
      4 C         -25.8103   -0.8531   30.1028 C.ar    1  UNL1       -0.0026
      5 C         -27.9906   -0.8916   31.2257 C.ar    1  UNL1        0.0714
      6 C         -26.6042   -0.8676   31.2652 C.ar    1  UNL1        0.0160
      7 C         -30.0739   -0.8360   29.8615 C.2     1  UNL1        0.2514
      8 O         -30.5608   -0.4417   28.9417 O.2     1  UNL1       -0.2698
      9 N         -30.7486   -1.4028   30.9473 N.am    1  UNL1       -0.2602
     10 C         -32.1750   -1.4682   30.8889 C.3     1  UNL1        0.0953
     11 C         -32.6810   -2.3081   31.6133 C.3     1  UNL1        0.0217
     12 C         -31.9587   -3.0280   32.6935 C.3     1  UNL1        0.0053
     13 C         -30.5517   -2.9318   32.6822 C.3     1  UNL1        0.0424
     14 C         -29.9425   -2.2353   31.7810 C.3     1  UNL1        0.1693
     15 N         -28.6175   -1.9640   31.9624 N.pl3   1  UNL1       -0.2190
     16 C         -25.6198   -0.6657   27.6780 C.3     1  UNL1        0.0523
     17 C         -25.9249    0.3357   26.7139 C.ar    1  UNL1       -0.0217
     18 C         -25.5272    1.3748   26.5748 C.ar    1  UNL1       -0.0214
     19 C         -25.7977    2.2336   25.3755 C.ar    1  UNL1       -0.0045
     20 C         -26.9950    2.3020   25.2001 C.ar    1  UNL1       -0.0043
     21 C         -27.8259    1.1828   25.3160 C.ar    1  UNL1       -0.0188
     22 C         -27.3116    0.1681   26.1691 C.ar    1  UNL1       -0.0082
     23 C         -29.1588    1.0880   24.7951 C.3     1  UNL1        0.0446
     24 C         -30.2192    1.4291   25.6766 C.ar    1  UNL1       -0.0184
     25 C         -31.5358    1.2123   25.2945 C.ar    1  UNL1       -0.0040
     26 C         -32.6269    1.4540   26.1298 C.ar    1  UNL1       -0.0003
     27 C         -32.3633    2.0783   27.3920 C.ar    1  UNL1       -0.0000
     28 C         -31.0522    2.3984   27.7637 C.ar    1  UNL1       -0.0003
     29 C         -30.0210    2.0715   26.9649 C.ar    1  UNL1       -0.0040
     30 C         -29.3119    0.5004   23.5784 C.3     1  UNL1        0.0094
     31 C         -23.9420    1.5344   26.9836 C.3     1  UNL1        0.0520
     32 C         -23.1387    2.3350   26.4984 C.2     1  UNL1       -0.0214
     33 C         -21.7756    2.3231   27.0688 C.2     1  UNL1       -0.0042
     34 C         -21.4854    1.3595   28.0801 C.2     1  UNL1       -0.0003
     35 C         -22.3976    0.5277   28.5944 C.2     1  UNL1       -0.0000
@<TRIPOS>BOND
     1     2     7    1
     2     7     8    2
     3     7     9   am
     4     9    10    1
     5    11    12    1
     6     9    14    1
     7    13    14    1
     8     5    15    1
     9    14    15    1
    10     3    16    1
    11    16    17    1
    12    21    23    1
    13    23    24    1
    14    23    30    1
    15    18    31    1
    16    31    32    1
    17    32    33    2
    18    33    34    1
    19    34    35    2
    20    10    11    1
    21    12    13    1
    22    24    25   ar
    23    25    26   ar
    24    26    27   ar
    25    27    28   ar
    26    28    29   ar
    27    29    24   ar
    28    17    18   ar
    29    18    19   ar
    30    19    20   ar
    31    20    21   ar
    32    21    22   ar
    33    22    17   ar
    34     1     2   ar
    35     2     5   ar
    36     5     6   ar
    37     6     4   ar
    38     4     3   ar
    39     3     1   ar
