@<TRIPOS>MOLECULE
outputs/IAG933/test6/raw/output_1613_IAG933_linker_design_.xyz
 42 45 0 0 0
SMALL
GASTEIGER

@<TRIPOS>ATOM
      1 C         -24.8550   -1.0120   30.1430 C.3     1  UNL1        0.1157
      2 C         -24.9730   -2.5050   29.7880 C.2     1  UNL1       -0.0125
      3 C         -23.9060   -3.1730   29.1460 C.2     1  UNL1       -0.0038
      4 C         -23.9890   -4.5490   28.8530 C.2     1  UNL1       -0.0003
      5 C         -25.1370   -5.2800   29.2050 C.2     1  UNL1       -0.0000
      6 C         -26.2320   -4.6110   29.7840 C.2     1  UNL1       -0.0003
      7 C         -26.1550   -3.2320   30.0650 C.2     1  UNL1       -0.0038
      8 C         -25.3870   -0.6790   31.5710 C.3     1  UNL1        0.0855
      9 C         -25.1890    0.7730   32.0280 C.3     1  UNL1        0.0197
     10 C         -25.3360    0.6840   33.5440 C.3     1  UNL1        0.0203
     11 C         -24.8290   -0.7150   33.9050 C.3     1  UNL1        0.0887
     12 N         -24.7580   -1.4810   32.6460 N.3     1  UNL1       -0.2186
     13 C         -25.6880    1.6140   26.4610 C.3     1  UNL1        0.0932
     14 C         -26.2500    2.9200   26.3950 C.2     1  UNL1        0.0587
     15 C         -25.6420    4.0930   27.1230 C.2     1  UNL1        0.2627
     16 N         -25.6140    5.2520   26.4490 N.am    1  UNL1       -0.2000
     17 C         -25.0260    6.4790   26.9630 C.3     1  UNL1        0.1388
     18 O         -25.1430    3.9660   28.2430 O.2     1  UNL1       -0.2686
     19 C         -27.4380    3.0910   25.6450 C.2     1  UNL1        0.1025
     20 N         -28.0750    2.0890   25.0030 N.2     1  UNL1       -0.2118
     21 C         -27.5430    0.8490   25.0790 C.2     1  UNL1        0.2344
     22 O         -28.1930   -0.2080   24.4770 O.2     1  UNL1       -0.4585
     23 C         -29.4600    0.0050   23.8660 C.3     1  UNL1        0.2423
     24 C         -30.0650   -1.3770   23.5730 C.3     1  UNL1        0.2292
     25 O         -30.7290   -1.8780   24.7210 O.3     1  UNL1       -0.2162
     26 C         -26.3540    0.5760   25.7770 C.3     1  UNL1        0.2438
     27 F         -25.8600   -0.6810   25.7950 F       1  UNL1       -0.2265
     28 O         -22.0764    2.1004   26.0347 O.2     1  UNL1       -0.4468
     29 C         -20.7208   -0.4247   28.8496 C.3     1  UNL1        0.2528
     30 C         -24.2483    1.5050   26.7481 C.2     1  UNL1        0.0235
     31 C         -23.8435    1.1158   27.9660 C.2     1  UNL1        0.0992
     32 C         -22.4138    0.9637   28.0750 C.2     1  UNL1        0.2154
     33 C         -25.4236    2.0636   29.5012 C.2     1  UNL1        0.4568
     34 F         -20.3261    1.8620   27.4171 F       1  UNL1       -0.1598
     35 O         -24.7373    2.7050   30.4836 O.co2   1  UNL1       -0.2215
     36 C         -25.5545   -0.1623   29.1735 C.2     1  UNL1        0.2428
     37 O         -21.7076    0.2097   29.0024 O.2     1  UNL1       -0.4650
     38 O         -26.6967   -0.3778   28.7946 O.2     1  UNL1       -0.2736
     39 C         -23.4244    2.0671   25.7771 C.3     1  UNL1        0.2321
     40 N         -24.8651    1.0181   28.9172 N.am    1  UNL1       -0.1680
     41 C         -21.6232    1.6003   27.1555 C.2     1  UNL1        0.3193
     42 O         -26.6562    2.1309   29.5204 O.co2   1  UNL1       -0.2215
@<TRIPOS>BOND
     1     1    36    1
     2     2     7    1
     3     2     1    1
     4     3     2    2
     5     4     3    1
     6     4     5    2
     7     5     6    1
     8     6     7    2
     9     8     1    1
    10     8     9    1
    11     8    12    1
    12     9    10    1
    13    10    11    1
    14    12    11    1
    15    13    30    1
    16    14    13    1
    17    14    15    1
    18    15    18    2
    19    16    17    1
    20    16    15    1
    21    19    14    2
    22    20    21    2
    23    20    19    1
    24    21    26    1
    25    22    21    1
    26    23    22    1
    27    24    23    1
    28    24    25    1
    29    26    27    1
    30    26    13    1
    31    28    41    1
    32    29    37    1
    33    30    31    2
    34    31    32    1
    35    31    40    1
    36    32    37    1
    37    33    42   ar
    38    33    35   ar
    39    38    36    2
    40    39    28    1
    41    39    30    1
    42    40    36   am
    43    40    33   am
    44    41    34    1
    45    41    32    2
