@<TRIPOS>MOLECULE
outputs/IAG933/test6/raw/output_1615_IAG933_linker_design_.xyz
 43 47 0 0 0
SMALL
GASTEIGER

@<TRIPOS>ATOM
      1 C         -24.8550   -1.0120   30.1430 C.3     1  UNL1        0.0965
      2 C         -24.9730   -2.5050   29.7880 C.2     1  UNL1       -0.0064
      3 C         -23.9060   -3.1730   29.1460 C.2     1  UNL1       -0.0029
      4 C         -23.9890   -4.5490   28.8530 C.2     1  UNL1       -0.0003
      5 C         -25.1370   -5.2800   29.2050 C.2     1  UNL1       -0.0000
      6 C         -26.2320   -4.6110   29.7840 C.2     1  UNL1       -0.0003
      7 C         -26.1550   -3.2320   30.0650 C.2     1  UNL1       -0.0029
      8 C         -25.3870   -0.6790   31.5710 C.3     1  UNL1        0.0916
      9 C         -25.1890    0.7730   32.0280 C.3     1  UNL1        0.0206
     10 C         -25.3360    0.6840   33.5440 C.3     1  UNL1        0.0203
     11 C         -24.8290   -0.7150   33.9050 C.3     1  UNL1        0.0888
     12 N         -24.7580   -1.4810   32.6460 N.3     1  UNL1       -0.2178
     13 C         -25.6880    1.6140   26.4610 C.3     1  UNL1        0.0885
     14 C         -26.2500    2.9200   26.3950 C.2     1  UNL1        0.0564
     15 C         -25.6420    4.0930   27.1230 C.2     1  UNL1        0.2625
     16 N         -25.6140    5.2520   26.4490 N.am    1  UNL1       -0.2000
     17 C         -25.0260    6.4790   26.9630 C.3     1  UNL1        0.1388
     18 O         -25.1430    3.9660   28.2430 O.2     1  UNL1       -0.2687
     19 C         -27.4380    3.0910   25.6450 C.2     1  UNL1        0.1022
     20 N         -28.0750    2.0890   25.0030 N.2     1  UNL1       -0.2119
     21 C         -27.5430    0.8490   25.0790 C.2     1  UNL1        0.2341
     22 O         -28.1930   -0.2080   24.4770 O.2     1  UNL1       -0.4585
     23 C         -29.4600    0.0050   23.8660 C.3     1  UNL1        0.2423
     24 C         -30.0650   -1.3770   23.5730 C.3     1  UNL1        0.2292
     25 O         -30.7290   -1.8780   24.7210 O.3     1  UNL1       -0.2162
     26 C         -26.3540    0.5760   25.7770 C.3     1  UNL1        0.2416
     27 F         -25.8600   -0.6810   25.7950 F       1  UNL1       -0.2268
     28 C         -30.1990    2.3855   29.2224 C.3     1  UNL1        0.0000
     29 C         -30.8049    3.1234   28.0034 C.3     1  UNL1        0.0000
     30 N         -25.0160    0.0532   29.1096 N.3     1  UNL1       -0.2666
     31 C         -22.6401    1.8179   26.4695 C.2     1  UNL1        0.1760
     32 C         -21.2095    0.6747   27.9606 C.2     1  UNL1        0.3250
     33 C         -23.4892    1.2376   27.5148 C.2     1  UNL1        0.0182
     34 O         -21.2887    1.4889   26.8095 O.3     1  UNL1       -0.4214
     35 C         -28.7548    0.3634   28.6918 C.3     1  UNL1        0.0014
     36 C         -26.0939    0.6669   28.7632 C.3     1  UNL1        0.0754
     37 C         -22.4738    0.6607   28.4501 C.3     1  UNL1        0.1220
     38 C         -28.7567    1.7974   29.2737 C.3     1  UNL1        0.0000
     39 C         -22.6468    0.4166   29.8992 C.3     1  UNL1        0.0162
     40 C         -24.9348    1.0969   27.8125 C.3     1  UNL1        0.0848
     41 C         -30.3176    3.3299   30.4280 C.3     1  UNL1        0.0000
     42 O         -20.0815    0.0047   28.4010 O.2     1  UNL1       -0.2494
     43 C         -27.3395   -0.1501   28.4336 C.3     1  UNL1        0.0176
@<TRIPOS>BOND
     1     1     2    1
     2     2     7    1
     3     3     2    2
     4     4     3    1
     5     4     5    2
     6     5     6    1
     7     6     7    2
     8     8     1    1
     9     8     9    1
    10     8    12    1
    11     9    10    1
    12    10    11    1
    13    12    11    1
    14    13    14    1
    15    13    40    1
    16    14    15    1
    17    15    18    2
    18    16    17    1
    19    16    15    1
    20    19    14    2
    21    20    21    2
    22    20    19    1
    23    21    26    1
    24    22    21    1
    25    23    22    1
    26    24    23    1
    27    24    25    1
    28    26    27    1
    29    26    13    1
    30    28    38    1
    31    28    41    1
    32    29    28    1
    33    30     1    1
    34    31    34    1
    35    31    33    2
    36    32    42    2
    37    32    37    1
    38    33    37    1
    39    34    32    1
    40    35    38    1
    41    36    43    1
    42    36    30    1
    43    37    39    1
    44    40    33    1
    45    40    36    1
    46    40    30    1
    47    43    35    1
