@<TRIPOS>MOLECULE
No_1616-gen_results/8p0m/2024-11-27-11-27-31/
 12 13 0 0 0
SMALL
GASTEIGER

@<TRIPOS>ATOM
      1 C         -28.0162   -0.8135   28.8779 C.ar    1  UNL1        0.0000
      2 C         -28.4690   -0.7850   29.8287 C.ar    1  UNL1        0.0000
      3 C         -26.5455   -0.8762   28.8500 C.ar    1  UNL1        0.0000
      4 C         -25.8041   -1.0324   30.0571 C.ar    1  UNL1        0.0000
      5 C         -26.5373   -1.0386   31.2171 C.ar    1  UNL1        0.0000
      6 C         -27.8843   -0.9532   31.1862 C.ar    1  UNL1        0.0000
      7 C         -24.3655   -1.1134   30.0483 C.ar    1  UNL1        0.0000
      8 C         -23.7447   -1.3689   30.8125 C.ar    1  UNL1        0.0000
      9 C         -22.2072   -1.2504   30.8577 C.ar    1  UNL1        0.0000
     10 C         -21.6856   -0.8191   29.6527 C.ar    1  UNL1        0.0000
     11 C         -23.7345   -0.6112   28.7797 C.ar    1  UNL1        0.0000
     12 C         -22.4343   -0.4609   28.6549 C.ar    1  UNL1        0.0000
@<TRIPOS>BOND
     1     4     7    1
     2     7     8   ar
     3     8     9   ar
     4     9    10   ar
     5    10    12   ar
     6    12    11   ar
     7    11     7   ar
     8     1     2   ar
     9     2     6   ar
    10     6     5   ar
    11     5     4   ar
    12     4     3   ar
    13     3     1   ar
