@<TRIPOS>MOLECULE
outputs/IAG933/test6/raw/output_1618_IAG933_linker_design_.xyz
 39 43 0 0 0
SMALL
GASTEIGER

@<TRIPOS>ATOM
      1 C         -24.8550   -1.0120   30.1430 C.3     1  UNL1        0.2059
      2 C         -24.9730   -2.5050   29.7880 C.2     1  UNL1        0.0218
      3 C         -23.9060   -3.1730   29.1460 C.2     1  UNL1       -0.0004
      4 C         -23.9890   -4.5490   28.8530 C.2     1  UNL1       -0.0002
      5 C         -25.1370   -5.2800   29.2050 C.2     1  UNL1       -0.0000
      6 C         -26.2320   -4.6110   29.7840 C.2     1  UNL1       -0.0002
      7 C         -26.1550   -3.2320   30.0650 C.2     1  UNL1       -0.0004
      8 C         -25.3870   -0.6790   31.5710 C.3     1  UNL1        0.1202
      9 C         -25.1890    0.7730   32.0280 C.3     1  UNL1        0.0233
     10 C         -25.3360    0.6840   33.5440 C.3     1  UNL1        0.0204
     11 C         -24.8290   -0.7150   33.9050 C.3     1  UNL1        0.0889
     12 N         -24.7580   -1.4810   32.6460 N.3     1  UNL1       -0.2150
     13 C         -25.6880    1.6140   26.4610 C.3     1  UNL1        0.0820
     14 C         -26.2500    2.9200   26.3950 C.2     1  UNL1        0.0554
     15 C         -25.6420    4.0930   27.1230 C.2     1  UNL1        0.2625
     16 N         -25.6140    5.2520   26.4490 N.am    1  UNL1       -0.2000
     17 C         -25.0260    6.4790   26.9630 C.3     1  UNL1        0.1388
     18 O         -25.1430    3.9660   28.2430 O.2     1  UNL1       -0.2687
     19 C         -27.4380    3.0910   25.6450 C.2     1  UNL1        0.1022
     20 N         -28.0750    2.0890   25.0030 N.2     1  UNL1       -0.2119
     21 C         -27.5430    0.8490   25.0790 C.2     1  UNL1        0.2341
     22 O         -28.1930   -0.2080   24.4770 O.2     1  UNL1       -0.4585
     23 C         -29.4600    0.0050   23.8660 C.3     1  UNL1        0.2423
     24 C         -30.0650   -1.3770   23.5730 C.3     1  UNL1        0.2292
     25 O         -30.7290   -1.8780   24.7210 O.3     1  UNL1       -0.2162
     26 C         -26.3540    0.5760   25.7770 C.3     1  UNL1        0.2406
     27 F         -25.8600   -0.6810   25.7950 F       1  UNL1       -0.2269
     28 O         -21.3693    1.8716   26.4969 O.3     1  UNL1       -0.3157
     29 O         -26.1808    1.5571   29.3734 O.2     1  UNL1       -0.2467
     30 C         -24.7989    1.3030   27.5065 C.3     1  UNL1        0.1258
     31 C         -22.7692    2.0123   26.2248 C.2     1  UNL1        0.3506
     32 N         -22.2479   -0.5018   30.2097 N.pl3   1  UNL1        0.2116
     33 C         -25.2070    0.9395   28.7609 C.2     1  UNL1        0.3144
     34 C         -23.0636    0.0830   29.3194 C.2     1  UNL1        0.3881
     35 C         -22.5297    0.8232   28.1460 C.2     1  UNL1        0.1929
     36 C         -23.4417    1.3945   27.2856 C.3     1  UNL1        0.1634
     37 N         -24.4216    0.0762   29.3777 N.am    1  UNL1       -0.1365
     38 N         -21.2425    1.1482   27.7155 N.3     1  UNL1       -0.0699
     39 O         -23.3213    2.5908   25.1887 O.2     1  UNL1       -0.2472
@<TRIPOS>BOND
     1     1     2    1
     2     2     7    1
     3     3     2    2
     4     4     3    1
     5     4     5    2
     6     5     6    1
     7     6     7    2
     8     8     1    1
     9     8     9    1
    10     8    12    1
    11     9    10    1
    12    10    11    1
    13    12    11    1
    14    13    14    1
    15    13    30    1
    16    14    15    1
    17    15    18    2
    18    16    17    1
    19    16    15    1
    20    19    14    2
    21    20    21    2
    22    20    19    1
    23    21    26    1
    24    22    21    1
    25    23    22    1
    26    24    23    1
    27    24    25    1
    28    26    27    1
    29    26    13    1
    30    28    38    1
    31    30    33    1
    32    31    28    1
    33    33    29    2
    34    33    37   am
    35    34    37    1
    36    34    32    1
    37    35    34    2
    38    36    31    1
    39    36    30    1
    40    36    35    1
    41    37     1    1
    42    38    35    1
    43    39    31    2
