@<TRIPOS>MOLECULE
outputs/IAG933/test6/raw/output_1619_IAG933_linker_design_.xyz
 44 47 0 0 0
SMALL
GASTEIGER

@<TRIPOS>ATOM
      1 C         -24.8550   -1.0120   30.1430 C.3     1  UNL1        0.1134
      2 C         -24.9730   -2.5050   29.7880 C.2     1  UNL1       -0.0029
      3 C         -23.9060   -3.1730   29.1460 C.2     1  UNL1       -0.0026
      4 C         -23.9890   -4.5490   28.8530 C.2     1  UNL1       -0.0003
      5 C         -25.1370   -5.2800   29.2050 C.2     1  UNL1       -0.0000
      6 C         -26.2320   -4.6110   29.7840 C.2     1  UNL1       -0.0003
      7 C         -26.1550   -3.2320   30.0650 C.2     1  UNL1       -0.0026
      8 C         -25.3870   -0.6790   31.5710 C.3     1  UNL1        0.0951
      9 C         -25.1890    0.7730   32.0280 C.3     1  UNL1        0.0209
     10 C         -25.3360    0.6840   33.5440 C.3     1  UNL1        0.0203
     11 C         -24.8290   -0.7150   33.9050 C.3     1  UNL1        0.0888
     12 N         -24.7580   -1.4810   32.6460 N.3     1  UNL1       -0.2174
     13 C         -25.6880    1.6140   26.4610 C.2     1  UNL1        0.0401
     14 C         -26.2500    2.9200   26.3950 C.2     1  UNL1        0.0766
     15 C         -25.6420    4.0930   27.1230 C.2     1  UNL1        0.2664
     16 N         -25.6140    5.2520   26.4490 N.am    1  UNL1       -0.1997
     17 C         -25.0260    6.4790   26.9630 C.3     1  UNL1        0.1388
     18 O         -25.1430    3.9660   28.2430 O.2     1  UNL1       -0.2683
     19 C         -27.4380    3.0910   25.6450 C.2     1  UNL1        0.1067
     20 N         -28.0750    2.0890   25.0030 N.2     1  UNL1       -0.2081
     21 C         -27.5430    0.8490   25.0790 C.2     1  UNL1        0.2533
     22 O         -28.1930   -0.2080   24.4770 O.2     1  UNL1       -0.4558
     23 C         -29.4600    0.0050   23.8660 C.3     1  UNL1        0.2426
     24 C         -30.0650   -1.3770   23.5730 C.3     1  UNL1        0.2292
     25 O         -30.7290   -1.8780   24.7210 O.3     1  UNL1       -0.2162
     26 C         -26.3540    0.5760   25.7770 C.2     1  UNL1        0.1931
     27 F         -25.8600   -0.6810   25.7950 F       1  UNL1       -0.1992
     28 CL        -23.0330    2.6160   25.0761 Cl      1  UNL1       -0.0822
     29 C         -28.6664    3.9707   30.1098 C.3     1  UNL1        0.0083
     30 C         -27.4511    4.6181   30.7999 C.3     1  UNL1        0.0722
     31 O         -27.8240    3.4984   32.9409 O.2     1  UNL1       -0.2883
     32 C         -24.3542    1.4728   27.1201 C.2     1  UNL1        0.0265
     33 O         -27.5848   -0.3859   29.1352 O.3     1  UNL1       -0.3344
     34 C         -24.1875    0.7456   28.3491 C.2     1  UNL1        0.0506
     35 C         -26.4263   -0.3349   28.2545 C.3     1  UNL1        0.2406
     36 N         -25.0859   -0.0806   28.9386 N.pl3   1  UNL1       -0.2791
     37 C         -23.1942    1.9521   26.5750 C.2     1  UNL1        0.0589
     38 C         -27.0962    3.9952   32.1120 C.2     1  UNL1        0.2074
     39 C         -21.8558    1.3250   28.4318 C.2     1  UNL1        0.0021
     40 C         -28.5404    1.8446   28.4876 C.3     1  UNL1        0.0322
     41 C         -23.0076    0.8556   29.0018 C.2     1  UNL1        0.0146
     42 C         -28.3182    2.5611   29.7639 C.3     1  UNL1        0.0030
     43 C         -21.9399    1.9052   27.1925 C.2     1  UNL1        0.0115
     44 C         -28.7556    0.3389   28.7273 C.3     1  UNL1        0.1442
@<TRIPOS>BOND
     1     1    36    1
     2     2     7    1
     3     2     1    1
     4     3     2    2
     5     4     3    1
     6     4     5    2
     7     5     6    1
     8     6     7    2
     9     8     1    1
    10     8     9    1
    11     8    12    1
    12     9    10    1
    13    10    11    1
    14    12    11    1
    15    13    32    1
    16    14    13    1
    17    14    15    1
    18    15    18    2
    19    16    17    1
    20    16    15    1
    21    19    14    2
    22    20    21    2
    23    20    19    1
    24    21    26    1
    25    22    21    1
    26    23    22    1
    27    24    23    1
    28    24    25    1
    29    26    27    1
    30    26    13    2
    31    28    37    1
    32    29    30    1
    33    30    38    1
    34    32    34    1
    35    34    36    1
    36    34    41    2
    37    35    36    1
    38    35    33    1
    39    37    32    2
    40    37    43    1
    41    38    31    2
    42    39    41    1
    43    40    44    1
    44    40    42    1
    45    42    29    1
    46    43    39    2
    47    44    33    1
