@<TRIPOS>MOLECULE
outputs/IAG933/test6/raw/output_162_IAG933_linker_design_.xyz
 39 43 0 0 0
SMALL
GASTEIGER

@<TRIPOS>ATOM
      1 C         -24.8550   -1.0120   30.1430 C.3     1  UNL1        0.1577
      2 C         -24.9730   -2.5050   29.7880 C.2     1  UNL1        0.0062
      3 C         -23.9060   -3.1730   29.1460 C.2     1  UNL1       -0.0019
      4 C         -23.9890   -4.5490   28.8530 C.2     1  UNL1       -0.0002
      5 C         -25.1370   -5.2800   29.2050 C.2     1  UNL1       -0.0000
      6 C         -26.2320   -4.6110   29.7840 C.2     1  UNL1       -0.0002
      7 C         -26.1550   -3.2320   30.0650 C.2     1  UNL1       -0.0019
      8 C         -25.3870   -0.6790   31.5710 C.3     1  UNL1        0.1252
      9 C         -25.1890    0.7730   32.0280 C.2     1  UNL1        0.0127
     10 C         -25.3360    0.6840   33.5440 C.3     1  UNL1        0.0452
     11 C         -24.8290   -0.7150   33.9050 C.3     1  UNL1        0.0936
     12 N         -24.7580   -1.4810   32.6460 N.3     1  UNL1       -0.2121
     13 C         -25.6880    1.6140   26.4610 C.2     1  UNL1        0.0926
     14 C         -26.2500    2.9200   26.3950 C.2     1  UNL1        0.0903
     15 C         -25.6420    4.0930   27.1230 C.2     1  UNL1        0.2676
     16 N         -25.6140    5.2520   26.4490 N.am    1  UNL1       -0.1997
     17 C         -25.0260    6.4790   26.9630 C.3     1  UNL1        0.1388
     18 O         -25.1430    3.9660   28.2430 O.2     1  UNL1       -0.2683
     19 C         -27.4380    3.0910   25.6450 C.2     1  UNL1        0.1080
     20 N         -28.0750    2.0890   25.0030 N.2     1  UNL1       -0.2080
     21 C         -27.5430    0.8490   25.0790 C.2     1  UNL1        0.2546
     22 O         -28.1930   -0.2080   24.4770 O.2     1  UNL1       -0.4558
     23 C         -29.4600    0.0050   23.8660 C.3     1  UNL1        0.2426
     24 C         -30.0650   -1.3770   23.5730 C.3     1  UNL1        0.2292
     25 O         -30.7290   -1.8780   24.7210 O.3     1  UNL1       -0.2162
     26 C         -26.3540    0.5760   25.7770 C.2     1  UNL1        0.2066
     27 F         -25.8600   -0.6810   25.7950 F       1  UNL1       -0.1979
     28 C         -22.6013    0.7561   28.7982 C.2     1  UNL1       -0.0034
     29 O         -23.5364    1.9276   24.8369 O.2     1  UNL1       -0.2696
     30 C         -24.9985    1.1730   29.1699 C.3     1  UNL1        0.1985
     31 C         -21.2292    0.9315   28.4991 C.2     1  UNL1       -0.0027
     32 O         -25.3803   -0.2337   29.0371 O.3     1  UNL1       -0.3427
     33 C         -20.8741    1.5060   27.2511 C.2     1  UNL1        0.0044
     34 C         -21.7334    1.8202   26.2164 C.2     1  UNL1        0.0583
     35 N         -24.2807    1.4433   26.9839 N.am    1  UNL1       -0.2476
     36 C         -23.2923    1.7333   26.0013 C.2     1  UNL1        0.2532
     37 O         -25.1225    2.8619   31.0655 O.2     1  UNL1       -0.2893
     38 C         -23.8453    1.1033   28.3728 C.3     1  UNL1        0.1368
     39 C         -25.0044    1.4752   30.6730 C.2     1  UNL1        0.1955
@<TRIPOS>BOND
     1     1     2    1
     2     1     8    1
     3     2     7    1
     4     3     2    2
     5     4     3    1
     6     4     5    2
     7     5     6    1
     8     6     7    2
     9     8     9    1
    10     8    12    1
    11     9    10    1
    12    10    11    1
    13    12    11    1
    14    13    35    1
    15    14    13    1
    16    14    15    1
    17    15    18    2
    18    16    17    1
    19    16    15    1
    20    19    14    2
    21    20    21    2
    22    20    19    1
    23    21    26    1
    24    22    21    1
    25    23    22    1
    26    24    23    1
    27    24    25    1
    28    26    27    1
    29    26    13    2
    30    29    36    2
    31    30    32    1
    32    30    39    1
    33    31    28    2
    34    32     1    1
    35    33    31    1
    36    34    33    2
    37    35    38    1
    38    36    34    1
    39    36    35   am
    40    38    28    1
    41    38    30    1
    42    39    37    1
    43    39     9    2
