@<TRIPOS>MOLECULE
No_1621-gen_results/8p0m/2024-11-27-11-27-31/
 20 21 0 0 0
SMALL
GASTEIGER

@<TRIPOS>ATOM
      1 C         -28.0162   -0.8135   28.8779 C.ar    1  UNL1        0.0084
      2 C         -28.4690   -0.7850   29.8287 C.ar    1  UNL1        0.0539
      3 C         -27.0871    0.2903   28.6377 C.ar    1  UNL1        0.0716
      4 C         -26.8317    1.2487   29.5869 C.ar    1  UNL1        0.0039
      5 C         -28.3914    0.0801   31.0065 C.ar    1  UNL1        0.0045
      6 C         -27.4940    1.1521   30.7841 C.ar    1  UNL1        0.0001
      7 C         -26.3172    0.3994   27.3653 C.3     1  UNL1        0.4186
      8 F         -25.8454    1.5466   27.3810 F       1  UNL1       -0.1659
      9 F         -25.3609   -0.5208   27.3228 F       1  UNL1       -0.1659
     10 F         -27.1364    0.2590   26.2887 F       1  UNL1       -0.1659
     11 C         -29.4505   -2.0176   30.2439 C.2     1  UNL1        0.2528
     12 O         -29.0343   -3.1672   30.3673 O.2     1  UNL1       -0.2696
     13 N         -30.7412   -1.7925   30.4226 N.am    1  UNL1       -0.2534
     14 C         -31.6597   -2.8388   30.7170 C.3     1  UNL1        0.1203
     15 C         -31.3262   -0.4438   30.2700 C.ar    1  UNL1        0.0542
     16 C         -31.9148    0.0547   31.3857 C.ar    1  UNL1        0.0149
     17 C         -32.2401    1.2716   31.3346 C.ar    1  UNL1        0.0013
     18 C         -32.1505    2.0970   30.1735 C.ar    1  UNL1        0.0001
     19 C         -31.5431    1.5412   29.0619 C.ar    1  UNL1        0.0013
     20 C         -31.0208    0.2408   29.1292 C.ar    1  UNL1        0.0149
@<TRIPOS>BOND
     1     3     7    1
     2     7     8    1
     3     7     9    1
     4     7    10    1
     5     2    11    1
     6    11    12    2
     7    11    13   am
     8    13    14    1
     9    13    15    1
    10    15    16   ar
    11    16    17   ar
    12    17    18   ar
    13    18    19   ar
    14    19    20   ar
    15    20    15   ar
    16     1     2   ar
    17     2     5   ar
    18     5     6   ar
    19     6     4   ar
    20     4     3   ar
    21     3     1   ar
