@<TRIPOS>MOLECULE
No_1622-gen_results/8p0m/2024-11-27-11-27-31/
 35 38 0 0 0
SMALL
GASTEIGER

@<TRIPOS>ATOM
      1 C         -28.0162   -0.8135   28.8779 C.ar    1  UNL1        0.0917
      2 CL        -28.6208   -1.1855   29.7353 Cl      1  UNL1       -0.0791
      3 C         -26.5231   -0.7877   28.9754 C.ar    1  UNL1        0.0145
      4 C         -25.6937    0.1431   28.2828 C.ar    1  UNL1        0.0013
      5 C         -26.2722    0.8558   27.1689 C.ar    1  UNL1        0.0074
      6 C         -27.6309    0.7338   27.0017 C.ar    1  UNL1        0.0898
      7 C         -28.3785    0.0574   27.7784 C.ar    1  UNL1        0.1536
      8 C         -25.2860    1.5967   26.3657 C.ar    1  UNL1        0.0003
      9 C         -23.9615    1.5397   26.7491 C.ar    1  UNL1        0.0024
     10 C         -23.4791    0.8223   27.8517 C.ar    1  UNL1        0.0302
     11 C         -24.2874    0.1008   28.5608 C.ar    1  UNL1        0.0025
     12 C         -22.0331    0.9851   28.1842 C.2     1  UNL1        0.1598
     13 N         -21.2962    1.8798   27.5923 N.2     1  UNL1       -0.1356
     14 CL        -21.2357   -0.3161   28.9364 Cl      1  UNL1       -0.0594
     15 O         -29.7489    0.0533   27.5628 O.3     1  UNL1       -0.4738
     16 C         -27.9745    1.4283   25.7276 C.2     1  UNL1        0.2678
     17 C         -30.4863    0.9436   27.7814 C.3     1  UNL1        0.1883
     18 C         -30.5121    1.7973   28.4685 C.ar    1  UNL1        0.0172
     19 C         -30.9560    2.7693   28.9383 C.ar    1  UNL1       -0.0008
     20 C         -30.8887    3.6654   29.5994 C.ar    1  UNL1       -0.0002
     21 C         -29.6676    3.7159   30.4529 C.ar    1  UNL1       -0.0003
     22 C         -28.7721    2.6676   30.2208 C.ar    1  UNL1       -0.0036
     23 C         -29.0480    1.7588   29.3080 C.ar    1  UNL1       -0.0011
     24 N         -29.0773    1.2960   25.1914 N.am    1  UNL1       -0.1997
     25 C         -29.5401    1.7967   24.0752 C.3     1  UNL1        0.1388
     26 O         -27.4071    2.4786   25.4176 O.2     1  UNL1       -0.2683
     27 C         -31.9415    0.2996   27.6237 C.3     1  UNL1        0.0523
     28 C         -27.5128    2.6918   31.0391 C.2     1  UNL1       -0.0147
     29 C         -26.8500    1.8569   31.3516 C.2     1  UNL1       -0.0082
     30 C         -25.6392    1.9524   32.1147 C.2     1  UNL1       -0.0258
     31 C         -25.2383    3.1077   32.2950 C.2     1  UNL1       -0.0219
     32 C         -26.7945    3.9709   31.4842 C.3     1  UNL1        0.0658
     33 C         -24.9040    0.7364   32.4982 C.3     1  UNL1        0.0307
     34 C         -26.4633    5.2187   31.3941 C.2     1  UNL1       -0.0177
     35 C         -27.1433    6.1985   30.7246 C.2     1  UNL1       -0.0042
@<TRIPOS>BOND
     1     1     2    1
     2    10    12    1
     3    12    13    2
     4    12    14    1
     5     7    15    1
     6     6    16    1
     7    15    17    1
     8    16    24   am
     9    24    25    1
    10    16    26    2
    11    17    27    1
    12    22    28    1
    13    28    29    2
    14    29    30    1
    15    30    31    2
    16    28    32    1
    17    31    32    1
    18    30    33    1
    19    32    34    1
    20    34    35    2
    21    17    18    1
    22    18    19   ar
    23    19    20   ar
    24    20    21   ar
    25    21    22   ar
    26    22    23   ar
    27    23    18   ar
    28     5     8   ar
    29     8     9   ar
    30     9    10   ar
    31    10    11   ar
    32    11     4   ar
    33     1     3   ar
    34     3     4   ar
    35     4     5   ar
    36     5     6   ar
    37     6     7   ar
    38     7     1   ar
