@<TRIPOS>MOLECULE
No_1623-gen_results/8p0m/2024-11-27-11-27-31/
 9 9 0 0 0
SMALL
GASTEIGER

@<TRIPOS>ATOM
      1 F         -28.0727   -1.2542   28.5316 F       1  UNL1       -0.1933
      2 C         -27.0607   -0.6291   28.8721 C.3     1  UNL1        0.3410
      3 C         -26.3579   -0.0711   28.0115 C.ar    1  UNL1        0.0436
      4 C         -26.9293    0.3401   26.6950 C.ar    1  UNL1        0.0011
      5 C         -26.1547    0.6569   25.6608 C.ar    1  UNL1       -0.0001
      6 C         -24.7231    0.8742   25.8648 C.ar    1  UNL1       -0.0000
      7 C         -24.1598    0.7209   27.0864 C.ar    1  UNL1       -0.0001
      8 C         -24.9492    0.2685   28.1501 C.ar    1  UNL1        0.0011
      9 F         -27.3665    0.2464   29.9521 F       1  UNL1       -0.1933
@<TRIPOS>BOND
     1     1     2    1
     2     2     9    1
     3     2     3    1
     4     3     4   ar
     5     4     5   ar
     6     5     6   ar
     7     6     7   ar
     8     7     8   ar
     9     8     3   ar
