@<TRIPOS>MOLECULE
No_1628-gen_results/8p0m/2024-11-27-11-27-31/
 16 16 0 0 0
SMALL
GASTEIGER

@<TRIPOS>ATOM
      1 BR        -28.1146   -0.6256   29.0813 Br      1  UNL1       -0.0804
      2 C         -26.9268    0.4545   28.6846 C.3     1  UNL1        0.0719
      3 C         -26.3163    0.3925   27.4205 C.3     1  UNL1        0.0337
      4 C         -26.8783    0.0210   26.4631 C.3     1  UNL1        0.0099
      5 C         -27.2294    0.8764   25.5849 C.3     1  UNL1        0.0267
      6 C         -28.2585    1.5464   25.7928 C.ar    1  UNL1       -0.0222
      7 C         -29.0424    2.0670   24.7226 C.ar    1  UNL1       -0.0043
      8 C         -30.1230    2.9598   24.9772 C.ar    1  UNL1       -0.0003
      9 C         -30.3551    3.3650   26.2883 C.ar    1  UNL1       -0.0000
     10 C         -29.5676    2.9704   27.2921 C.ar    1  UNL1       -0.0003
     11 C         -28.5579    2.1832   27.0790 C.ar    1  UNL1       -0.0043
     12 C         -24.8327    0.4592   27.5403 C.2     1  UNL1       -0.0256
     13 C         -24.1043    1.2782   27.5734 C.2     1  UNL1       -0.0049
     14 C         -22.5978    1.2358   27.7783 C.2     1  UNL1       -0.0049
     15 C         -22.1081    0.1988   28.5740 C.2     1  UNL1       -0.0258
     16 C         -23.0310   -0.8853   28.8107 C.3     1  UNL1        0.0307
@<TRIPOS>BOND
     1     1     2    1
     2     2     3    1
     3     3     4    1
     4     4     5    1
     5     5     6    1
     6     3    12    1
     7    12    13    2
     8    13    14    1
     9    14    15    2
    10    15    16    1
    11     6     7   ar
    12     7     8   ar
    13     8     9   ar
    14     9    10   ar
    15    10    11   ar
    16    11     6   ar
