@<TRIPOS>MOLECULE
No_1629-gen_results/8p0m/2024-11-27-11-27-31/
 15 16 0 0 0
SMALL
GASTEIGER

@<TRIPOS>ATOM
      1 O         -28.1229   -1.3353   28.4874 O.2     1  UNL1       -0.2684
      2 C         -27.0637   -0.8242   28.8687 C.2     1  UNL1        0.2645
      3 C         -26.4017   -0.0623   28.6224 C.ar    1  UNL1        0.0511
      4 N         -26.2652   -1.8674   29.7609 N.am    1  UNL1       -0.2013
      5 C         -26.8442    1.1343   27.8797 C.ar    1  UNL1        0.0042
      6 C         -25.0005   -1.6707   30.1794 C.3     1  UNL1        0.1201
      7 C         -24.9787    0.3185   29.1503 C.ar    1  UNL1       -0.0121
      8 C         -24.3650   -0.5407   29.9325 C.3     1  UNL1        0.0499
      9 C         -26.1624    1.7901   26.9824 C.ar    1  UNL1        0.0001
     10 C         -24.7311    2.1207   27.4298 C.ar    1  UNL1        0.0035
     11 C         -24.0959    1.2369   28.3465 C.ar    1  UNL1        0.0677
     12 C         -22.7112    1.4614   28.6564 C.3     1  UNL1        0.4183
     13 F         -21.9098    1.1894   27.8269 F       1  UNL1       -0.1659
     14 F         -22.5909    2.8651   29.0590 F       1  UNL1       -0.1659
     15 F         -22.3095    0.9076   29.8828 F       1  UNL1       -0.1659
@<TRIPOS>BOND
     1     1     2    2
     2     2     3    1
     3     2     4   am
     4     6     8    1
     5    11    12    1
     6    12    13    1
     7    12    14    1
     8    12    15    1
     9     7     8    1
    10     6     4    1
    11     3     5   ar
    12     5     9   ar
    13     9    10   ar
    14    10    11   ar
    15    11     7   ar
    16     7     3   ar
