@<TRIPOS>MOLECULE
outputs/IAG933/test6/raw/output_1630_IAG933_linker_design_.xyz
 41 45 0 0 0
SMALL
GASTEIGER

@<TRIPOS>ATOM
      1 C         -24.8550   -1.0120   30.1430 C.3     1  UNL1        0.0970
      2 C         -24.9730   -2.5050   29.7880 C.2     1  UNL1       -0.0064
      3 C         -23.9060   -3.1730   29.1460 C.2     1  UNL1       -0.0029
      4 C         -23.9890   -4.5490   28.8530 C.2     1  UNL1       -0.0003
      5 C         -25.1370   -5.2800   29.2050 C.2     1  UNL1       -0.0000
      6 C         -26.2320   -4.6110   29.7840 C.2     1  UNL1       -0.0003
      7 C         -26.1550   -3.2320   30.0650 C.2     1  UNL1       -0.0029
      8 C         -25.3870   -0.6790   31.5710 C.3     1  UNL1        0.0916
      9 C         -25.1890    0.7730   32.0280 C.3     1  UNL1        0.0206
     10 C         -25.3360    0.6840   33.5440 C.3     1  UNL1        0.0203
     11 C         -24.8290   -0.7150   33.9050 C.3     1  UNL1        0.0888
     12 N         -24.7580   -1.4810   32.6460 N.3     1  UNL1       -0.2178
     13 C         -25.6880    1.6140   26.4610 C.3     1  UNL1        0.0898
     14 C         -26.2500    2.9200   26.3950 C.2     1  UNL1        0.0586
     15 C         -25.6420    4.0930   27.1230 C.2     1  UNL1        0.2627
     16 N         -25.6140    5.2520   26.4490 N.am    1  UNL1       -0.2000
     17 C         -25.0260    6.4790   26.9630 C.3     1  UNL1        0.1388
     18 O         -25.1430    3.9660   28.2430 O.2     1  UNL1       -0.2686
     19 C         -27.4380    3.0910   25.6450 C.2     1  UNL1        0.1025
     20 N         -28.0750    2.0890   25.0030 N.2     1  UNL1       -0.2118
     21 C         -27.5430    0.8490   25.0790 C.2     1  UNL1        0.2344
     22 O         -28.1930   -0.2080   24.4770 O.2     1  UNL1       -0.4585
     23 C         -29.4600    0.0050   23.8660 C.3     1  UNL1        0.2423
     24 C         -30.0650   -1.3770   23.5730 C.3     1  UNL1        0.2292
     25 O         -30.7290   -1.8780   24.7210 O.3     1  UNL1       -0.2162
     26 C         -26.3540    0.5760   25.7770 C.3     1  UNL1        0.2437
     27 F         -25.8600   -0.6810   25.7950 F       1  UNL1       -0.2265
     28 C         -22.3813    1.7996   26.7470 C.2     1  UNL1        0.2810
     29 C         -27.9245   -0.5044   28.7653 C.2     1  UNL1       -0.0027
     30 N         -21.1075    1.7720   27.2912 N.am    1  UNL1       -0.0840
     31 C         -25.6431    0.6356   28.4609 C.3     1  UNL1        0.0998
     32 C         -27.0043    0.5532   29.0478 C.2     1  UNL1       -0.0039
     33 C         -29.2588   -0.3508   29.0153 C.2     1  UNL1       -0.0003
     34 C         -23.4571    1.0839   27.5436 C.2     1  UNL1        0.0446
     35 C         -27.4345    1.5804   29.9244 C.2     1  UNL1       -0.0027
     36 C         -24.8492    1.1659   27.3809 C.2     1  UNL1       -0.0168
     37 O         -22.6102    2.3979   25.7094 O.2     1  UNL1       -0.2670
     38 C         -23.2569    0.2193   28.5727 C.3     1  UNL1        0.1039
     39 N         -24.6175   -0.1334   29.0920 N.3     1  UNL1       -0.2596
     40 C         -28.7467    1.6456   30.3083 C.2     1  UNL1       -0.0003
     41 C         -29.6633    0.7328   29.7924 C.2     1  UNL1       -0.0000
@<TRIPOS>BOND
     1     1     2    1
     2     2     7    1
     3     3     2    2
     4     4     3    1
     5     4     5    2
     6     5     6    1
     7     6     7    2
     8     8     1    1
     9     8     9    1
    10     8    12    1
    11     9    10    1
    12    10    11    1
    13    12    11    1
    14    13    36    1
    15    14    13    1
    16    14    15    1
    17    15    18    2
    18    16    17    1
    19    16    15    1
    20    19    14    2
    21    20    21    2
    22    20    19    1
    23    21    26    1
    24    22    21    1
    25    23    22    1
    26    24    23    1
    27    24    25    1
    28    26    27    1
    29    26    13    1
    30    28    30    1
    31    28    34    1
    32    29    33    2
    33    29    32    1
    34    31    32    1
    35    31    39    1
    36    32    35    2
    37    33    41    1
    38    34    38    1
    39    35    40    1
    40    36    34    2
    41    36    31    1
    42    37    28    2
    43    38    39    1
    44    39     1    1
    45    41    40    2
