@<TRIPOS>MOLECULE
outputs/IAG933/test6/raw/output_1631_IAG933_linker_design_.xyz
 41 45 0 0 0
SMALL
GASTEIGER

@<TRIPOS>ATOM
      1 C         -24.8550   -1.0120   30.1430 C.3     1  UNL1        0.0985
      2 C         -24.9730   -2.5050   29.7880 C.2     1  UNL1       -0.0064
      3 C         -23.9060   -3.1730   29.1460 C.2     1  UNL1       -0.0029
      4 C         -23.9890   -4.5490   28.8530 C.2     1  UNL1       -0.0003
      5 C         -25.1370   -5.2800   29.2050 C.2     1  UNL1       -0.0000
      6 C         -26.2320   -4.6110   29.7840 C.2     1  UNL1       -0.0003
      7 C         -26.1550   -3.2320   30.0650 C.2     1  UNL1       -0.0029
      8 C         -25.3870   -0.6790   31.5710 C.3     1  UNL1        0.0916
      9 C         -25.1890    0.7730   32.0280 C.3     1  UNL1        0.0206
     10 C         -25.3360    0.6840   33.5440 C.3     1  UNL1        0.0203
     11 C         -24.8290   -0.7150   33.9050 C.3     1  UNL1        0.0888
     12 N         -24.7580   -1.4810   32.6460 N.3     1  UNL1       -0.2178
     13 C         -25.6880    1.6140   26.4610 C.3     1  UNL1        0.0891
     14 C         -26.2500    2.9200   26.3950 C.2     1  UNL1        0.0563
     15 C         -25.6420    4.0930   27.1230 C.2     1  UNL1        0.2625
     16 N         -25.6140    5.2520   26.4490 N.am    1  UNL1       -0.2000
     17 C         -25.0260    6.4790   26.9630 C.3     1  UNL1        0.1388
     18 O         -25.1430    3.9660   28.2430 O.2     1  UNL1       -0.2687
     19 C         -27.4380    3.0910   25.6450 C.2     1  UNL1        0.1022
     20 N         -28.0750    2.0890   25.0030 N.2     1  UNL1       -0.2119
     21 C         -27.5430    0.8490   25.0790 C.2     1  UNL1        0.2341
     22 O         -28.1930   -0.2080   24.4770 O.2     1  UNL1       -0.4585
     23 C         -29.4600    0.0050   23.8660 C.3     1  UNL1        0.2423
     24 C         -30.0650   -1.3770   23.5730 C.3     1  UNL1        0.2292
     25 O         -30.7290   -1.8780   24.7210 O.3     1  UNL1       -0.2162
     26 C         -26.3540    0.5760   25.7770 C.3     1  UNL1        0.2414
     27 F         -25.8600   -0.6810   25.7950 F       1  UNL1       -0.2268
     28 C         -22.9477    1.9343   26.2331 C.3     1  UNL1        0.1765
     29 C         -22.5903    0.6851   28.1906 C.3     1  UNL1        0.1054
     30 C         -25.6676    0.6702   28.6530 C.3     1  UNL1        0.2596
     31 C         -26.4728    1.4216   29.5919 C.2     1  UNL1        0.3042
     32 O         -21.5287    2.0140   26.5706 O.3     1  UNL1       -0.3394
     33 C         -24.9014    1.2019   27.5956 C.3     1  UNL1        0.1183
     34 C         -23.3810    0.5245   29.4472 C.3     1  UNL1        0.0935
     35 N         -23.6334    1.3826   27.4147 N.3     1  UNL1       -0.2453
     36 N         -27.5917    0.9593   30.1336 N.am    1  UNL1       -0.0844
     37 N         -24.6605   -0.0424   29.1261 N.3     1  UNL1       -0.2380
     38 C         -21.2894    1.2440   27.7681 C.3     1  UNL1        0.1610
     39 C         -22.9644    1.1696   24.8800 C.3     1  UNL1        0.0508
     40 O         -26.7294   -0.4405   28.2862 O.3     1  UNL1       -0.1978
     41 O         -26.0615    2.4873   30.0688 O.2     1  UNL1       -0.2674
@<TRIPOS>BOND
     1     1     2    1
     2     2     7    1
     3     3     2    2
     4     4     3    1
     5     4     5    2
     6     5     6    1
     7     6     7    2
     8     8     1    1
     9     8     9    1
    10     8    12    1
    11     9    10    1
    12    10    11    1
    13    12    11    1
    14    13    14    1
    15    14    15    1
    16    15    18    2
    17    16    17    1
    18    16    15    1
    19    19    14    2
    20    20    21    2
    21    20    19    1
    22    21    26    1
    23    22    21    1
    24    23    22    1
    25    24    23    1
    26    24    25    1
    27    26    27    1
    28    26    13    1
    29    28    39    1
    30    28    32    1
    31    28    35    1
    32    29    38    1
    33    29    34    1
    34    30    40    1
    35    30    37    1
    36    30    31    1
    37    31    41    2
    38    31    36    1
    39    32    38    1
    40    33    13    1
    41    33    30    1
    42    35    33    1
    43    35    29    1
    44    37    34    1
    45    37     1    1
