@<TRIPOS>MOLECULE
No_1632-gen_results/8p0m/2024-11-27-11-27-31/
 27 29 0 0 0
SMALL
GASTEIGER

@<TRIPOS>ATOM
      1 C         -28.0162   -0.8135   28.8779 C.ar    1  UNL1        0.0067
      2 C         -28.4690   -0.7850   29.8287 C.ar    1  UNL1        0.0798
      3 C         -27.0871    0.2903   28.6377 C.ar    1  UNL1        0.0053
      4 C         -26.8317    1.2487   29.5869 C.ar    1  UNL1        0.0002
      5 C         -28.3914    0.0801   31.0065 C.ar    1  UNL1        0.0066
      6 C         -27.4940    1.1521   30.7841 C.ar    1  UNL1        0.0002
      7 C         -26.3172    0.3994   27.3653 C.ar    1  UNL1        0.0614
      8 C         -26.8815    0.9711   26.3721 C.ar    1  UNL1        0.1408
      9 C         -26.1465    0.9703   25.0973 C.ar    1  UNL1        0.0371
     10 C         -24.7793    0.5609   25.1117 C.ar    1  UNL1        0.0054
     11 C         -25.0074   -0.1159   27.2986 C.ar    1  UNL1        0.1430
     12 C         -24.2881    0.0057   26.2234 C.ar    1  UNL1        0.0298
     13 F         -24.4533   -0.6608   28.4041 F       1  UNL1       -0.2041
     14 O         -28.1881    1.2920   26.4088 O.3     1  UNL1       -0.4772
     15 C         -28.4615    2.6602   26.5424 C.3     1  UNL1        0.1658
     16 C         -29.5124   -1.9905   30.2227 C.2     1  UNL1        0.3878
     17 O         -29.1362   -2.8995   30.8536 O.co2   1  UNL1       -0.2406
     18 O         -30.6391   -1.8936   29.7182 O.co2   1  UNL1       -0.2406
     19 C         -29.4942    2.9466   27.4100 C.3     1  UNL1        0.0851
     20 C         -30.5776    2.2656   27.5284 C.2     1  UNL1       -0.0176
     21 C         -31.0957    1.6105   26.4710 C.2     1  UNL1        0.0041
     22 C         -30.9008    2.0403   25.2885 C.2     1  UNL1        0.0409
     23 C         -29.1658    3.1325   25.2187 C.2     1  UNL1        0.0548
     24 C         -30.0062    2.4746   24.4765 C.1     1  UNL1       -0.1017
     25 C         -27.2432    3.5122   26.7866 C.3     1  UNL1        0.0496
     26 C         -29.2109    3.9900   28.5217 C.2     1  UNL1       -0.0183
     27 C         -29.9579    4.0349   29.6918 C.2     1  UNL1       -0.0045
@<TRIPOS>BOND
     1     3     7    1
     2    11    13    1
     3     8    14    1
     4    14    15    1
     5     2    16    1
     6    16    17   ar
     7    16    18   ar
     8    15    19    1
     9    19    20    1
    10    20    21    2
    11    21    22    1
    12    15    23    1
    13    22    24    2
    14    23    24    2
    15    15    25    1
    16    19    26    1
    17    26    27    2
    18     7     8   ar
    19     8     9   ar
    20     9    10   ar
    21    10    12   ar
    22    12    11   ar
    23    11     7   ar
    24     1     2   ar
    25     2     5   ar
    26     5     6   ar
    27     6     4   ar
    28     4     3   ar
    29     3     1   ar
