@<TRIPOS>MOLECULE
outputs/IAG933/test6/raw/output_1633_IAG933_linker_design_.xyz
 44 48 0 0 0
SMALL
GASTEIGER

@<TRIPOS>ATOM
      1 C         -24.8550   -1.0120   30.1430 C.3     1  UNL1        0.0996
      2 C         -24.9730   -2.5050   29.7880 C.2     1  UNL1       -0.0063
      3 C         -23.9060   -3.1730   29.1460 C.2     1  UNL1       -0.0029
      4 C         -23.9890   -4.5490   28.8530 C.2     1  UNL1       -0.0003
      5 C         -25.1370   -5.2800   29.2050 C.2     1  UNL1       -0.0000
      6 C         -26.2320   -4.6110   29.7840 C.2     1  UNL1       -0.0003
      7 C         -26.1550   -3.2320   30.0650 C.2     1  UNL1       -0.0029
      8 C         -25.3870   -0.6790   31.5710 C.3     1  UNL1        0.0917
      9 C         -25.1890    0.7730   32.0280 C.3     1  UNL1        0.0206
     10 C         -25.3360    0.6840   33.5440 C.3     1  UNL1        0.0203
     11 C         -24.8290   -0.7150   33.9050 C.3     1  UNL1        0.0888
     12 N         -24.7580   -1.4810   32.6460 N.3     1  UNL1       -0.2178
     13 C         -25.6880    1.6140   26.4610 C.3     1  UNL1        0.0757
     14 C         -26.2500    2.9200   26.3950 C.2     1  UNL1        0.0550
     15 C         -25.6420    4.0930   27.1230 C.2     1  UNL1        0.2624
     16 N         -25.6140    5.2520   26.4490 N.am    1  UNL1       -0.2000
     17 C         -25.0260    6.4790   26.9630 C.3     1  UNL1        0.1388
     18 O         -25.1430    3.9660   28.2430 O.2     1  UNL1       -0.2687
     19 C         -27.4380    3.0910   25.6450 C.2     1  UNL1        0.1021
     20 N         -28.0750    2.0890   25.0030 N.2     1  UNL1       -0.2119
     21 C         -27.5430    0.8490   25.0790 C.2     1  UNL1        0.2341
     22 O         -28.1930   -0.2080   24.4770 O.2     1  UNL1       -0.4585
     23 C         -29.4600    0.0050   23.8660 C.3     1  UNL1        0.2423
     24 C         -30.0650   -1.3770   23.5730 C.3     1  UNL1        0.2292
     25 O         -30.7290   -1.8780   24.7210 O.3     1  UNL1       -0.2162
     26 C         -26.3540    0.5760   25.7770 C.3     1  UNL1        0.2402
     27 F         -25.8600   -0.6810   25.7950 F       1  UNL1       -0.2269
     28 C         -29.6291    3.5477   30.4527 C.2     1  UNL1        0.0672
     29 N         -26.8349    0.8072   28.9868 N.am    1  UNL1       -0.1903
     30 C         -30.5662    1.7258   28.6379 C.3     1  UNL1        0.0358
     31 C         -29.2032    1.6195   28.8911 C.3     1  UNL1        0.0862
     32 C         -28.1340    0.5929   28.5144 C.2     1  UNL1        0.2425
     33 O         -22.5048    0.1777   29.8465 O.3     1  UNL1       -0.2022
     34 C         -31.4234    2.1544   29.7087 C.3     1  UNL1        0.1256
     35 N         -24.7215   -0.1536   29.2629 N.3     1  UNL1       -0.2261
     36 O         -28.5203   -0.3288   27.8214 O.2     1  UNL1       -0.2733
     37 C         -28.6136    2.6727   29.8290 C.3     1  UNL1        0.0557
     38 C         -23.5273    1.0965   27.6694 C.3     1  UNL1        0.1646
     39 C         -23.4622    0.0485   28.8014 C.3     1  UNL1        0.2414
     40 C         -21.2070    1.5905   27.5793 C.3     1  UNL1        0.1742
     41 O         -22.5335    1.9197   27.1008 O.3     1  UNL1       -0.3494
     42 C         -24.7808    1.4008   27.5919 C.3     1  UNL1        0.0741
     43 C         -25.6393    0.6159   28.6374 C.3     1  UNL1        0.1595
     44 N         -31.0134    3.1845   30.4986 N.2     1  UNL1       -0.2735
@<TRIPOS>BOND
     1     1     2    1
     2     2     7    1
     3     3     2    2
     4     4     3    1
     5     4     5    2
     6     5     6    1
     7     6     7    2
     8     8     1    1
     9     8     9    1
    10     8    12    1
    11     9    10    1
    12    10    11    1
    13    12    11    1
    14    13    14    1
    15    14    15    1
    16    15    18    2
    17    16    17    1
    18    16    15    1
    19    19    14    2
    20    20    21    2
    21    20    19    1
    22    21    26    1
    23    22    21    1
    24    23    22    1
    25    24    23    1
    26    24    25    1
    27    26    27    1
    28    26    13    1
    29    28    44    2
    30    30    31    1
    31    30    34    1
    32    31    32    1
    33    31    37    1
    34    32    29    1
    35    34    44    1
    36    35     1    1
    37    36    32    2
    38    37    28    1
    39    38    41    1
    40    38    39    1
    41    39    35    1
    42    39    33    1
    43    41    40    1
    44    42    13    1
    45    42    38    1
    46    42    43    1
    47    43    29    1
    48    43    35    1
