@<TRIPOS>MOLECULE
outputs/IAG933/test6/raw/output_1635_IAG933_linker_design_.xyz
 44 47 0 0 0
SMALL
GASTEIGER

@<TRIPOS>ATOM
      1 C         -24.8550   -1.0120   30.1430 C.3     1  UNL1        0.0586
      2 C         -24.9730   -2.5050   29.7880 C.2     1  UNL1       -0.0195
      3 C         -23.9060   -3.1730   29.1460 C.2     1  UNL1       -0.0042
      4 C         -23.9890   -4.5490   28.8530 C.2     1  UNL1       -0.0003
      5 C         -25.1370   -5.2800   29.2050 C.2     1  UNL1       -0.0000
      6 C         -26.2320   -4.6110   29.7840 C.2     1  UNL1       -0.0003
      7 C         -26.1550   -3.2320   30.0650 C.2     1  UNL1       -0.0042
      8 C         -25.3870   -0.6790   31.5710 C.3     1  UNL1        0.0785
      9 C         -25.1890    0.7730   32.0280 C.3     1  UNL1        0.0192
     10 C         -25.3360    0.6840   33.5440 C.3     1  UNL1        0.0202
     11 C         -24.8290   -0.7150   33.9050 C.3     1  UNL1        0.0887
     12 N         -24.7580   -1.4810   32.6460 N.3     1  UNL1       -0.2191
     13 C         -25.6880    1.6140   26.4610 C.2     1  UNL1        0.0379
     14 C         -26.2500    2.9200   26.3950 C.2     1  UNL1        0.0765
     15 C         -25.6420    4.0930   27.1230 C.2     1  UNL1        0.2664
     16 N         -25.6140    5.2520   26.4490 N.am    1  UNL1       -0.1997
     17 C         -25.0260    6.4790   26.9630 C.3     1  UNL1        0.1388
     18 O         -25.1430    3.9660   28.2430 O.2     1  UNL1       -0.2683
     19 C         -27.4380    3.0910   25.6450 C.2     1  UNL1        0.1067
     20 N         -28.0750    2.0890   25.0030 N.2     1  UNL1       -0.2081
     21 C         -27.5430    0.8490   25.0790 C.2     1  UNL1        0.2533
     22 O         -28.1930   -0.2080   24.4770 O.2     1  UNL1       -0.4558
     23 C         -29.4600    0.0050   23.8660 C.3     1  UNL1        0.2426
     24 C         -30.0650   -1.3770   23.5730 C.3     1  UNL1        0.2292
     25 O         -30.7290   -1.8780   24.7210 O.3     1  UNL1       -0.2162
     26 C         -26.3540    0.5760   25.7770 C.2     1  UNL1        0.1930
     27 F         -25.8600   -0.6810   25.7950 F       1  UNL1       -0.1992
     28 C         -24.0427    0.5990   28.3945 C.2     1  UNL1        0.0329
     29 C         -24.3500    1.3927   27.1061 C.2     1  UNL1        0.0029
     30 O         -22.2895   -0.1567   29.8854 O.2     1  UNL1       -0.2869
     31 C         -27.1265    0.7793   28.7126 C.3     1  UNL1        0.1220
     32 N         -26.2902   -0.2271   28.5509 N.3     1  UNL1       -0.2119
     33 C         -28.5347    1.9960   30.9069 C.3     1  UNL1        0.1741
     34 O         -30.2922   -0.1007   27.3154 O.3     1  UNL1       -0.0347
     35 C         -21.5614    1.2710   28.1235 C.2     1  UNL1        0.0417
     36 C         -25.0788   -0.2064   29.0622 C.3     1  UNL1        0.1034
     37 O         -29.6894    1.9025   30.0666 O.3     1  UNL1       -0.3510
     38 C         -30.1702    0.6576   30.3725 C.3     1  UNL1        0.1449
     39 C         -29.1937   -0.1833   29.7931 C.3     1  UNL1        0.0665
     40 C         -22.6249    0.5796   28.8113 C.2     1  UNL1        0.1930
     41 C         -21.8775    1.9657   26.9178 C.2     1  UNL1        0.0033
     42 O         -28.9431   -0.2736   27.4339 O.3     1  UNL1       -0.1901
     43 C         -28.3919    0.2867   28.6726 C.3     1  UNL1        0.1749
     44 C         -23.2221    1.9826   26.3809 C.2     1  UNL1        0.0000
@<TRIPOS>BOND
     1     1    36    1
     2     2     7    1
     3     2     1    1
     4     3     2    2
     5     4     3    1
     6     4     5    2
     7     5     6    1
     8     6     7    2
     9     8     1    1
    10     8     9    1
    11     8    12    1
    12     9    10    1
    13    10    11    1
    14    12    11    1
    15    13    29    1
    16    14    13    1
    17    14    15    1
    18    15    18    2
    19    16    17    1
    20    16    15    1
    21    19    14    2
    22    20    21    2
    23    20    19    1
    24    21    26    1
    25    22    21    1
    26    23    22    1
    27    24    23    1
    28    24    25    1
    29    26    27    1
    30    26    13    2
    31    28    40    1
    32    28    36    1
    33    29    28    2
    34    32    31    1
    35    34    42    1
    36    35    40    2
    37    36    32    1
    38    37    38    1
    39    37    33    1
    40    39    38    1
    41    40    30    1
    42    41    35    1
    43    42    43    1
    44    43    31    1
    45    43    39    1
    46    44    41    2
    47    44    29    1
