@<TRIPOS>MOLECULE
No_1636-gen_results/8p0m/2024-11-27-11-27-31/
 19 21 0 0 0
SMALL
GASTEIGER

@<TRIPOS>ATOM
      1 C         -28.0162   -0.8135   28.8779 C.ar    1  UNL1       -0.0039
      2 C         -27.0636   -0.1189   28.6079 C.ar    1  UNL1       -0.0178
      3 C         -26.9287    1.1713   29.0083 C.ar    1  UNL1       -0.0039
      4 C         -27.9560    1.7411   29.7840 C.ar    1  UNL1       -0.0003
      5 C         -29.0569   -0.3271   29.7466 C.ar    1  UNL1       -0.0003
      6 C         -28.9828    0.9722   30.1516 C.ar    1  UNL1       -0.0000
      7 C         -25.8815   -0.6260   27.7945 C.3     1  UNL1        0.0526
      8 C         -24.6972   -1.0572   28.6241 C.ar    1  UNL1       -0.0178
      9 C         -24.1843   -0.3700   29.5411 C.ar    1  UNL1       -0.0039
     10 C         -23.1047   -0.3769   30.0504 C.ar    1  UNL1       -0.0003
     11 C         -22.2372   -1.5089   29.5920 C.ar    1  UNL1       -0.0000
     12 C         -22.8086   -2.3006   28.6217 C.ar    1  UNL1       -0.0003
     13 C         -24.0169   -2.1181   28.1246 C.ar    1  UNL1       -0.0039
     14 C         -30.1399    1.5116   30.9858 C.ar    1  UNL1       -0.0000
     15 C         -31.1177    1.7361   30.8256 C.ar    1  UNL1       -0.0000
     16 C         -32.1049    2.2824   31.7597 C.ar    1  UNL1        0.0000
     17 C         -29.5696    1.7574   32.4331 C.ar    1  UNL1       -0.0000
     18 C         -30.4270    2.2701   33.3738 C.ar    1  UNL1        0.0000
     19 C         -31.6901    2.5443   33.0340 C.ar    1  UNL1        0.0000
@<TRIPOS>BOND
     1     2     7    1
     2     7     8    1
     3     6    14    1
     4     1     2   ar
     5     2     3   ar
     6     3     4   ar
     7     4     6   ar
     8     6     5   ar
     9     5     1   ar
    10     8     9   ar
    11     9    10   ar
    12    10    11   ar
    13    11    12   ar
    14    12    13   ar
    15    13     8   ar
    16    14    15   ar
    17    15    16   ar
    18    16    19   ar
    19    19    18   ar
    20    18    17   ar
    21    17    14   ar
