@<TRIPOS>MOLECULE
outputs/IAG933/test6/raw/output_1638_IAG933_linker_design_.xyz
 43 46 0 0 0
SMALL
GASTEIGER

@<TRIPOS>ATOM
      1 C         -24.8550   -1.0120   30.1430 C.3     1  UNL1        0.1180
      2 C         -24.9730   -2.5050   29.7880 C.2     1  UNL1       -0.0026
      3 C         -23.9060   -3.1730   29.1460 C.2     1  UNL1       -0.0026
      4 C         -23.9890   -4.5490   28.8530 C.2     1  UNL1       -0.0003
      5 C         -25.1370   -5.2800   29.2050 C.2     1  UNL1       -0.0000
      6 C         -26.2320   -4.6110   29.7840 C.2     1  UNL1       -0.0003
      7 C         -26.1550   -3.2320   30.0650 C.2     1  UNL1       -0.0026
      8 C         -25.3870   -0.6790   31.5710 C.3     1  UNL1        0.0955
      9 C         -25.1890    0.7730   32.0280 C.3     1  UNL1        0.0209
     10 C         -25.3360    0.6840   33.5440 C.3     1  UNL1        0.0203
     11 C         -24.8290   -0.7150   33.9050 C.3     1  UNL1        0.0888
     12 N         -24.7580   -1.4810   32.6460 N.3     1  UNL1       -0.2174
     13 C         -25.6880    1.6140   26.4610 C.2     1  UNL1        0.0393
     14 C         -26.2500    2.9200   26.3950 C.2     1  UNL1        0.0766
     15 C         -25.6420    4.0930   27.1230 C.2     1  UNL1        0.2664
     16 N         -25.6140    5.2520   26.4490 N.am    1  UNL1       -0.1997
     17 C         -25.0260    6.4790   26.9630 C.3     1  UNL1        0.1388
     18 O         -25.1430    3.9660   28.2430 O.2     1  UNL1       -0.2683
     19 C         -27.4380    3.0910   25.6450 C.2     1  UNL1        0.1067
     20 N         -28.0750    2.0890   25.0030 N.2     1  UNL1       -0.2081
     21 C         -27.5430    0.8490   25.0790 C.2     1  UNL1        0.2533
     22 O         -28.1930   -0.2080   24.4770 O.2     1  UNL1       -0.4558
     23 C         -29.4600    0.0050   23.8660 C.3     1  UNL1        0.2426
     24 C         -30.0650   -1.3770   23.5730 C.3     1  UNL1        0.2292
     25 O         -30.7290   -1.8780   24.7210 O.3     1  UNL1       -0.2162
     26 C         -26.3540    0.5760   25.7770 C.2     1  UNL1        0.1931
     27 F         -25.8600   -0.6810   25.7950 F       1  UNL1       -0.1992
     28 P         -29.5667    3.3624   30.7553 P.3     1  UNL1        0.2546
     29 C         -24.4039    1.2907   27.0690 C.2     1  UNL1        0.0162
     30 C         -26.7148    0.2554   28.9275 C.2     1  UNL1        0.2296
     31 O         -28.3324    3.1849   31.3901 O.3     1  UNL1       -0.1678
     32 C         -29.9807    2.2077   29.6342 C.3     1  UNL1        0.0900
     33 N         -25.3282   -0.0024   29.1173 N.am    1  UNL1       -0.2550
     34 C         -23.2537    1.7809   26.3997 C.2     1  UNL1        0.0013
     35 C         -27.4232    1.6507   29.0364 C.3     1  UNL1        0.0862
     36 O         -29.6180    4.6699   30.0969 O.2     1  UNL1       -0.2869
     37 C         -21.9889    1.6055   26.9289 C.2     1  UNL1        0.0001
     38 C         -30.8771    3.4318   31.9070 C.3     1  UNL1        0.0998
     39 C         -22.9651    0.4650   28.8296 C.2     1  UNL1        0.0149
     40 C         -21.8643    0.9336   28.1343 C.2     1  UNL1        0.0013
     41 C         -24.2918    0.5831   28.3424 C.2     1  UNL1        0.0542
     42 C         -28.9162    1.8934   28.6155 C.3     1  UNL1        0.0199
     43 O         -27.4111   -0.6851   28.5811 O.2     1  UNL1       -0.2745
@<TRIPOS>BOND
     1     1    33    1
     2     2     7    1
     3     2     1    1
     4     3     2    2
     5     4     3    1
     6     4     5    2
     7     5     6    1
     8     6     7    2
     9     8     1    1
    10     8     9    1
    11     8    12    1
    12     9    10    1
    13    10    11    1
    14    12    11    1
    15    13    29    1
    16    14    13    1
    17    14    15    1
    18    15    18    2
    19    16    17    1
    20    16    15    1
    21    19    14    2
    22    20    21    2
    23    20    19    1
    24    21    26    1
    25    22    21    1
    26    23    22    1
    27    24    23    1
    28    24    25    1
    29    26    27    1
    30    26    13    2
    31    28    31    1
    32    28    38    1
    33    29    41    1
    34    30    35    1
    35    30    33   am
    36    32    28    1
    37    34    37    1
    38    34    29    2
    39    36    28    2
    40    37    40    2
    41    40    39    1
    42    41    39    2
    43    41    33    1
    44    42    35    1
    45    42    32    1
    46    43    30    2
