@<TRIPOS>MOLECULE
No_1640-gen_results/8p0m/2024-11-27-11-27-31/
 10 10 0 0 0
SMALL
GASTEIGER

@<TRIPOS>ATOM
      1 C         -28.0162   -0.8135   28.8779 C.3     1  UNL1        0.0616
      2 C         -27.0636   -0.1189   28.6079 C.ar    1  UNL1       -0.0194
      3 C         -26.9716    0.7139   27.5060 C.ar    1  UNL1       -0.0042
      4 C         -25.8205    1.4910   27.1160 C.ar    1  UNL1       -0.0003
      5 C         -24.6562    1.4242   27.9180 C.ar    1  UNL1       -0.0000
      6 C         -24.6847    0.5901   29.0659 C.ar    1  UNL1       -0.0003
      7 C         -25.8099   -0.1266   29.3338 C.ar    1  UNL1       -0.0042
      8 C         -28.0445   -1.5734   30.1690 C.3     1  UNL1        0.1654
      9 F         -29.1245   -2.2374   30.4106 F       1  UNL1       -0.2369
     10 C         -26.8488   -2.4628   30.3229 C.3     1  UNL1        0.0384
@<TRIPOS>BOND
     1     1     8    1
     2     8     9    1
     3     8    10    1
     4     1     2    1
     5     2     3   ar
     6     3     4   ar
     7     4     5   ar
     8     5     6   ar
     9     6     7   ar
    10     7     2   ar
