@<TRIPOS>MOLECULE
No_1643-gen_results/8p0m/2024-11-27-11-27-31/
 16 16 0 0 0
SMALL
GASTEIGER

@<TRIPOS>ATOM
      1 C         -28.0162   -0.8135   28.8779 C.ar    1  UNL1        0.0017
      2 C         -27.0636   -0.1189   28.6079 C.ar    1  UNL1        0.0191
      3 C         -27.0010    0.6913   27.4910 C.ar    1  UNL1        0.0017
      4 C         -28.1373    0.7363   26.6350 C.ar    1  UNL1        0.0046
      5 C         -29.2360    0.0765   27.0690 C.ar    1  UNL1        0.0550
      6 C         -29.2177   -0.6429   28.1747 C.ar    1  UNL1        0.0046
      7 C         -30.4152    0.1590   26.1820 C.2     1  UNL1        0.2648
      8 N         -31.3727   -0.5052   26.4854 N.am    1  UNL1       -0.1998
      9 O         -30.3871    0.8406   25.1078 O.2     1  UNL1       -0.2684
     10 C         -32.5900   -0.5930   25.5964 C.3     1  UNL1        0.1388
     11 C         -25.6263   -0.1127   29.2580 C.2     1  UNL1        0.0988
     12 N         -24.6507    0.3117   28.8986 N.2     1  UNL1       -0.2423
     13 C         -23.4595    0.1384   29.5467 C.2     1  UNL1        0.0989
     14 C         -22.2174    0.6618   29.0241 C.2     1  UNL1        0.0206
     15 C         -22.3768    1.3340   27.8023 C.2     1  UNL1        0.0016
     16 C         -23.4907    1.6541   27.1509 C.2     1  UNL1        0.0001
@<TRIPOS>BOND
     1     5     7    1
     2     7     8   am
     3     7     9    2
     4     8    10    1
     5     2    11    1
     6    11    12    2
     7    12    13    1
     8    13    14    2
     9    14    15    1
    10    15    16    2
    11     1     2   ar
    12     2     3   ar
    13     3     4   ar
    14     4     5   ar
    15     5     6   ar
    16     6     1   ar
