@<TRIPOS>MOLECULE
No_1646-gen_results/8p0m/2024-11-27-11-27-31/
 17 18 0 0 0
SMALL
GASTEIGER

@<TRIPOS>ATOM
      1 C         -28.0162   -0.8135   28.8779 C.ar    1  UNL1        0.0075
      2 C         -28.4690   -0.7850   29.8287 C.ar    1  UNL1        0.0574
      3 C         -26.5042   -0.7777   28.8766 C.ar    1  UNL1       -0.0169
      4 C         -25.6540   -0.6597   27.7191 C.3     1  UNL1        0.0526
      5 C         -27.9180   -0.9374   31.1824 C.ar    1  UNL1        0.0114
      6 C         -26.5423   -0.9399   31.2606 C.ar    1  UNL1        0.0006
      7 C         -25.7832   -0.8935   30.1201 C.ar    1  UNL1       -0.0039
      8 C         -25.2134    0.6923   27.3830 C.ar    1  UNL1       -0.0177
      9 C         -23.9202    0.9215   27.7698 C.ar    1  UNL1       -0.0023
     10 C         -23.2576    2.1194   27.2629 C.ar    1  UNL1       -0.0003
     11 C         -23.9322    2.9640   26.4349 C.ar    1  UNL1       -0.0000
     12 C         -25.8566    1.4747   26.4320 C.ar    1  UNL1       -0.0039
     13 C         -25.2193    2.6095   25.9797 C.ar    1  UNL1       -0.0003
     14 CL        -30.2748   -0.8011   29.8292 Cl      1  UNL1       -0.0823
     15 C         -23.0879    0.1255   28.7085 C.2     1  UNL1        0.0191
     16 C         -21.7572    0.3049   28.9139 C.2     1  UNL1        0.1057
     17 N         -21.3372   -0.7500   29.7571 N.pl3   1  UNL1       -0.1266
@<TRIPOS>BOND
     1     3     4    1
     2     4     8    1
     3     2    14    1
     4     9    15    1
     5    15    16    2
     6    16    17    1
     7     1     2   ar
     8     2     5   ar
     9     5     6   ar
    10     6     7   ar
    11     7     3   ar
    12     3     1   ar
    13     8     9   ar
    14     9    10   ar
    15    10    11   ar
    16    11    13   ar
    17    13    12   ar
    18    12     8   ar
