@<TRIPOS>MOLECULE
outputs/IAG933/test6/raw/output_1647_IAG933_linker_design_.xyz
 44 49 0 0 0
SMALL
GASTEIGER

@<TRIPOS>ATOM
      1 C         -24.8550   -1.0120   30.1430 C.3     1  UNL1        0.0827
      2 C         -24.9730   -2.5050   29.7880 C.2     1  UNL1       -0.0173
      3 C         -23.9060   -3.1730   29.1460 C.2     1  UNL1       -0.0041
      4 C         -23.9890   -4.5490   28.8530 C.2     1  UNL1       -0.0003
      5 C         -25.1370   -5.2800   29.2050 C.2     1  UNL1       -0.0000
      6 C         -26.2320   -4.6110   29.7840 C.2     1  UNL1       -0.0003
      7 C         -26.1550   -3.2320   30.0650 C.2     1  UNL1       -0.0041
      8 C         -25.3870   -0.6790   31.5710 C.3     1  UNL1        0.0823
      9 C         -25.1890    0.7730   32.0280 C.3     1  UNL1        0.0384
     10 C         -25.3360    0.6840   33.5440 C.3     1  UNL1        0.0219
     11 C         -24.8290   -0.7150   33.9050 C.3     1  UNL1        0.0888
     12 N         -24.7580   -1.4810   32.6460 N.3     1  UNL1       -0.2189
     13 C         -25.6880    1.6140   26.4610 C.2     1  UNL1        0.0401
     14 C         -26.2500    2.9200   26.3950 C.2     1  UNL1        0.0766
     15 C         -25.6420    4.0930   27.1230 C.2     1  UNL1        0.2664
     16 N         -25.6140    5.2520   26.4490 N.am    1  UNL1       -0.1997
     17 C         -25.0260    6.4790   26.9630 C.3     1  UNL1        0.1388
     18 O         -25.1430    3.9660   28.2430 O.2     1  UNL1       -0.2683
     19 C         -27.4380    3.0910   25.6450 C.2     1  UNL1        0.1067
     20 N         -28.0750    2.0890   25.0030 N.2     1  UNL1       -0.2081
     21 C         -27.5430    0.8490   25.0790 C.2     1  UNL1        0.2533
     22 O         -28.1930   -0.2080   24.4770 O.2     1  UNL1       -0.4558
     23 C         -29.4600    0.0050   23.8660 C.3     1  UNL1        0.2426
     24 C         -30.0650   -1.3770   23.5730 C.3     1  UNL1        0.2292
     25 O         -30.7290   -1.8780   24.7210 O.3     1  UNL1       -0.2162
     26 C         -26.3540    0.5760   25.7770 C.2     1  UNL1        0.1931
     27 F         -25.8600   -0.6810   25.7950 F       1  UNL1       -0.1992
     28 C         -23.3525   -0.4038   29.6259 C.3     1  UNL1        0.1947
     29 N         -25.2105    1.6943   29.3581 N.pl3   1  UNL1       -0.2389
     30 C         -24.1814    1.3188   28.3863 C.2     1  UNL1        0.0656
     31 C         -21.8701    0.7048   28.1397 C.2     1  UNL1        0.0355
     32 C         -19.8951   -0.0470   28.0981 C.2     1  UNL1        0.0400
     33 C         -24.3262    1.5110   27.0055 C.2     1  UNL1        0.0277
     34 C         -23.0177    1.7291   26.3459 C.2     1  UNL1        0.0590
     35 O         -22.0069   -0.6383   30.0179 O.2     1  UNL1       -0.4743
     36 CL        -22.8253    2.3337   24.7132 Cl      1  UNL1       -0.0822
     37 O         -28.8778    1.4978   30.4973 O.co2   1  UNL1       -0.2456
     38 C         -20.9260   -0.1089   28.8670 C.2     1  UNL1        0.1388
     39 C         -27.6365    1.2997   30.2326 C.2     1  UNL1        0.3666
     40 C         -26.7335    2.3282   30.9470 C.3     1  UNL1        0.1356
     41 C         -25.2843    1.8461   30.7744 C.3     1  UNL1        0.1051
     42 C         -23.0700    0.6561   28.7516 C.2     1  UNL1        0.0354
     43 O         -27.2521    0.3365   29.5176 O.co2   1  UNL1       -0.2456
     44 C         -21.8178    1.4254   26.9544 C.2     1  UNL1        0.0143
@<TRIPOS>BOND
     1     1     2    1
     2     1     8    1
     3     2     7    1
     4     3     2    2
     5     4     3    1
     6     4     5    2
     7     5     6    1
     8     6     7    2
     9     8     9    1
    10     8    12    1
    11     9    10    1
    12    10    11    1
    13    12    11    1
    14    13    33    1
    15    14    13    1
    16    14    15    1
    17    15    18    2
    18    16    17    1
    19    16    15    1
    20    19    14    2
    21    20    21    2
    22    20    19    1
    23    21    26    1
    24    22    21    1
    25    23    22    1
    26    24    23    1
    27    24    25    1
    28    26    27    1
    29    26    13    2
    30    28    42    1
    31    28    35    1
    32    28     1    1
    33    29    41    1
    34    30    42    1
    35    30    29    1
    36    31    42    2
    37    31    38    1
    38    32    38    2
    39    33    30    2
    40    34    44    2
    41    34    33    1
    42    36    34    1
    43    38    35    1
    44    39    37   ar
    45    39    40    1
    46    41    40    1
    47    41     9    1
    48    43    39   ar
    49    44    31    1
