@<TRIPOS>MOLECULE
outputs/IAG933/test6/raw/output_1649_IAG933_linker_design_.xyz
 50 53 0 0 0
SMALL
GASTEIGER

@<TRIPOS>ATOM
      1 C         -24.8550   -1.0120   30.1430 C.3     1  UNL1        0.0438
      2 C         -24.9730   -2.5050   29.7880 C.2     1  UNL1       -0.0208
      3 C         -23.9060   -3.1730   29.1460 C.2     1  UNL1       -0.0042
      4 C         -23.9890   -4.5490   28.8530 C.2     1  UNL1       -0.0003
      5 C         -25.1370   -5.2800   29.2050 C.2     1  UNL1       -0.0000
      6 C         -26.2320   -4.6110   29.7840 C.2     1  UNL1       -0.0003
      7 C         -26.1550   -3.2320   30.0650 C.2     1  UNL1       -0.0042
      8 C         -25.3870   -0.6790   31.5710 C.3     1  UNL1        0.0788
      9 C         -25.1890    0.7730   32.0280 C.3     1  UNL1        0.0396
     10 C         -25.3360    0.6840   33.5440 C.3     1  UNL1        0.0220
     11 C         -24.8290   -0.7150   33.9050 C.3     1  UNL1        0.0888
     12 N         -24.7580   -1.4810   32.6460 N.3     1  UNL1       -0.2191
     13 C         -25.6880    1.6140   26.4610 C.2     1  UNL1        0.0407
     14 C         -26.2500    2.9200   26.3950 C.2     1  UNL1        0.0744
     15 C         -25.6420    4.0930   27.1230 C.2     1  UNL1        0.2220
     16 N         -25.6140    5.2520   26.4490 N.2     1  UNL1       -0.2357
     17 C         -25.0260    6.4790   26.9630 C.3     1  UNL1        0.1550
     18 O         -25.1430    3.9660   28.2430 O.2     1  UNL1       -0.4585
     19 C         -27.4380    3.0910   25.6450 C.2     1  UNL1        0.1068
     20 N         -28.0750    2.0890   25.0030 N.2     1  UNL1       -0.2081
     21 C         -27.5430    0.8490   25.0790 C.2     1  UNL1        0.2533
     22 O         -28.1930   -0.2080   24.4770 O.2     1  UNL1       -0.4558
     23 C         -29.4600    0.0050   23.8660 C.3     1  UNL1        0.2426
     24 C         -30.0650   -1.3770   23.5730 C.3     1  UNL1        0.2292
     25 O         -30.7290   -1.8780   24.7210 O.3     1  UNL1       -0.2162
     26 C         -26.3540    0.5760   25.7770 C.2     1  UNL1        0.1931
     27 F         -25.8600   -0.6810   25.7950 F       1  UNL1       -0.1992
     28 O         -27.8724    2.7447   34.7989 O.3     1  UNL1       -0.0346
     29 N         -25.8991    6.1170   33.5466 N.pl3   1  UNL1       -0.2761
     30 N         -26.2480    2.9774   31.7431 N.am    1  UNL1       -0.2038
     31 C         -25.6942    4.0969   32.3219 C.2     1  UNL1        0.2624
     32 C         -27.8596    4.5993   33.4753 C.3     1  UNL1        0.2146
     33 C         -26.2201    7.2545   33.8242 C.2     1  UNL1        0.0658
     34 N         -23.6482    1.8718   28.9740 N.am    1  UNL1       -0.1938
     35 C         -24.1697    7.2582   35.9073 C.2     1  UNL1        0.0014
     36 C         -23.9317    6.2734   35.0013 C.2     1  UNL1        0.0161
     37 C         -26.1036    8.2071   34.8203 C.2     1  UNL1        0.0161
     38 C         -25.7141    1.7964   31.0703 C.3     1  UNL1        0.1203
     39 C         -21.9078    1.6792   27.4937 C.2     1  UNL1        0.3395
     40 O         -22.2009    0.2504   29.2954 O.2     1  UNL1       -0.2632
     41 C         -24.6512    2.3349   30.0744 C.3     1  UNL1        0.1592
     42 O         -27.7348    4.1128   34.8265 O.3     1  UNL1       -0.1867
     43 O         -22.4822    2.1799   26.4761 O.2     1  UNL1       -0.2616
     44 C         -22.6203    1.0702   28.5547 C.2     1  UNL1        0.3219
     45 N         -20.5832    1.6430   27.6573 N.am    1  UNL1       -0.0796
     46 O         -24.4307    4.2219   32.3277 O.2     1  UNL1       -0.2714
     47 C         -25.4201    3.2522   29.3343 C.3     1  UNL1        0.2303
     48 C         -24.8530    6.0758   33.9594 C.2     1  UNL1        0.0658
     49 C         -25.1797    8.1797   35.7983 C.2     1  UNL1        0.0014
     50 C         -26.4809    4.9395   33.0148 C.3     1  UNL1        0.1887
@<TRIPOS>BOND
     1     2     7    1
     2     2     1    1
     3     3     2    2
     4     4     3    1
     5     4     5    2
     6     5     6    1
     7     6     7    2
     8     8     1    1
     9     8     9    1
    10     8    12    1
    11     9    38    1
    12     9    10    1
    13    10    11    1
    14    12    11    1
    15    14    13    1
    16    14    15    1
    17    15    18    1
    18    16    17    1
    19    16    15    2
    20    18    47    1
    21    19    14    2
    22    20    21    2
    23    20    19    1
    24    21    26    1
    25    22    21    1
    26    23    22    1
    27    24    23    1
    28    24    25    1
    29    26    27    1
    30    26    13    2
    31    28    42    1
    32    29    33    1
    33    29    48    1
    34    30    31    1
    35    31    46    2
    36    31    50    1
    37    32    42    1
    38    33    37    2
    39    34    41    1
    40    36    35    1
    41    37    49    1
    42    38    30    1
    43    39    45    1
    44    39    44    1
    45    41    47    1
    46    41    38    1
    47    43    39    2
    48    44    34    1
    49    44    40    2
    50    48    36    2
    51    49    35    2
    52    50    32    1
    53    50    29    1
