@<TRIPOS>MOLECULE
outputs/IAG933/test6/raw/output_165_IAG933_linker_design_.xyz
 44 46 0 0 0
SMALL
GASTEIGER

@<TRIPOS>ATOM
      1 C         -24.8550   -1.0120   30.1430 C.3     1  UNL1        0.1250
      2 C         -24.9730   -2.5050   29.7880 C.2     1  UNL1       -0.0041
      3 C         -23.9060   -3.1730   29.1460 C.2     1  UNL1       -0.0029
      4 C         -23.9890   -4.5490   28.8530 C.2     1  UNL1       -0.0003
      5 C         -25.1370   -5.2800   29.2050 C.2     1  UNL1       -0.0000
      6 C         -26.2320   -4.6110   29.7840 C.2     1  UNL1       -0.0003
      7 C         -26.1550   -3.2320   30.0650 C.2     1  UNL1       -0.0029
      8 C         -25.3870   -0.6790   31.5710 C.3     1  UNL1        0.0939
      9 C         -25.1890    0.7730   32.0280 C.3     1  UNL1        0.0207
     10 C         -25.3360    0.6840   33.5440 C.3     1  UNL1        0.0203
     11 C         -24.8290   -0.7150   33.9050 C.3     1  UNL1        0.0888
     12 N         -24.7580   -1.4810   32.6460 N.3     1  UNL1       -0.2177
     13 C         -25.6880    1.6140   26.4610 C.3     1  UNL1        0.0994
     14 C         -26.2500    2.9200   26.3950 C.2     1  UNL1        0.0572
     15 C         -25.6420    4.0930   27.1230 C.2     1  UNL1        0.2625
     16 N         -25.6140    5.2520   26.4490 N.am    1  UNL1       -0.2000
     17 C         -25.0260    6.4790   26.9630 C.3     1  UNL1        0.1388
     18 O         -25.1430    3.9660   28.2430 O.2     1  UNL1       -0.2687
     19 C         -27.4380    3.0910   25.6450 C.2     1  UNL1        0.1022
     20 N         -28.0750    2.0890   25.0030 N.2     1  UNL1       -0.2119
     21 C         -27.5430    0.8490   25.0790 C.2     1  UNL1        0.2342
     22 O         -28.1930   -0.2080   24.4770 O.2     1  UNL1       -0.4585
     23 C         -29.4600    0.0050   23.8660 C.3     1  UNL1        0.2423
     24 C         -30.0650   -1.3770   23.5730 C.3     1  UNL1        0.2292
     25 O         -30.7290   -1.8780   24.7210 O.3     1  UNL1       -0.2162
     26 C         -26.3540    0.5760   25.7770 C.3     1  UNL1        0.2424
     27 F         -25.8600   -0.6810   25.7950 F       1  UNL1       -0.2268
     28 C         -23.5505    1.2627   27.5179 C.3     1  UNL1        0.0669
     29 C         -22.8379    1.1885   26.7666 C.3     1  UNL1        0.2121
     30 C         -19.8703    1.2305   28.2371 C.3     1  UNL1        0.0347
     31 C         -22.6028    0.5067   29.5522 C.3     1  UNL1        0.1095
     32 C         -24.8162    1.0031   27.3393 C.3     1  UNL1        0.1476
     33 F         -21.7579    1.5592   24.5553 F       1  UNL1       -0.1675
     34 C         -20.7914    1.8796   27.4933 C.3     1  UNL1        0.1425
     35 F         -22.7955    2.8485   25.2722 F       1  UNL1       -0.1675
     36 N         -21.7336   -0.2831   30.0011 N.3     1  UNL1       -0.1314
     37 C         -26.7362   -0.3472   28.7933 C.3     1  UNL1        0.2834
     38 O         -21.4757    0.8701   26.7030 O.3     1  UNL1       -0.3477
     39 C         -23.1910    0.9420   28.8970 C.3     1  UNL1        0.0257
     40 N         -25.5195   -0.2333   29.1550 N.3     1  UNL1       -0.1298
     41 O         -24.8397   -0.5201   27.9326 O.3     1  UNL1       -0.2817
     42 C         -22.9134    1.5572   25.2422 C.3     1  UNL1        0.4222
     43 F         -23.5927    0.5612   24.5759 F       1  UNL1       -0.1675
     44 O         -27.6367   -0.6694   28.2656 O.3     1  UNL1       -0.1983
@<TRIPOS>BOND
     1     1    40    1
     2     2     7    1
     3     2     1    1
     4     3     2    2
     5     4     3    1
     6     4     5    2
     7     5     6    1
     8     6     7    2
     9     8     1    1
    10     8     9    1
    11     8    12    1
    12     9    10    1
    13    10    11    1
    14    12    11    1
    15    13    32    1
    16    14    13    1
    17    14    15    1
    18    15    18    2
    19    16    17    1
    20    16    15    1
    21    19    14    2
    22    20    21    2
    23    20    19    1
    24    21    26    1
    25    22    21    1
    26    23    22    1
    27    24    23    1
    28    24    25    1
    29    26    27    1
    30    26    13    1
    31    28    39    1
    32    29    38    1
    33    29    28    1
    34    31    36    1
    35    32    28    1
    36    32    41    1
    37    33    42    1
    38    34    30    1
    39    37    40    1
    40    38    34    1
    41    39    31    1
    42    41    40    1
    43    42    35    1
    44    42    29    1
    45    43    42    1
    46    44    37    1
