@<TRIPOS>MOLECULE
No_1650-gen_results/8p0m/2024-11-27-11-27-31/
 13 14 0 0 0
SMALL
GASTEIGER

@<TRIPOS>ATOM
      1 C         -28.0162   -0.8135   28.8779 C.ar    1  UNL1        0.0000
      2 C         -27.0636   -0.1189   28.6079 C.ar    1  UNL1        0.0000
      3 C         -25.7647   -0.3897   29.0360 C.ar    1  UNL1        0.0003
      4 C         -25.5296   -1.5302   29.9014 C.ar    1  UNL1        0.0000
      5 C         -26.6888   -2.2893   30.1810 C.ar    1  UNL1        0.0000
      6 C         -27.8727   -1.9508   29.7373 C.ar    1  UNL1        0.0000
      7 C         -24.5491    0.4100   28.7341 C.ar    1  UNL1        0.0080
      8 C         -23.3309    0.0437   29.0569 C.ar    1  UNL1        0.0975
      9 C         -23.2108   -1.2231   29.7977 C.ar    1  UNL1        0.0080
     10 C         -24.2359   -1.9569   30.2201 C.ar    1  UNL1        0.0003
     11 C         -22.1219    0.7661   28.7282 C.2     1  UNL1        0.4766
     12 N         -22.1505    1.6851   27.7406 N.pl3   1  UNL1        0.2047
     13 N         -20.8900    0.0671   28.7291 N.pl3   1  UNL1        0.2047
@<TRIPOS>BOND
     1     8    11    1
     2    11    12    2
     3    11    13    1
     4     1     2   ar
     5     2     3   ar
     6     4     5   ar
     7     5     6   ar
     8     6     1   ar
     9     3     4   ar
    10     4    10   ar
    11    10     9   ar
    12     9     8   ar
    13     8     7   ar
    14     7     3   ar
