@<TRIPOS>MOLECULE
No_1651-gen_results/8p0m/2024-11-27-11-27-31/
 11 12 0 0 0
SMALL
GASTEIGER

@<TRIPOS>ATOM
      1 O         -28.1229   -1.3353   28.4874 O.2     1  UNL1       -0.2957
      2 C         -27.0637   -0.8242   28.8687 C.2     1  UNL1        0.1553
      3 C         -25.9464   -1.0396   28.8492 C.3     1  UNL1        0.0904
      4 C         -24.7602   -0.1562   29.1644 C.ar    1  UNL1       -0.0188
      5 C         -25.0917    1.0791   29.6491 C.ar    1  UNL1       -0.0253
      6 C         -26.4090    1.4383   29.7067 C.3     1  UNL1        0.0338
      7 C         -27.3694    0.6586   29.4148 C.3     1  UNL1        0.0695
      8 C         -23.3620   -0.5666   29.1028 C.ar    1  UNL1       -0.0042
      9 C         -22.4896   -0.1486   29.8501 C.ar    1  UNL1       -0.0003
     10 C         -22.7436    1.2407   30.3723 C.ar    1  UNL1       -0.0003
     11 C         -23.9725    1.7701   30.3026 C.ar    1  UNL1       -0.0046
@<TRIPOS>BOND
     1     1     2    2
     2     2     3    1
     3     3     4    1
     4     5     6    1
     5     2     7    1
     6     6     7    1
     7     4     5   ar
     8     5    11   ar
     9    11    10   ar
    10    10     9   ar
    11     9     8   ar
    12     8     4   ar
