@<TRIPOS>MOLECULE
No_1654-gen_results/8p0m/2024-11-27-11-27-31/
 13 14 0 0 0
SMALL
GASTEIGER

@<TRIPOS>ATOM
      1 C         -28.0162   -0.8135   28.8779 C.ar    1  UNL1        0.0375
      2 C         -28.4690   -0.7850   29.8287 C.ar    1  UNL1        0.1453
      3 C         -26.5042   -0.7777   28.8766 C.ar    1  UNL1        0.0031
      4 C         -25.9150   -0.6580   29.9230 C.ar    1  UNL1        0.0002
      5 C         -27.9691   -0.7243   31.2047 C.ar    1  UNL1        0.0375
      6 C         -26.5847   -0.6393   31.2062 C.ar    1  UNL1        0.0031
      7 O         -29.9415   -0.8626   29.8704 O.3     1  UNL1       -0.4535
      8 C         -30.6094   -0.2035   28.9895 C.ar    1  UNL1        0.1453
      9 C         -31.6069   -0.8978   28.2983 C.ar    1  UNL1        0.0375
     10 C         -32.2744   -0.3326   27.1716 C.ar    1  UNL1        0.0031
     11 C         -31.9129    0.9931   26.8127 C.ar    1  UNL1        0.0002
     12 C         -30.9213    1.6369   27.4962 C.ar    1  UNL1        0.0031
     13 C         -30.2159    1.0297   28.5404 C.ar    1  UNL1        0.0375
@<TRIPOS>BOND
     1     2     7    1
     2     7     8    1
     3     8     9   ar
     4     9    10   ar
     5    10    11   ar
     6    11    12   ar
     7    12    13   ar
     8    13     8   ar
     9     1     2   ar
    10     2     5   ar
    11     5     6   ar
    12     6     4   ar
    13     4     3   ar
    14     3     1   ar
