@<TRIPOS>MOLECULE
outputs/IAG933/test6/raw/output_1656_IAG933_linker_design_.xyz
 45 48 0 0 0
SMALL
GASTEIGER

@<TRIPOS>ATOM
      1 C         -24.8550   -1.0120   30.1430 C.3     1  UNL1        0.1135
      2 C         -24.9730   -2.5050   29.7880 C.2     1  UNL1       -0.0050
      3 C         -23.9060   -3.1730   29.1460 C.2     1  UNL1       -0.0029
      4 C         -23.9890   -4.5490   28.8530 C.2     1  UNL1       -0.0003
      5 C         -25.1370   -5.2800   29.2050 C.2     1  UNL1       -0.0000
      6 C         -26.2320   -4.6110   29.7840 C.2     1  UNL1       -0.0003
      7 C         -26.1550   -3.2320   30.0650 C.2     1  UNL1       -0.0029
      8 C         -25.3870   -0.6790   31.5710 C.3     1  UNL1        0.0930
      9 C         -25.1890    0.7730   32.0280 C.3     1  UNL1        0.0206
     10 C         -25.3360    0.6840   33.5440 C.3     1  UNL1        0.0203
     11 C         -24.8290   -0.7150   33.9050 C.3     1  UNL1        0.0888
     12 N         -24.7580   -1.4810   32.6460 N.3     1  UNL1       -0.2177
     13 C         -25.6880    1.6140   26.4610 C.2     1  UNL1        0.1058
     14 C         -26.2500    2.9200   26.3950 C.2     1  UNL1        0.0915
     15 C         -25.6420    4.0930   27.1230 C.2     1  UNL1        0.2677
     16 N         -25.6140    5.2520   26.4490 N.am    1  UNL1       -0.1997
     17 C         -25.0260    6.4790   26.9630 C.3     1  UNL1        0.1388
     18 O         -25.1430    3.9660   28.2430 O.2     1  UNL1       -0.2683
     19 C         -27.4380    3.0910   25.6450 C.2     1  UNL1        0.1080
     20 N         -28.0750    2.0890   25.0030 N.2     1  UNL1       -0.2080
     21 C         -27.5430    0.8490   25.0790 C.2     1  UNL1        0.2546
     22 O         -28.1930   -0.2080   24.4770 O.2     1  UNL1       -0.4558
     23 C         -29.4600    0.0050   23.8660 C.3     1  UNL1        0.2426
     24 C         -30.0650   -1.3770   23.5730 C.3     1  UNL1        0.2292
     25 O         -30.7290   -1.8780   24.7210 O.3     1  UNL1       -0.2162
     26 C         -26.3540    0.5760   25.7770 C.2     1  UNL1        0.2078
     27 F         -25.8600   -0.6810   25.7950 F       1  UNL1       -0.1979
     28 C         -22.8896    2.2726   25.2333 C.3     1  UNL1        0.1949
     29 C         -24.0914    4.8201   32.5816 C.2     1  UNL1        0.3742
     30 C         -24.3222    4.4251   31.0273 C.3     1  UNL1        0.1972
     31 N         -24.6083    1.3437   27.2397 N.pl3   1  UNL1       -0.2069
     32 C         -23.3939    0.1045   28.6903 C.3     1  UNL1        0.2585
     33 O         -21.8480   -0.0118   28.9665 O.3     1  UNL1       -0.2464
     34 N         -21.2676    0.8196   28.0863 N.3     1  UNL1       -0.0790
     35 C         -25.6939    4.2552   30.4404 C.2     1  UNL1        0.2209
     36 C         -22.2620    1.4415   27.3002 C.3     1  UNL1        0.1537
     37 C         -23.5370    1.4023   28.0138 C.3     1  UNL1        0.2283
     38 F         -23.7073    1.3614   24.5517 F       1  UNL1       -0.2343
     39 O         -23.0450    5.3528   32.8375 O.co2   1  UNL1       -0.2451
     40 O         -26.3326    3.1666   30.4753 O.2     1  UNL1       -0.2876
     41 C         -23.3841    3.1042   30.5997 C.3     1  UNL1        0.1633
     42 N         -24.6813   -0.2081   29.2558 N.3     1  UNL1       -0.1821
     43 O         -23.3502    2.3182   29.2951 O.3     1  UNL1       -0.3344
     44 O         -25.0004    4.4683   33.4288 O.co2   1  UNL1       -0.2451
     45 C         -22.0675    2.0443   26.1263 C.3     1  UNL1        0.0625
@<TRIPOS>BOND
     1     1    42    1
     2     2     7    1
     3     2     1    1
     4     3     2    2
     5     4     3    1
     6     4     5    2
     7     5     6    1
     8     6     7    2
     9     8     1    1
    10     8     9    1
    11     8    12    1
    12     9    10    1
    13    10    11    1
    14    12    11    1
    15    13    31    1
    16    14    13    1
    17    14    15    1
    18    15    18    2
    19    16    17    1
    20    16    15    1
    21    19    14    2
    22    20    21    2
    23    20    19    1
    24    21    26    1
    25    22    21    1
    26    23    22    1
    27    24    23    1
    28    24    25    1
    29    26    27    1
    30    26    13    2
    31    28    45    1
    32    29    39   ar
    33    29    44   ar
    34    30    35    1
    35    30    29    1
    36    32    33    1
    37    32    42    1
    38    34    33    1
    39    35    40    2
    40    36    45    1
    41    36    37    1
    42    36    34    1
    43    37    31    1
    44    37    32    1
    45    37    43    1
    46    38    28    1
    47    41    30    1
    48    43    41    1
