@<TRIPOS>MOLECULE
No_1658-gen_results/8p0m/2024-11-27-11-27-31/
 27 29 0 0 0
SMALL
GASTEIGER

@<TRIPOS>ATOM
      1 C         -28.0162   -0.8135   28.8779 C.ar    1  UNL1        0.0296
      2 C         -27.0636   -0.1189   28.6079 C.ar    1  UNL1        0.0024
      3 C         -25.7647   -0.3897   29.0360 C.ar    1  UNL1        0.0031
      4 C         -25.4887   -1.1536   29.7171 C.ar    1  UNL1        0.0024
      5 C         -27.7606   -1.9034   29.8572 C.ar    1  UNL1        0.1401
      6 C         -26.4781   -2.1057   30.2362 C.ar    1  UNL1        0.0296
      7 F         -28.6863   -2.7158   30.2450 F       1  UNL1       -0.2042
      8 C         -24.8187    0.7714   28.4684 C.ar    1  UNL1        0.0340
      9 C         -24.8098    2.0132   28.9552 C.ar    1  UNL1        0.1392
     10 C         -23.9011    2.9741   28.4612 C.ar    1  UNL1        0.0369
     11 C         -23.0347    2.5997   27.4074 C.ar    1  UNL1        0.0031
     12 C         -22.9507    1.2932   26.9858 C.ar    1  UNL1        0.0002
     13 C         -23.8162    0.3959   27.4680 C.ar    1  UNL1        0.0030
     14 O         -25.6096    2.4183   29.8903 O.3     1  UNL1       -0.4656
     15 C         -26.1874    3.5968   29.9394 C.3     1  UNL1        0.2900
     16 C         -27.4872    3.4420   30.4487 C.2     1  UNL1        0.2762
     17 O         -27.7387    2.7638   31.3277 O.2     1  UNL1       -0.2704
     18 N         -28.4841    4.1479   29.7933 N.am    1  UNL1       -0.2216
     19 C         -29.8963    3.9990   30.1569 C.2     1  UNL1        0.2548
     20 C         -28.2460    5.1064   28.7100 C.3     1  UNL1        0.1232
     21 O         -30.4994    3.2748   29.7150 O.2     1  UNL1       -0.2695
     22 C         -30.3046    4.9052   31.2800 C.ar    1  UNL1        0.0540
     23 C         -31.3679    4.6140   31.7531 C.ar    1  UNL1        0.0045
     24 C         -29.4427    5.9732   31.6582 C.ar    1  UNL1        0.0045
     25 C         -29.9695    6.8026   32.7190 C.ar    1  UNL1        0.0001
     26 C         -31.9131    5.5015   32.8643 C.ar    1  UNL1        0.0001
     27 C         -31.1441    6.5676   33.2999 C.ar    1  UNL1        0.0000
@<TRIPOS>BOND
     1     5     7    1
     2     3     8    1
     3     9    14    1
     4    14    15    1
     5    15    16    1
     6    16    17    2
     7    16    18   am
     8    18    19   am
     9    18    20    1
    10    19    21    2
    11    19    22    1
    12     1     2   ar
    13     2     3   ar
    14     3     4   ar
    15     4     6   ar
    16     6     5   ar
    17     5     1   ar
    18     8     9   ar
    19     9    10   ar
    20    10    11   ar
    21    11    12   ar
    22    12    13   ar
    23    13     8   ar
    24    22    23   ar
    25    23    26   ar
    26    26    27   ar
    27    27    25   ar
    28    25    24   ar
    29    24    22   ar
