@<TRIPOS>MOLECULE
No_1659-gen_results/8p0m/2024-11-27-11-27-31/
 12 12 0 0 0
SMALL
GASTEIGER

@<TRIPOS>ATOM
      1 C         -28.0162   -0.8135   28.8779 C.ar    1  UNL1        0.0000
      2 C         -27.0636   -0.1190   28.6079 C.ar    1  UNL1        0.0033
      3 C         -26.9716    0.7139   27.5060 C.ar    1  UNL1        0.0422
      4 C         -28.1053    0.7744   26.6421 C.ar    1  UNL1        0.0071
      5 C         -29.2041    0.1179   27.0477 C.ar    1  UNL1        0.0715
      6 C         -29.2127   -0.6088   28.1281 C.ar    1  UNL1        0.0039
      7 C         -30.3709    0.2326   26.1381 C.3     1  UNL1        0.4186
      8 F         -31.1938   -0.5429   26.3296 F       1  UNL1       -0.1659
      9 F         -30.8425    1.4897   26.2065 F       1  UNL1       -0.1659
     10 F         -29.8305   -0.1342   24.9301 F       1  UNL1       -0.1659
     11 C         -25.6600    1.4186   27.1316 C.2     1  UNL1        0.2341
     12 O         -25.3806    2.3559   27.8681 O.2     1  UNL1       -0.2831
@<TRIPOS>BOND
     1     5     7    1
     2     7     8    1
     3     7     9    1
     4     7    10    1
     5     3    11    1
     6    11    12    2
     7     1     2   ar
     8     2     3   ar
     9     3     4   ar
    10     4     5   ar
    11     5     6   ar
    12     6     1   ar
