@<TRIPOS>MOLECULE
outputs/IAG933/test6/raw/output_1660_IAG933_linker_design_.xyz
 46 50 0 0 0
SMALL
GASTEIGER

@<TRIPOS>ATOM
      1 C         -24.8550   -1.0120   30.1430 C.3     1  UNL1        0.1187
      2 C         -24.9730   -2.5050   29.7880 C.2     1  UNL1       -0.0028
      3 C         -23.9060   -3.1730   29.1460 C.2     1  UNL1       -0.0026
      4 C         -23.9890   -4.5490   28.8530 C.2     1  UNL1       -0.0003
      5 C         -25.1370   -5.2800   29.2050 C.2     1  UNL1       -0.0000
      6 C         -26.2320   -4.6110   29.7840 C.2     1  UNL1       -0.0003
      7 C         -26.1550   -3.2320   30.0650 C.2     1  UNL1       -0.0026
      8 C         -25.3870   -0.6790   31.5710 C.3     1  UNL1        0.0953
      9 C         -25.1890    0.7730   32.0280 C.3     1  UNL1        0.0209
     10 C         -25.3360    0.6840   33.5440 C.3     1  UNL1        0.0203
     11 C         -24.8290   -0.7150   33.9050 C.3     1  UNL1        0.0888
     12 N         -24.7580   -1.4810   32.6460 N.3     1  UNL1       -0.2174
     13 C         -25.6880    1.6140   26.4610 C.3     1  UNL1        0.1332
     14 C         -26.2500    2.9200   26.3950 C.2     1  UNL1        0.0698
     15 C         -25.6420    4.0930   27.1230 C.2     1  UNL1        0.2637
     16 N         -25.6140    5.2520   26.4490 N.am    1  UNL1       -0.2000
     17 C         -25.0260    6.4790   26.9630 C.3     1  UNL1        0.1388
     18 O         -25.1430    3.9660   28.2430 O.2     1  UNL1       -0.2686
     19 C         -27.4380    3.0910   25.6450 C.2     1  UNL1        0.1035
     20 N         -28.0750    2.0890   25.0030 N.2     1  UNL1       -0.2118
     21 C         -27.5430    0.8490   25.0790 C.2     1  UNL1        0.2355
     22 O         -28.1930   -0.2080   24.4770 O.2     1  UNL1       -0.4585
     23 C         -29.4600    0.0050   23.8660 C.3     1  UNL1        0.2423
     24 C         -30.0650   -1.3770   23.5730 C.3     1  UNL1        0.2292
     25 O         -30.7290   -1.8780   24.7210 O.3     1  UNL1       -0.2162
     26 C         -26.3540    0.5760   25.7770 C.3     1  UNL1        0.2548
     27 F         -25.8600   -0.6810   25.7950 F       1  UNL1       -0.2254
     28 C         -23.6907    0.8198   27.3470 C.3     1  UNL1        0.1397
     29 C         -28.4540    4.3720   28.7038 C.3     1  UNL1        0.0356
     30 C         -27.9885    1.6921   31.3776 C.2     1  UNL1        0.0161
     31 C         -30.8864    5.5601   30.7647 C.3     1  UNL1        0.2525
     32 O         -26.9993   -0.2023   28.3740 O.3     1  UNL1       -0.1652
     33 C         -28.5537    2.3681   32.4421 C.2     1  UNL1        0.0044
     34 C         -25.9253    0.6806   28.7411 C.3     1  UNL1        0.3254
     35 C         -28.9261    4.3585   31.1485 C.2     1  UNL1        0.1359
     36 O         -22.5024   -0.0837   29.1030 O.2     1  UNL1       -0.2733
     37 C         -21.1493    1.5495   27.2991 C.3     1  UNL1        0.0020
     38 C         -28.9839    3.6795   32.3672 C.2     1  UNL1        0.0367
     39 C         -27.7416    2.4319   30.2317 C.2     1  UNL1        0.0696
     40 N         -26.6679    1.8730   29.3679 N.pl3   1  UNL1       -0.1818
     41 C         -23.5068    0.1793   28.5386 C.2     1  UNL1        0.2443
     42 C         -22.5984    1.8257   26.7867 C.3     1  UNL1        0.0255
     43 O         -29.4507    5.5685   31.0173 O.2     1  UNL1       -0.4717
     44 N         -25.0857    1.2147   27.6281 N.3     1  UNL1       -0.2060
     45 C         -28.3549    3.6922   30.0350 C.2     1  UNL1        0.0271
     46 N         -24.8015    0.0016   29.1855 N.am    1  UNL1       -0.2250
@<TRIPOS>BOND
     1     1     2    1
     2     2     7    1
     3     3     2    2
     4     4     3    1
     5     4     5    2
     6     5     6    1
     7     6     7    2
     8     8     1    1
     9     8     9    1
    10     8    12    1
    11     9    10    1
    12    10    11    1
    13    12    11    1
    14    13    14    1
    15    14    15    1
    16    15    18    2
    17    16    17    1
    18    16    15    1
    19    19    14    2
    20    20    21    2
    21    20    19    1
    22    21    26    1
    23    22    21    1
    24    23    22    1
    25    24    23    1
    26    24    25    1
    27    26    27    1
    28    26    13    1
    29    28    42    1
    30    28    44    1
    31    28    41    1
    32    29    45    1
    33    30    33    1
    34    31    43    1
    35    34    32    1
    36    34    46    1
    37    34    40    1
    38    35    38    1
    39    38    33    2
    40    39    30    2
    41    40    39    1
    42    41    36    2
    43    41    46   am
    44    42    37    1
    45    43    35    1
    46    44    13    1
    47    44    34    1
    48    45    39    1
    49    45    35    2
    50    46     1    1
