@<TRIPOS>MOLECULE
No_1664-gen_results/8p0m/2024-11-27-11-27-31/
 12 13 0 0 0
SMALL
GASTEIGER

@<TRIPOS>ATOM
      1 C         -28.0162   -0.8135   28.8779 C.ar    1  UNL1        0.0114
      2 C         -28.4690   -0.7850   29.8287 C.ar    1  UNL1        0.0577
      3 C         -26.5042   -0.7777   28.8766 C.ar    1  UNL1        0.0010
      4 C         -25.6540   -0.6597   27.7191 C.ar    1  UNL1        0.0023
      5 C         -27.9180   -0.9374   31.1824 C.ar    1  UNL1        0.0114
      6 C         -26.5423   -0.9399   31.2606 C.ar    1  UNL1        0.0009
      7 C         -25.7832   -0.8935   30.1201 C.ar    1  UNL1        0.0023
      8 C         -24.3096   -0.3015   27.8531 C.ar    1  UNL1        0.0296
      9 C         -23.6669   -0.4595   29.0986 C.ar    1  UNL1        0.1401
     10 C         -24.3700   -0.6645   30.2027 C.ar    1  UNL1        0.0296
     11 F         -22.3517   -0.2561   29.1317 F       1  UNL1       -0.2042
     12 CL        -30.2934   -0.8825   29.8592 Cl      1  UNL1       -0.0822
@<TRIPOS>BOND
     1     9    11    1
     2     2    12    1
     3     1     2   ar
     4     2     5   ar
     5     5     6   ar
     6     6     7   ar
     7     3     1   ar
     8     3     4   ar
     9     4     8   ar
    10     8     9   ar
    11     9    10   ar
    12    10     7   ar
    13     7     3   ar
