@<TRIPOS>MOLECULE
outputs/IAG933/test6/raw/output_1665_IAG933_linker_design_.xyz
 44 47 0 0 0
SMALL
GASTEIGER

@<TRIPOS>ATOM
      1 C         -24.8550   -1.0120   30.1430 C.3     1  UNL1        0.1113
      2 C         -24.9730   -2.5050   29.7880 C.2     1  UNL1       -0.0030
      3 C         -23.9060   -3.1730   29.1460 C.2     1  UNL1       -0.0026
      4 C         -23.9890   -4.5490   28.8530 C.2     1  UNL1       -0.0003
      5 C         -25.1370   -5.2800   29.2050 C.2     1  UNL1       -0.0000
      6 C         -26.2320   -4.6110   29.7840 C.2     1  UNL1       -0.0003
      7 C         -26.1550   -3.2320   30.0650 C.2     1  UNL1       -0.0026
      8 C         -25.3870   -0.6790   31.5710 C.3     1  UNL1        0.0950
      9 C         -25.1890    0.7730   32.0280 C.3     1  UNL1        0.0209
     10 C         -25.3360    0.6840   33.5440 C.3     1  UNL1        0.0203
     11 C         -24.8290   -0.7150   33.9050 C.3     1  UNL1        0.0888
     12 N         -24.7580   -1.4810   32.6460 N.3     1  UNL1       -0.2174
     13 C         -25.6880    1.6140   26.4610 C.2     1  UNL1        0.0393
     14 C         -26.2500    2.9200   26.3950 C.2     1  UNL1        0.0766
     15 C         -25.6420    4.0930   27.1230 C.2     1  UNL1        0.2664
     16 N         -25.6140    5.2520   26.4490 N.am    1  UNL1       -0.1997
     17 C         -25.0260    6.4790   26.9630 C.3     1  UNL1        0.1388
     18 O         -25.1430    3.9660   28.2430 O.2     1  UNL1       -0.2683
     19 C         -27.4380    3.0910   25.6450 C.2     1  UNL1        0.1067
     20 N         -28.0750    2.0890   25.0030 N.2     1  UNL1       -0.2081
     21 C         -27.5430    0.8490   25.0790 C.2     1  UNL1        0.2533
     22 O         -28.1930   -0.2080   24.4770 O.2     1  UNL1       -0.4558
     23 C         -29.4600    0.0050   23.8660 C.3     1  UNL1        0.2426
     24 C         -30.0650   -1.3770   23.5730 C.3     1  UNL1        0.2292
     25 O         -30.7290   -1.8780   24.7210 O.3     1  UNL1       -0.2162
     26 C         -26.3540    0.5760   25.7770 C.2     1  UNL1        0.1931
     27 F         -25.8600   -0.6810   25.7950 F       1  UNL1       -0.1992
     28 C         -21.9335    1.0192   28.2567 C.2     1  UNL1        0.0013
     29 C         -31.0783    1.5097   27.5497 C.3     1  UNL1        0.1382
     30 N         -25.3179   -0.1090   29.0636 N.pl3   1  UNL1       -0.3036
     31 P         -31.0805   -0.1640   27.9816 P.3     1  UNL1        0.1758
     32 C         -23.0546    0.4091   28.8328 C.2     1  UNL1        0.0145
     33 C         -22.0434    1.6836   27.0418 C.2     1  UNL1        0.0001
     34 C         -28.8359    0.9575   29.7973 C.2     1  UNL1        0.2066
     35 C         -24.3177    0.5492   28.2805 C.2     1  UNL1        0.0481
     36 C         -24.3866    1.2694   27.0910 C.2     1  UNL1        0.0159
     37 S         -29.6201   -0.5874   29.2031 S.3     1  UNL1       -0.0198
     38 O         -29.1832    1.3488   30.9355 O.2     1  UNL1       -0.2840
     39 C         -32.3547   -0.3257   29.1314 C.3     1  UNL1        0.0796
     40 O         -31.1392   -1.1376   27.0463 O.2     1  UNL1       -0.3072
     41 C         -23.2813    1.7372   26.4108 C.2     1  UNL1        0.0013
     42 S         -30.4695    2.6051   28.9098 S.3     1  UNL1       -0.0728
     43 C         -26.7953   -0.1313   29.0504 C.3     1  UNL1        0.0998
     44 C         -27.4567    1.3194   29.2224 C.3     1  UNL1        0.0976
@<TRIPOS>BOND
     1     1    30    1
     2     2     7    1
     3     2     1    1
     4     3     2    2
     5     4     3    1
     6     4     5    2
     7     5     6    1
     8     6     7    2
     9     8     1    1
    10     8     9    1
    11     8    12    1
    12     9    10    1
    13    10    11    1
    14    12    11    1
    15    13    36    1
    16    14    13    1
    17    14    15    1
    18    15    18    2
    19    16    17    1
    20    16    15    1
    21    19    14    2
    22    20    21    2
    23    20    19    1
    24    21    26    1
    25    22    21    1
    26    23    22    1
    27    24    23    1
    28    24    25    1
    29    26    27    1
    30    26    13    2
    31    28    32    1
    32    29    31    1
    33    29    42    1
    34    31    39    1
    35    31    37    1
    36    33    28    2
    37    34    38    2
    38    35    32    2
    39    35    30    1
    40    36    35    1
    41    37    34    1
    42    40    31    2
    43    41    33    1
    44    41    36    2
    45    43    30    1
    46    43    44    1
    47    44    34    1
