@<TRIPOS>MOLECULE
No_1668-gen_results/8p0m/2024-11-27-11-27-31/
 35 38 0 0 0
SMALL
GASTEIGER

@<TRIPOS>ATOM
      1 C         -28.0162   -0.8135   28.8779 C.ar    1  UNL1       -0.0042
      2 C         -28.4690   -0.7850   29.8287 C.ar    1  UNL1       -0.0001
      3 C         -28.1816    0.4277   28.1134 C.ar    1  UNL1       -0.0213
      4 C         -28.9841    1.4155   28.5154 C.ar    1  UNL1        0.0023
      5 C         -29.3802    0.1384   30.4612 C.ar    1  UNL1        0.0066
      6 C         -29.5415    1.2736   29.7242 C.ar    1  UNL1        0.0795
      7 C         -27.4586    0.4934   26.7701 C.3     1  UNL1        0.0399
      8 C         -27.9200    0.7178   25.7507 C.3     1  UNL1        0.1251
      9 C         -25.9868    0.2424   26.8417 C.3     1  UNL1        0.0443
     10 C         -25.2806   -0.0834   27.9708 C.ar    1  UNL1       -0.0211
     11 C         -23.9299    0.0145   28.0664 C.ar    1  UNL1       -0.0046
     12 C         -23.1763   -0.4153   29.2295 C.ar    1  UNL1       -0.0049
     13 C         -23.8303   -1.1907   30.1729 C.ar    1  UNL1       -0.0258
     14 C         -23.1406   -1.5764   31.2844 C.3     1  UNL1        0.0307
     15 C         -29.3091    0.8519   25.5659 C.2     1  UNL1        0.3661
     16 C         -25.3971    0.4997   25.6035 C.3     1  UNL1        0.0933
     17 C         -27.2230    0.8232   24.5022 C.3     1  UNL1        0.1003
     18 N         -25.9449    0.6567   24.5037 N.3     1  UNL1       -0.2171
     19 C         -25.6397    0.1941   29.3035 C.ar    1  UNL1       -0.0088
     20 C         -24.9291   -0.6117   30.3723 C.ar    1  UNL1       -0.0261
     21 O         -29.8257    1.9226   25.8111 O.co2   1  UNL1       -0.2456
     22 O         -30.0102   -0.2346   25.3141 O.co2   1  UNL1       -0.2456
     23 C         -25.7584   -0.8708   31.6105 C.3     1  UNL1        0.0300
     24 C         -30.2180    2.3411   30.4345 C.2     1  UNL1        0.3877
     25 O         -31.3507    2.4661   30.5797 O.co2   1  UNL1       -0.2406
     26 O         -29.3487    3.2006   31.0977 O.co2   1  UNL1       -0.2406
     27 C         -25.2464   -0.1555   32.7865 C.3     1  UNL1        0.0230
     28 C         -25.9252    0.7887   33.2928 C.ar    1  UNL1       -0.0225
     29 C         -26.5171    1.1747   34.0977 C.ar    1  UNL1       -0.0043
     30 C         -27.1283    2.5218   34.3917 C.ar    1  UNL1       -0.0003
     31 C         -26.8853    3.4654   33.3804 C.ar    1  UNL1       -0.0000
     32 C         -25.7622    2.1007   32.2739 C.ar    1  UNL1       -0.0043
     33 C         -26.1805    3.2635   32.4593 C.ar    1  UNL1       -0.0003
     34 C         -24.9572   -1.2445   33.8596 C.3     1  UNL1        0.0047
     35 C         -23.7279    0.2492   32.7005 C.3     1  UNL1        0.0047
@<TRIPOS>BOND
     1     3     7    1
     2     7     8    1
     3     7     9    1
     4     9    10    1
     5    13    14    1
     6     8    15    1
     7     9    16    1
     8     8    17    1
     9    16    18    1
    10    17    18    1
    11    15    21   ar
    12    15    22   ar
    13    20    23    1
    14     6    24    1
    15    24    25   ar
    16    24    26   ar
    17    23    27    1
    18    27    28    1
    19    27    34    1
    20    27    35    1
    21    28    29   ar
    22    29    30   ar
    23    30    31   ar
    24    31    33   ar
    25    33    32   ar
    26    32    28   ar
    27    10    11   ar
    28    11    12   ar
    29    12    13   ar
    30    13    20   ar
    31    20    19   ar
    32    19    10   ar
    33     1     2   ar
    34     2     5   ar
    35     5     6   ar
    36     6     4   ar
    37     4     3   ar
    38     3     1   ar
