@<TRIPOS>MOLECULE
outputs/IAG933/test6/raw/output_1669_IAG933_linker_design_.xyz
 43 47 0 0 0
SMALL
GASTEIGER

@<TRIPOS>ATOM
      1 C         -24.8550   -1.0120   30.1430 C.3     1  UNL1        0.0480
      2 C         -24.9730   -2.5050   29.7880 C.2     1  UNL1       -0.0206
      3 C         -23.9060   -3.1730   29.1460 C.2     1  UNL1       -0.0042
      4 C         -23.9890   -4.5490   28.8530 C.2     1  UNL1       -0.0003
      5 C         -25.1370   -5.2800   29.2050 C.2     1  UNL1       -0.0000
      6 C         -26.2320   -4.6110   29.7840 C.2     1  UNL1       -0.0003
      7 C         -26.1550   -3.2320   30.0650 C.2     1  UNL1       -0.0042
      8 C         -25.3870   -0.6790   31.5710 C.3     1  UNL1        0.0773
      9 C         -25.1890    0.7730   32.0280 C.3     1  UNL1        0.0192
     10 C         -25.3360    0.6840   33.5440 C.3     1  UNL1        0.0202
     11 C         -24.8290   -0.7150   33.9050 C.3     1  UNL1        0.0887
     12 N         -24.7580   -1.4810   32.6460 N.3     1  UNL1       -0.2191
     13 C         -25.6880    1.6140   26.4610 C.2     1  UNL1        0.0222
     14 C         -26.2500    2.9200   26.3950 C.2     1  UNL1        0.0730
     15 C         -25.6420    4.0930   27.1230 C.2     1  UNL1        0.2661
     16 N         -25.6140    5.2520   26.4490 N.am    1  UNL1       -0.1997
     17 C         -25.0260    6.4790   26.9630 C.3     1  UNL1        0.1388
     18 O         -25.1430    3.9660   28.2430 O.2     1  UNL1       -0.2683
     19 C         -27.4380    3.0910   25.6450 C.2     1  UNL1        0.1064
     20 N         -28.0750    2.0890   25.0030 N.2     1  UNL1       -0.2081
     21 C         -27.5430    0.8490   25.0790 C.2     1  UNL1        0.2530
     22 O         -28.1930   -0.2080   24.4770 O.2     1  UNL1       -0.4558
     23 C         -29.4600    0.0050   23.8660 C.3     1  UNL1        0.2426
     24 C         -30.0650   -1.3770   23.5730 C.3     1  UNL1        0.2292
     25 O         -30.7290   -1.8780   24.7210 O.3     1  UNL1       -0.2162
     26 C         -26.3540    0.5760   25.7770 C.2     1  UNL1        0.1895
     27 F         -25.8600   -0.6810   25.7950 F       1  UNL1       -0.1996
     28 C         -23.0247   -0.0259   29.0072 C.2     1  UNL1        0.1674
     29 C         -24.9929    0.7682   28.5212 C.3     1  UNL1        0.1676
     30 F         -23.3470    0.4828   24.4381 F       1  UNL1       -0.1588
     31 O         -21.2985    1.4291   25.6785 O.3     1  UNL1       -0.3917
     32 C         -23.3892    1.5704   26.5012 C.2     1  UNL1        0.1053
     33 O         -22.6291    1.2977   28.9836 O.2     1  UNL1       -0.4481
     34 C         -24.6817    1.3026   27.1581 C.3     1  UNL1        0.0861
     35 C         -22.6431    1.4796   25.1046 C.3     1  UNL1        0.4315
     36 O         -20.2658    2.3554   27.5071 O.2     1  UNL1       -0.2413
     37 C         -24.4274   -0.3398   29.2968 C.3     1  UNL1        0.0972
     38 F         -22.3133    2.0762   23.8623 F       1  UNL1       -0.1588
     39 O         -26.2346    1.1677   29.0208 O.3     1  UNL1       -0.2220
     40 C         -21.3346    1.6299   26.9368 C.2     1  UNL1        0.3797
     41 O         -20.5723   -0.2370   28.5471 O.2     1  UNL1       -0.2801
     42 C         -21.8208   -0.8753   28.8185 C.2     1  UNL1        0.2670
     43 C         -22.4427    1.5195   27.7399 C.2     1  UNL1        0.2214
@<TRIPOS>BOND
     1     1     2    1
     2     2     7    1
     3     3     2    2
     4     4     3    1
     5     4     5    2
     6     5     6    1
     7     6     7    2
     8     8     1    1
     9     8     9    1
    10     8    12    1
    11     9    10    1
    12    10    11    1
    13    12    11    1
    14    14    13    1
    15    14    15    1
    16    15    18    2
    17    16    17    1
    18    16    15    1
    19    19    14    2
    20    20    21    2
    21    20    19    1
    22    21    26    1
    23    22    21    1
    24    23    22    1
    25    24    23    1
    26    24    25    1
    27    26    27    1
    28    26    13    2
    29    28    37    1
    30    29    39    1
    31    29    37    1
    32    30    35    1
    33    31    40    1
    34    32    34    1
    35    32    43    2
    36    33    28    1
    37    34    13    1
    38    34    29    1
    39    35    31    1
    40    35    32    1
    41    37     1    1
    42    38    35    1
    43    40    36    2
    44    40    43    1
    45    41    42    1
    46    42    28    2
    47    43    33    1
