@<TRIPOS>MOLECULE
outputs/IAG933/test6/raw/output_167_IAG933_linker_design_.xyz
 48 52 0 0 0
SMALL
GASTEIGER

@<TRIPOS>ATOM
      1 C         -24.8550   -1.0120   30.1430 C.3     1  UNL1        0.0476
      2 C         -24.9730   -2.5050   29.7880 C.2     1  UNL1       -0.0207
      3 C         -23.9060   -3.1730   29.1460 C.2     1  UNL1       -0.0042
      4 C         -23.9890   -4.5490   28.8530 C.2     1  UNL1       -0.0003
      5 C         -25.1370   -5.2800   29.2050 C.2     1  UNL1       -0.0000
      6 C         -26.2320   -4.6110   29.7840 C.2     1  UNL1       -0.0003
      7 C         -26.1550   -3.2320   30.0650 C.2     1  UNL1       -0.0042
      8 C         -25.3870   -0.6790   31.5710 C.3     1  UNL1        0.0932
      9 C         -25.1890    0.7730   32.0280 C.3     1  UNL1        0.0910
     10 C         -25.3360    0.6840   33.5440 C.3     1  UNL1        0.0376
     11 C         -24.8290   -0.7150   33.9050 C.3     1  UNL1        0.0902
     12 N         -24.7580   -1.4810   32.6460 N.3     1  UNL1       -0.2177
     13 C         -25.6880    1.6140   26.4610 C.2     1  UNL1        0.1810
     14 C         -26.2500    2.9200   26.3950 C.2     1  UNL1        0.1139
     15 C         -25.6420    4.0930   27.1230 C.2     1  UNL1        0.2698
     16 N         -25.6140    5.2520   26.4490 N.am    1  UNL1       -0.1996
     17 C         -25.0260    6.4790   26.9630 C.3     1  UNL1        0.1388
     18 O         -25.1430    3.9660   28.2430 O.2     1  UNL1       -0.2682
     19 C         -27.4380    3.0910   25.6450 C.2     1  UNL1        0.1102
     20 N         -28.0750    2.0890   25.0030 N.2     1  UNL1       -0.2078
     21 C         -27.5430    0.8490   25.0790 C.2     1  UNL1        0.2568
     22 O         -28.1930   -0.2080   24.4770 O.2     1  UNL1       -0.4557
     23 C         -29.4600    0.0050   23.8660 C.3     1  UNL1        0.2426
     24 C         -30.0650   -1.3770   23.5730 C.3     1  UNL1        0.2292
     25 O         -30.7290   -1.8780   24.7210 O.3     1  UNL1       -0.2162
     26 C         -26.3540    0.5760   25.7770 C.2     1  UNL1        0.2300
     27 F         -25.8600   -0.6810   25.7950 F       1  UNL1       -0.1956
     28 OXT       -25.4860    4.9484   32.2872 O.co2   1  UNL1       -0.2441
     29 C         -29.3132    6.4395   30.5454 C.2     1  UNL1       -0.0222
     30 C         -29.0223    7.5533   29.6508 C.3     1  UNL1        0.0310
     31 O         -24.0380    3.3864   32.1080 O.co2   1  UNL1       -0.2441
     32 CA        -26.2159    2.9796   31.1019 C.3     1  UNL1        0.1801
     33 C         -28.5562    5.2321   30.4610 C.2     1  UNL1       -0.0085
     34 O         -21.0397    1.8474   27.6370 O.2     1  UNL1       -0.2785
     35 C         -29.0477    4.8750   32.7980 C.2     1  UNL1       -0.0042
     36 C         -23.3129    1.8966   26.8750 C.2     1  UNL1        0.4117
     37 N         -22.9707    2.6675   25.8144 N.pl3   1  UNL1        0.2141
     38 N         -24.4952    1.3658   27.1775 N.pl3   1  UNL1       -0.1464
     39 C         -25.3654   -0.0835   29.0321 C.3     1  UNL1        0.0736
     40 C         -28.4372    4.4768   31.6025 C.2     1  UNL1       -0.0205
     41 C         -22.9439    0.5450   28.6003 C.2     1  UNL1        0.0859
     42 C         -22.3281    1.4374   27.7464 C.2     1  UNL1        0.2832
     43 C         -24.2597    0.5867   28.2596 C.2     1  UNL1        0.1246
     44 N         -25.9329    1.5391   31.0117 N.3     1  UNL1       -0.2080
     45 C         -30.1763    6.6904   31.6081 C.2     1  UNL1       -0.0043
     46 C         -27.6647    3.1274   31.5762 C.3     1  UNL1        0.0552
     47 C         -25.1735    3.8278   31.8743 C.2     1  UNL1        0.3806
     48 C         -29.9635    5.9774   32.7804 C.2     1  UNL1       -0.0006
@<TRIPOS>BOND
     1     1    39    1
     2     2     7    1
     3     2     1    1
     4     3     2    2
     5     4     3    1
     6     4     5    2
     7     5     6    1
     8     6     7    2
     9     8     1    1
    10     8     9    1
    11     8    12    1
    12     9    44    1
    13     9    10    1
    14    10    11    1
    15    12    11    1
    16    13    38    1
    17    14    13    1
    18    14    15    1
    19    15    18    2
    20    16    17    1
    21    16    15    1
    22    19    14    2
    23    20    21    2
    24    20    19    1
    25    21    26    1
    26    22    21    1
    27    23    22    1
    28    24    23    1
    29    24    25    1
    30    26    27    1
    31    26    13    2
    32    29    45    1
    33    30    29    1
    34    32    46    1
    35    32    47    1
    36    33    29    2
    37    33    40    1
    38    34    42    1
    39    36    38    1
    40    36    42    2
    41    37    36    1
    42    38    43    1
    43    40    35    2
    44    42    41    1
    45    43    41    2
    46    43    39    1
    47    44    32    1
    48    45    48    2
    49    46    40    1
    50    47    31   ar
    51    47    28   ar
    52    48    35    1
