@<TRIPOS>MOLECULE
outputs/IAG933/test6/raw/output_1671_IAG933_linker_design_.xyz
 44 47 0 0 0
SMALL
GASTEIGER

@<TRIPOS>ATOM
      1 C         -24.8550   -1.0120   30.1430 C.3     1  UNL1        0.0976
      2 C         -24.9730   -2.5050   29.7880 C.2     1  UNL1       -0.0064
      3 C         -23.9060   -3.1730   29.1460 C.2     1  UNL1       -0.0029
      4 C         -23.9890   -4.5490   28.8530 C.2     1  UNL1       -0.0003
      5 C         -25.1370   -5.2800   29.2050 C.2     1  UNL1       -0.0000
      6 C         -26.2320   -4.6110   29.7840 C.2     1  UNL1       -0.0003
      7 C         -26.1550   -3.2320   30.0650 C.2     1  UNL1       -0.0029
      8 C         -25.3870   -0.6790   31.5710 C.3     1  UNL1        0.0916
      9 C         -25.1890    0.7730   32.0280 C.3     1  UNL1        0.0206
     10 C         -25.3360    0.6840   33.5440 C.3     1  UNL1        0.0203
     11 C         -24.8290   -0.7150   33.9050 C.3     1  UNL1        0.0888
     12 N         -24.7580   -1.4810   32.6460 N.3     1  UNL1       -0.2178
     13 C         -25.6880    1.6140   26.4610 C.3     1  UNL1        0.1443
     14 C         -26.2500    2.9200   26.3950 C.2     1  UNL1        0.0710
     15 C         -25.6420    4.0930   27.1230 C.2     1  UNL1        0.2638
     16 N         -25.6140    5.2520   26.4490 N.am    1  UNL1       -0.2000
     17 C         -25.0260    6.4790   26.9630 C.3     1  UNL1        0.1388
     18 O         -25.1430    3.9660   28.2430 O.2     1  UNL1       -0.2686
     19 C         -27.4380    3.0910   25.6450 C.2     1  UNL1        0.1035
     20 N         -28.0750    2.0890   25.0030 N.2     1  UNL1       -0.2118
     21 C         -27.5430    0.8490   25.0790 C.2     1  UNL1        0.2356
     22 O         -28.1930   -0.2080   24.4770 O.2     1  UNL1       -0.4585
     23 C         -29.4600    0.0050   23.8660 C.3     1  UNL1        0.2423
     24 C         -30.0650   -1.3770   23.5730 C.3     1  UNL1        0.2292
     25 O         -30.7290   -1.8780   24.7210 O.3     1  UNL1       -0.2162
     26 C         -26.3540    0.5760   25.7770 C.3     1  UNL1        0.2560
     27 F         -25.8600   -0.6810   25.7950 F       1  UNL1       -0.2253
     28 C         -30.0062    0.8716   27.5236 C.3     1  UNL1        0.1716
     29 C         -29.7135    0.1567   30.5974 C.3     1  UNL1        0.2348
     30 C         -24.4353    0.4865   28.3304 C.3     1  UNL1        0.1984
     31 CL        -22.4264    1.8190   26.2415 Cl      1  UNL1       -0.0565
     32 C         -31.1498    1.4676   28.3653 C.2     1  UNL1        0.0457
     33 C         -21.8875    1.0911   27.7264 C.2     1  UNL1        0.1972
     34 C         -28.9090   -0.2817   29.3699 C.3     1  UNL1        0.1605
     35 C         -31.0422    1.9829   29.8527 C.2     1  UNL1        0.1703
     36 N         -20.8797    1.6330   28.2060 N.2     1  UNL1       -0.1324
     37 O         -29.8658    1.5988   30.6118 O.2     1  UNL1       -0.4700
     38 N         -24.8494    1.3471   27.4315 N.3     1  UNL1       -0.1899
     39 O         -22.4384   -0.4673   29.2877 O.2     1  UNL1       -0.2858
     40 N         -25.2333   -0.1749   29.0920 N.3     1  UNL1       -0.2502
     41 O         -29.6880   -0.3368   28.1715 O.3     1  UNL1       -0.3475
     42 C         -22.9932    0.2838   28.4856 C.2     1  UNL1        0.2341
     43 C         -27.6872    0.5898   29.1710 C.3     1  UNL1        0.0508
     44 C         -26.5942   -0.3328   28.6403 C.3     1  UNL1        0.0766
@<TRIPOS>BOND
     1     1    40    1
     2     2     7    1
     3     2     1    1
     4     3     2    2
     5     4     3    1
     6     4     5    2
     7     5     6    1
     8     6     7    2
     9     8     1    1
    10     8     9    1
    11     8    12    1
    12     9    10    1
    13    10    11    1
    14    12    11    1
    15    13    38    1
    16    14    13    1
    17    14    15    1
    18    15    18    2
    19    16    17    1
    20    16    15    1
    21    19    14    2
    22    20    21    2
    23    20    19    1
    24    21    26    1
    25    22    21    1
    26    23    22    1
    27    24    23    1
    28    24    25    1
    29    26    27    1
    30    26    13    1
    31    28    41    1
    32    28    32    1
    33    29    37    1
    34    30    38    1
    35    30    42    1
    36    30    40    1
    37    31    33    1
    38    32    35    2
    39    33    36    2
    40    33    42    1
    41    34    43    1
    42    34    29    1
    43    35    37    1
    44    41    34    1
    45    42    39    2
    46    44    40    1
    47    44    43    1
