@<TRIPOS>MOLECULE
No_1672-gen_results/8p0m/2024-11-27-11-27-31/
 23 25 0 0 0
SMALL
GASTEIGER

@<TRIPOS>ATOM
      1 C         -28.0162   -0.8135   28.8779 C.ar    1  UNL1        0.0176
      2 C         -28.4690   -0.7850   29.8287 C.ar    1  UNL1        0.0803
      3 C         -26.5455   -0.8762   28.8500 C.ar    1  UNL1        0.0536
      4 C         -25.8974   -0.8267   29.8894 C.ar    1  UNL1       -0.0144
      5 C         -27.9129   -0.8385   31.1942 C.ar    1  UNL1        0.0024
      6 C         -26.5519   -0.8324   31.1775 C.ar    1  UNL1       -0.0207
      7 C         -30.0723   -0.7940   29.9383 C.2     1  UNL1        0.3878
      8 O         -30.7088   -0.3443   29.2152 O.co2   1  UNL1       -0.2406
      9 O         -30.6300   -1.4965   30.9971 O.co2   1  UNL1       -0.2406
     10 C         -24.3626   -0.8486   29.9442 C.3     1  UNL1        0.0404
     11 C         -23.7656    0.4764   30.0508 C.3     1  UNL1        0.1045
     12 C         -24.1648    1.4087   30.6092 C.ar    1  UNL1       -0.0171
     13 C         -24.3527    2.6248   30.4544 C.ar    1  UNL1       -0.0041
     14 C         -25.2769    3.4993   31.2302 C.ar    1  UNL1       -0.0003
     15 C         -25.8626    2.8753   32.3410 C.ar    1  UNL1       -0.0003
     16 C         -25.5406    1.6423   32.7528 C.ar    1  UNL1       -0.0042
     17 C         -24.8267    0.8780   31.9656 C.ar    1  UNL1       -0.0213
     18 C         -22.5940    0.6402   29.1044 C.2     1  UNL1        0.2454
     19 O         -21.6160   -0.1228   29.1840 O.2     1  UNL1       -0.2730
     20 N         -22.5898    1.6201   28.1930 N.am    1  UNL1       -0.2033
     21 C         -21.4965    1.8660   27.2624 C.3     1  UNL1        0.1385
     22 C         -25.0625   -0.5633   31.9616 C.3     1  UNL1        0.0520
     23 CL        -25.7901   -0.8364   27.2530 Cl      1  UNL1       -0.0826
@<TRIPOS>BOND
     1     2     7    1
     2     7     8   ar
     3     7     9   ar
     4     4    10    1
     5    10    11    1
     6    11    18    1
     7    18    19    2
     8    18    20   am
     9    20    21    1
    10     6    22    1
    11    17    22    1
    12     3    23    1
    13    11    12    1
    14    12    13   ar
    15    13    14   ar
    16    14    15   ar
    17    15    16   ar
    18    16    17   ar
    19    17    12   ar
    20     1     2   ar
    21     2     5   ar
    22     5     6   ar
    23     6     4   ar
    24     4     3   ar
    25     3     1   ar
