@<TRIPOS>MOLECULE
outputs/IAG933/test6/raw/output_1673_IAG933_linker_design_.xyz
 44 47 0 0 0
SMALL
GASTEIGER

@<TRIPOS>ATOM
      1 C         -24.8550   -1.0120   30.1430 C.3     1  UNL1        0.0438
      2 C         -24.9730   -2.5050   29.7880 C.2     1  UNL1       -0.0208
      3 C         -23.9060   -3.1730   29.1460 C.2     1  UNL1       -0.0042
      4 C         -23.9890   -4.5490   28.8530 C.2     1  UNL1       -0.0003
      5 C         -25.1370   -5.2800   29.2050 C.2     1  UNL1       -0.0000
      6 C         -26.2320   -4.6110   29.7840 C.2     1  UNL1       -0.0003
      7 C         -26.1550   -3.2320   30.0650 C.2     1  UNL1       -0.0042
      8 C         -25.3870   -0.6790   31.5710 C.3     1  UNL1        0.0808
      9 C         -25.1890    0.7730   32.0280 C.3     1  UNL1        0.0632
     10 C         -25.3360    0.6840   33.5440 C.3     1  UNL1        0.0240
     11 C         -24.8290   -0.7150   33.9050 C.3     1  UNL1        0.0888
     12 N         -24.7580   -1.4810   32.6460 N.3     1  UNL1       -0.2190
     13 C         -25.6880    1.6140   26.4610 C.2     1  UNL1        0.1243
     14 C         -26.2500    2.9200   26.3950 C.2     1  UNL1        0.0816
     15 C         -25.6420    4.0930   27.1230 C.2     1  UNL1        0.2222
     16 N         -25.6140    5.2520   26.4490 N.2     1  UNL1       -0.2356
     17 C         -25.0260    6.4790   26.9630 C.3     1  UNL1        0.1550
     18 O         -25.1430    3.9660   28.2430 O.2     1  UNL1       -0.4603
     19 C         -27.4380    3.0910   25.6450 C.2     1  UNL1        0.1070
     20 N         -28.0750    2.0890   25.0030 N.2     1  UNL1       -0.2081
     21 C         -27.5430    0.8490   25.0790 C.2     1  UNL1        0.2535
     22 O         -28.1930   -0.2080   24.4770 O.2     1  UNL1       -0.4558
     23 C         -29.4600    0.0050   23.8660 C.3     1  UNL1        0.2426
     24 C         -30.0650   -1.3770   23.5730 C.3     1  UNL1        0.2292
     25 O         -30.7290   -1.8780   24.7210 O.3     1  UNL1       -0.2162
     26 C         -26.3540    0.5760   25.7770 C.2     1  UNL1        0.2003
     27 F         -25.8600   -0.6810   25.7950 F       1  UNL1       -0.1990
     28 C         -25.1792    1.9955   31.1933 C.3     1  UNL1        0.2291
     29 C         -24.9107    4.8640   33.4187 C.3     1  UNL1        0.0973
     30 C         -24.2851    6.2917   33.2282 C.3     1  UNL1        0.0235
     31 C         -26.8961    4.3535   34.4904 C.2     1  UNL1        0.3589
     32 O         -27.3397    3.2176   34.2004 O.2     1  UNL1       -0.2474
     33 C         -22.2028    0.9735   27.8269 C.3     1  UNL1        0.2027
     34 N         -24.7929    1.4554   28.7648 N.2     1  UNL1        0.1549
     35 C         -25.3466    4.1699   29.7273 C.3     1  UNL1        0.2108
     36 C         -24.3845    3.9304   32.4255 C.3     1  UNL1        0.0292
     37 C         -25.0285    3.3224   31.1610 C.3     1  UNL1        0.0907
     38 N         -26.3805    5.0939   33.2908 N.am    1  UNL1       -0.1876
     39 O         -25.5903    1.4335   29.7028 O.2     1  UNL1       -0.2838
     40 N         -26.5013    4.6246   35.6904 N.am    1  UNL1       -0.0679
     41 C         -22.9099    1.9591   25.5741 C.3     1  UNL1        0.2536
     42 N         -23.2741    1.4254   26.9271 N.pl3   1  UNL1       -0.1834
     43 C         -20.8533    1.6817   27.6774 C.3     1  UNL1        0.0551
     44 C         -24.5602    1.4308   27.4134 C.2     1  UNL1        0.3719
@<TRIPOS>BOND
     1     2     7    1
     2     2     1    1
     3     3     2    2
     4     4     3    1
     5     4     5    2
     6     5     6    1
     7     6     7    2
     8     8     1    1
     9     8     9    1
    10     8    12    1
    11     9    10    1
    12    10    11    1
    13    12    11    1
    14    13    44    1
    15    14    13    1
    16    14    15    1
    17    15    18    1
    18    16    17    1
    19    16    15    2
    20    18    35    1
    21    19    14    2
    22    20    21    2
    23    20    19    1
    24    21    26    1
    25    22    21    1
    26    23    22    1
    27    24    23    1
    28    24    25    1
    29    26    27    1
    30    26    13    2
    31    28    39    1
    32    28     9    1
    33    29    30    1
    34    31    40    1
    35    32    31    2
    36    34    39    1
    37    35    37    1
    38    36    29    1
    39    37    28    1
    40    37    36    1
    41    38    29    1
    42    38    31    1
    43    41    42    1
    44    42    44    1
    45    42    33    1
    46    43    33    1
    47    44    34    2
