@<TRIPOS>MOLECULE
outputs/IAG933/test6/raw/output_1675_IAG933_linker_design_.xyz
 50 56 0 0 0
SMALL
GASTEIGER

@<TRIPOS>ATOM
      1 C         -24.8550   -1.0120   30.1430 C.3     1  UNL1        0.0438
      2 C         -24.9730   -2.5050   29.7880 C.2     1  UNL1       -0.0208
      3 C         -23.9060   -3.1730   29.1460 C.2     1  UNL1       -0.0042
      4 C         -23.9890   -4.5490   28.8530 C.2     1  UNL1       -0.0003
      5 C         -25.1370   -5.2800   29.2050 C.2     1  UNL1       -0.0000
      6 C         -26.2320   -4.6110   29.7840 C.2     1  UNL1       -0.0003
      7 C         -26.1550   -3.2320   30.0650 C.2     1  UNL1       -0.0042
      8 C         -25.3870   -0.6790   31.5710 C.3     1  UNL1        0.0784
      9 C         -25.1890    0.7730   32.0280 C.3     1  UNL1        0.0325
     10 C         -25.3360    0.6840   33.5440 C.3     1  UNL1        0.0215
     11 C         -24.8290   -0.7150   33.9050 C.3     1  UNL1        0.0887
     12 N         -24.7580   -1.4810   32.6460 N.3     1  UNL1       -0.2191
     13 C         -25.6880    1.6140   26.4610 C.3     1  UNL1        0.0861
     14 C         -26.2500    2.9200   26.3950 C.2     1  UNL1        0.0562
     15 C         -25.6420    4.0930   27.1230 C.2     1  UNL1        0.2625
     16 N         -25.6140    5.2520   26.4490 N.am    1  UNL1       -0.2000
     17 C         -25.0260    6.4790   26.9630 C.3     1  UNL1        0.1388
     18 O         -25.1430    3.9660   28.2430 O.2     1  UNL1       -0.2687
     19 C         -27.4380    3.0910   25.6450 C.2     1  UNL1        0.1022
     20 N         -28.0750    2.0890   25.0030 N.2     1  UNL1       -0.2119
     21 C         -27.5430    0.8490   25.0790 C.2     1  UNL1        0.2341
     22 O         -28.1930   -0.2080   24.4770 O.2     1  UNL1       -0.4585
     23 C         -29.4600    0.0050   23.8660 C.3     1  UNL1        0.2423
     24 C         -30.0650   -1.3770   23.5730 C.3     1  UNL1        0.2292
     25 O         -30.7290   -1.8780   24.7210 O.3     1  UNL1       -0.2162
     26 C         -26.3540    0.5760   25.7770 C.3     1  UNL1        0.2413
     27 F         -25.8600   -0.6810   25.7950 F       1  UNL1       -0.2268
     28 C         -24.8109    1.1472   27.4480 C.3     1  UNL1        0.0799
     29 O         -27.7510    5.8638   31.7850 O.3     1  UNL1       -0.3571
     30 C         -24.9307    3.7624   32.3737 C.3     1  UNL1        0.0770
     31 C         -26.6639    5.2755   31.6921 C.3     1  UNL1        0.1203
     32 N         -23.9336    2.0104   27.9734 N.3     1  UNL1       -0.2735
     33 C         -25.7726    4.8683   32.7147 C.3     1  UNL1        0.0736
     34 C         -27.9268    6.5242   29.9712 C.3     1  UNL1        0.1086
     35 C         -28.3139    7.8143   30.7952 C.3     1  UNL1        0.1172
     36 C         -22.9550    2.3485   26.8247 C.3     1  UNL1        0.0721
     37 C         -24.6405    1.8841   31.2169 C.3     1  UNL1        0.0602
     38 C         -23.3395    1.8850   30.4182 C.3     1  UNL1        0.0319
     39 C         -26.2783    7.7726   32.2077 C.3     1  UNL1        0.0336
     40 O         -27.3726    5.4202   34.4615 O.3     1  UNL1       -0.2230
     41 N         -25.3547    3.0519   31.3160 N.3     1  UNL1       -0.2736
     42 C         -25.8596    7.3033   33.6107 C.3     1  UNL1        0.0356
     43 N         -27.4567    7.7620   29.5265 N.3     1  UNL1       -0.2140
     44 C         -26.4419    3.2494   30.5622 C.3     1  UNL1        0.0746
     45 C         -26.3811    4.5778   30.6543 C.3     1  UNL1        0.0470
     46 C         -27.6136    7.1373   31.9566 C.3     1  UNL1        0.1325
     47 C         -23.1941    1.2598   29.0218 C.3     1  UNL1        0.0589
     48 C         -21.7699    0.9189   28.4861 C.3     1  UNL1        0.0174
     49 C         -26.0641    5.7922   33.8954 C.3     1  UNL1        0.1557
     50 C         -21.6232    1.7525   27.2466 C.3     1  UNL1        0.0187
@<TRIPOS>BOND
     1     2     7    1
     2     2     1    1
     3     3     2    2
     4     4     3    1
     5     4     5    2
     6     5     6    1
     7     6     7    2
     8     8     1    1
     9     8     9    1
    10     8    12    1
    11     9    37    1
    12     9    10    1
    13    10    11    1
    14    12    11    1
    15    13    28    1
    16    14    13    1
    17    14    15    1
    18    15    18    2
    19    16    17    1
    20    16    15    1
    21    19    14    2
    22    20    21    2
    23    20    19    1
    24    21    26    1
    25    22    21    1
    26    23    22    1
    27    24    23    1
    28    24    25    1
    29    26    27    1
    30    26    13    1
    31    28    32    1
    32    29    46    1
    33    31    45    1
    34    31    29    1
    35    31    33    1
    36    32    47    1
    37    33    30    1
    38    33    49    1
    39    35    34    1
    40    35    46    1
    41    36    50    1
    42    36    32    1
    43    37    38    1
    44    37    41    1
    45    39    42    1
    46    41    30    1
    47    42    49    1
    48    43    34    1
    49    43    35    1
    50    44    45    1
    51    44    41    1
    52    46    39    1
    53    47    38    1
    54    48    47    1
    55    49    40    1
    56    50    48    1
