@<TRIPOS>MOLECULE
outputs/IAG933/test6/raw/output_1676_IAG933_linker_design_.xyz
 41 45 0 0 0
SMALL
GASTEIGER

@<TRIPOS>ATOM
      1 C         -24.8550   -1.0120   30.1430 C.3     1  UNL1        0.0705
      2 C         -24.9730   -2.5050   29.7880 C.2     1  UNL1       -0.0187
      3 C         -23.9060   -3.1730   29.1460 C.2     1  UNL1       -0.0042
      4 C         -23.9890   -4.5490   28.8530 C.2     1  UNL1       -0.0003
      5 C         -25.1370   -5.2800   29.2050 C.2     1  UNL1       -0.0000
      6 C         -26.2320   -4.6110   29.7840 C.2     1  UNL1       -0.0003
      7 C         -26.1550   -3.2320   30.0650 C.2     1  UNL1       -0.0042
      8 C         -25.3870   -0.6790   31.5710 C.3     1  UNL1        0.0793
      9 C         -25.1890    0.7730   32.0280 C.3     1  UNL1        0.0193
     10 C         -25.3360    0.6840   33.5440 C.3     1  UNL1        0.0202
     11 C         -24.8290   -0.7150   33.9050 C.3     1  UNL1        0.0887
     12 N         -24.7580   -1.4810   32.6460 N.3     1  UNL1       -0.2191
     13 C         -25.6880    1.6140   26.4610 C.3     1  UNL1        0.1438
     14 C         -26.2500    2.9200   26.3950 C.2     1  UNL1        0.0731
     15 C         -25.6420    4.0930   27.1230 C.2     1  UNL1        0.2640
     16 N         -25.6140    5.2520   26.4490 N.am    1  UNL1       -0.1999
     17 C         -25.0260    6.4790   26.9630 C.3     1  UNL1        0.1388
     18 O         -25.1430    3.9660   28.2430 O.2     1  UNL1       -0.2686
     19 C         -27.4380    3.0910   25.6450 C.2     1  UNL1        0.1038
     20 N         -28.0750    2.0890   25.0030 N.2     1  UNL1       -0.2118
     21 C         -27.5430    0.8490   25.0790 C.2     1  UNL1        0.2358
     22 O         -28.1930   -0.2080   24.4770 O.2     1  UNL1       -0.4585
     23 C         -29.4600    0.0050   23.8660 C.3     1  UNL1        0.2423
     24 C         -30.0650   -1.3770   23.5730 C.3     1  UNL1        0.2292
     25 O         -30.7290   -1.8780   24.7210 O.3     1  UNL1       -0.2162
     26 C         -26.3540    0.5760   25.7770 C.3     1  UNL1        0.2580
     27 F         -25.8600   -0.6810   25.7950 F       1  UNL1       -0.2251
     28 N         -24.8469    1.0723   27.5023 N.pl3   1  UNL1       -0.2913
     29 C         -21.2697    1.2150   27.8653 C.3     1  UNL1        0.1759
     30 C         -23.1949    0.1573   29.0213 C.2     1  UNL1        0.1972
     31 C         -23.5976    1.3154   27.2450 C.2     1  UNL1        0.0888
     32 C         -28.7019    1.1511   29.7443 C.3     1  UNL1        0.1386
     33 C         -22.8792    1.7929   26.3051 C.3     1  UNL1        0.3155
     34 O         -22.5169   -0.1458   29.5762 O.2     1  UNL1       -0.2894
     35 C         -26.7488    0.1186   28.9929 C.2     1  UNL1        0.2650
     36 F         -23.0072    2.6100   25.1675 F       1  UNL1       -0.1973
     37 C         -22.7757    0.8406   28.1753 C.2     1  UNL1        0.0585
     38 C         -25.0956    0.1342   28.8792 C.3     1  UNL1        0.1890
     39 O         -27.4305   -0.8573   28.6427 O.2     1  UNL1       -0.2711
     40 N         -27.2737    1.2143   29.4738 N.am    1  UNL1       -0.2018
     41 O         -21.3938    2.0926   26.6533 O.3     1  UNL1       -0.3175
@<TRIPOS>BOND
     1     1     2    1
     2     2     7    1
     3     3     2    2
     4     4     3    1
     5     4     5    2
     6     5     6    1
     7     6     7    2
     8     8     1    1
     9     8     9    1
    10     8    12    1
    11     9    10    1
    12    10    11    1
    13    12    11    1
    14    13    28    1
    15    14    13    1
    16    14    15    1
    17    15    18    2
    18    16    17    1
    19    16    15    1
    20    19    14    2
    21    20    21    2
    22    20    19    1
    23    21    26    1
    24    22    21    1
    25    23    22    1
    26    24    23    1
    27    24    25    1
    28    26    27    1
    29    26    13    1
    30    28    38    1
    31    29    37    1
    32    30    34    2
    33    31    28    1
    34    31    37    2
    35    33    36    1
    36    33    41    1
    37    33    31    1
    38    35    40    1
    39    37    30    1
    40    38    35    1
    41    38    30    1
    42    38     1    1
    43    39    35    2
    44    40    32    1
    45    41    29    1
