@<TRIPOS>MOLECULE
outputs/IAG933/test6/raw/output_1678_IAG933_linker_design_.xyz
 43 46 0 0 0
SMALL
GASTEIGER

@<TRIPOS>ATOM
      1 C         -24.8550   -1.0120   30.1430 C.3     1  UNL1        0.0697
      2 C         -24.9730   -2.5050   29.7880 C.2     1  UNL1       -0.0184
      3 C         -23.9060   -3.1730   29.1460 C.2     1  UNL1       -0.0041
      4 C         -23.9890   -4.5490   28.8530 C.2     1  UNL1       -0.0003
      5 C         -25.1370   -5.2800   29.2050 C.2     1  UNL1       -0.0000
      6 C         -26.2320   -4.6110   29.7840 C.2     1  UNL1       -0.0003
      7 C         -26.1550   -3.2320   30.0650 C.2     1  UNL1       -0.0041
      8 C         -25.3870   -0.6790   31.5710 C.3     1  UNL1        0.0795
      9 C         -25.1890    0.7730   32.0280 C.3     1  UNL1        0.0193
     10 C         -25.3360    0.6840   33.5440 C.3     1  UNL1        0.0202
     11 C         -24.8290   -0.7150   33.9050 C.3     1  UNL1        0.0887
     12 N         -24.7580   -1.4810   32.6460 N.3     1  UNL1       -0.2190
     13 C         -25.6880    1.6140   26.4610 C.2     1  UNL1        0.0379
     14 C         -26.2500    2.9200   26.3950 C.2     1  UNL1        0.0765
     15 C         -25.6420    4.0930   27.1230 C.2     1  UNL1        0.2664
     16 N         -25.6140    5.2520   26.4490 N.am    1  UNL1       -0.1997
     17 C         -25.0260    6.4790   26.9630 C.3     1  UNL1        0.1388
     18 O         -25.1430    3.9660   28.2430 O.2     1  UNL1       -0.2683
     19 C         -27.4380    3.0910   25.6450 C.2     1  UNL1        0.1067
     20 N         -28.0750    2.0890   25.0030 N.2     1  UNL1       -0.2081
     21 C         -27.5430    0.8490   25.0790 C.2     1  UNL1        0.2533
     22 O         -28.1930   -0.2080   24.4770 O.2     1  UNL1       -0.4558
     23 C         -29.4600    0.0050   23.8660 C.3     1  UNL1        0.2426
     24 C         -30.0650   -1.3770   23.5730 C.3     1  UNL1        0.2292
     25 O         -30.7290   -1.8780   24.7210 O.3     1  UNL1       -0.2162
     26 C         -26.3540    0.5760   25.7770 C.2     1  UNL1        0.1930
     27 F         -25.8600   -0.6810   25.7950 F       1  UNL1       -0.1992
     28 C         -23.2334    1.7913   26.3552 C.2     1  UNL1       -0.0002
     29 C         -21.8221    1.0097   28.1861 C.2     1  UNL1       -0.0002
     30 C         -31.1565    0.1522   27.5060 C.3     1  UNL1        0.0348
     31 O         -26.6265    0.6840   28.9552 O.3     1  UNL1       -0.3488
     32 C         -24.2185    0.6097   28.2958 C.2     1  UNL1        0.0050
     33 C         -25.3564   -0.1141   28.9893 C.3     1  UNL1        0.1428
     34 O         -29.3188    1.7228   29.2472 O.3     1  UNL1       -0.2205
     35 C         -31.8918    0.9931   28.5776 C.3     1  UNL1        0.1424
     36 C         -21.9631    1.6641   26.9477 C.2     1  UNL1       -0.0000
     37 C         -24.3788    1.3198   27.0751 C.2     1  UNL1        0.0008
     38 C         -22.9347    0.4784   28.8570 C.2     1  UNL1       -0.0019
     39 C         -27.7556   -0.1517   29.1386 C.3     1  UNL1        0.1752
     40 C         -31.8047    2.0165   30.7457 C.3     1  UNL1        0.1741
     41 C         -29.2919    0.4178   29.0171 C.3     1  UNL1        0.1815
     42 C         -29.7062   -0.3423   27.7740 C.3     1  UNL1        0.0381
     43 O         -31.7542    0.7793   29.9727 O.3     1  UNL1       -0.3511
@<TRIPOS>BOND
     1     1    33    1
     2     2     7    1
     3     2     1    1
     4     3     2    2
     5     4     3    1
     6     4     5    2
     7     5     6    1
     8     6     7    2
     9     8     1    1
    10     8     9    1
    11     8    12    1
    12     9    10    1
    13    10    11    1
    14    12    11    1
    15    13    37    1
    16    14    13    1
    17    14    15    1
    18    15    18    2
    19    16    17    1
    20    16    15    1
    21    19    14    2
    22    20    21    2
    23    20    19    1
    24    21    26    1
    25    22    21    1
    26    23    22    1
    27    24    23    1
    28    24    25    1
    29    26    27    1
    30    26    13    2
    31    28    36    2
    32    28    37    1
    33    29    38    2
    34    30    42    1
    35    30    35    1
    36    31    39    1
    37    32    38    1
    38    32    33    1
    39    33    31    1
    40    35    43    1
    41    36    29    1
    42    37    32    2
    43    41    39    1
    44    41    34    1
    45    42    41    1
    46    43    40    1
