@<TRIPOS>MOLECULE
No_1681-gen_results/8p0m/2024-11-27-11-27-31/
 13 14 0 0 0
SMALL
GASTEIGER

@<TRIPOS>ATOM
      1 C         -28.0162   -0.8135   28.8779 C.ar    1  UNL1        0.0114
      2 C         -27.0636   -0.1190   28.6079 C.ar    1  UNL1        0.0009
      3 C         -25.7923   -0.4302   29.0761 C.ar    1  UNL1        0.0001
      4 C         -24.5456    0.3494   28.8225 C.ar    1  UNL1        0.0000
      5 C         -23.2409    0.0217   29.3323 C.ar    1  UNL1        0.0000
      6 C         -27.8820   -1.8995   29.8633 C.ar    1  UNL1        0.0577
      7 C         -26.6706   -2.3272   30.3212 C.ar    1  UNL1        0.0114
      8 C         -25.5433   -1.5852   29.9316 C.ar    1  UNL1        0.0009
      9 C         -22.1884    0.8224   28.9928 C.ar    1  UNL1        0.0000
     10 C         -22.1616    1.7773   28.0238 C.ar    1  UNL1        0.0000
     11 C         -24.5484    1.3977   27.8309 C.ar    1  UNL1        0.0000
     12 C         -23.3870    2.0761   27.4709 C.ar    1  UNL1        0.0000
     13 CL        -29.2587   -2.8355   30.3478 Cl      1  UNL1       -0.0822
@<TRIPOS>BOND
     1     3     4    1
     2     6    13    1
     3     1     2   ar
     4     2     3   ar
     5     3     8   ar
     6     8     7   ar
     7     7     6   ar
     8     6     1   ar
     9     4     5   ar
    10     5     9   ar
    11     9    10   ar
    12    10    12   ar
    13    12    11   ar
    14    11     4   ar
