@<TRIPOS>MOLECULE
No_1682-gen_results/8p0m/2024-11-27-11-27-31/
 17 19 0 0 0
SMALL
GASTEIGER

@<TRIPOS>ATOM
      1 C         -28.0162   -0.8135   28.8779 C.ar    1  UNL1        0.0000
      2 C         -28.4690   -0.7850   29.8287 C.ar    1  UNL1        0.0000
      3 C         -27.1356    0.2359   28.5352 C.ar    1  UNL1        0.0002
      4 C         -26.3351    0.2900   27.2835 C.ar    1  UNL1        0.0000
      5 C         -28.3692    0.1957   30.9236 C.ar    1  UNL1        0.0000
      6 C         -27.5158    1.2655   30.6540 C.ar    1  UNL1        0.0002
      7 C         -26.8411    1.2942   29.4761 C.ar    1  UNL1        0.0064
      8 C         -25.3615    0.7752   26.9671 C.ar    1  UNL1        0.0002
      9 C         -24.6560    0.7452   25.7258 C.ar    1  UNL1        0.0000
     10 C         -23.4671    1.4076   25.4763 C.ar    1  UNL1        0.0000
     11 C         -22.9384    2.2100   26.4928 C.ar    1  UNL1        0.0000
     12 C         -24.5892    1.6362   27.9044 C.ar    1  UNL1        0.0064
     13 C         -23.4065    2.2631   27.6827 C.ar    1  UNL1        0.0002
     14 C         -25.7110    2.1671   29.2392 C.ar    1  UNL1        0.0798
     15 C         -25.1815    3.2778   29.9905 C.2     1  UNL1        0.3878
     16 O         -25.5503    4.3933   29.5082 O.co2   1  UNL1       -0.2406
     17 O         -24.6876    3.0232   31.1074 O.co2   1  UNL1       -0.2406
@<TRIPOS>BOND
     1    14    15    1
     2    15    16   ar
     3    15    17   ar
     4     3     4   ar
     5     4     8   ar
     6    12    14   ar
     7    14     7   ar
     8     1     2   ar
     9     2     5   ar
    10     5     6   ar
    11     6     7   ar
    12     7     3   ar
    13     3     1   ar
    14     8     9   ar
    15     9    10   ar
    16    10    11   ar
    17    11    13   ar
    18    13    12   ar
    19    12     8   ar
