@<TRIPOS>MOLECULE
outputs/IAG933/test6/raw/output_1685_IAG933_linker_design_.xyz
 46 49 0 0 0
SMALL
GASTEIGER

@<TRIPOS>ATOM
      1 C         -24.8550   -1.0120   30.1430 C.3     1  UNL1        0.0624
      2 C         -24.9730   -2.5050   29.7880 C.2     1  UNL1       -0.0191
      3 C         -23.9060   -3.1730   29.1460 C.2     1  UNL1       -0.0042
      4 C         -23.9890   -4.5490   28.8530 C.2     1  UNL1       -0.0003
      5 C         -25.1370   -5.2800   29.2050 C.2     1  UNL1       -0.0000
      6 C         -26.2320   -4.6110   29.7840 C.2     1  UNL1       -0.0003
      7 C         -26.1550   -3.2320   30.0650 C.2     1  UNL1       -0.0042
      8 C         -25.3870   -0.6790   31.5710 C.3     1  UNL1        0.0788
      9 C         -25.1890    0.7730   32.0280 C.3     1  UNL1        0.0193
     10 C         -25.3360    0.6840   33.5440 C.3     1  UNL1        0.0202
     11 C         -24.8290   -0.7150   33.9050 C.3     1  UNL1        0.0887
     12 N         -24.7580   -1.4810   32.6460 N.3     1  UNL1       -0.2191
     13 C         -25.6880    1.6140   26.4610 C.2     1  UNL1        0.0394
     14 C         -26.2500    2.9200   26.3950 C.2     1  UNL1        0.0766
     15 C         -25.6420    4.0930   27.1230 C.2     1  UNL1        0.2664
     16 N         -25.6140    5.2520   26.4490 N.am    1  UNL1       -0.1997
     17 C         -25.0260    6.4790   26.9630 C.3     1  UNL1        0.1388
     18 O         -25.1430    3.9660   28.2430 O.2     1  UNL1       -0.2683
     19 C         -27.4380    3.0910   25.6450 C.2     1  UNL1        0.1067
     20 N         -28.0750    2.0890   25.0030 N.2     1  UNL1       -0.2081
     21 C         -27.5430    0.8490   25.0790 C.2     1  UNL1        0.2533
     22 O         -28.1930   -0.2080   24.4770 O.2     1  UNL1       -0.4558
     23 C         -29.4600    0.0050   23.8660 C.3     1  UNL1        0.2426
     24 C         -30.0650   -1.3770   23.5730 C.3     1  UNL1        0.2292
     25 O         -30.7290   -1.8780   24.7210 O.3     1  UNL1       -0.2162
     26 C         -26.3540    0.5760   25.7770 C.2     1  UNL1        0.1931
     27 F         -25.8600   -0.6810   25.7950 F       1  UNL1       -0.1992
     28 N         -31.4048   -4.3157   29.2491 N.3     1  UNL1       -0.0957
     29 C         -22.0176    2.0581   26.6896 C.2     1  UNL1        0.0330
     30 C         -28.4123   -0.2317   28.5927 C.2     1  UNL1        0.0029
     31 C         -30.0838    1.4100   29.2394 C.3     1  UNL1        0.0402
     32 C         -27.3295    0.1501   29.4054 C.2     1  UNL1       -0.0067
     33 C         -25.9372   -0.4951   29.0803 C.3     1  UNL1        0.1195
     34 C         -21.7524    1.2870   27.8393 C.2     1  UNL1        0.1801
     35 O         -30.2247   -0.3424   27.3983 O.3     1  UNL1       -0.2186
     36 C         -23.3441    2.1087   26.1919 C.2     1  UNL1        0.0039
     37 F         -20.5089    1.1631   28.2505 F       1  UNL1       -0.2007
     38 C         -24.1134    0.7737   27.9913 C.2     1  UNL1        0.1067
     39 C         -29.8481   -0.0292   28.7091 C.3     1  UNL1        0.1721
     40 O         -22.4824    0.1415   29.7210 O.2     1  UNL1       -0.2828
     41 N         -25.1483    0.3942   28.3245 N.pl3   1  UNL1       -0.2313
     42 C         -22.8002    0.6811   28.5370 C.2     1  UNL1        0.2375
     43 O         -29.8957   -2.4936   29.8369 O.3     1  UNL1       -0.3324
     44 C         -30.6361   -3.6186   30.2606 C.3     1  UNL1        0.2525
     45 C         -30.5063   -1.1607   29.6148 C.3     1  UNL1        0.1783
     46 C         -24.3741    1.4140   26.8915 C.2     1  UNL1        0.0207
@<TRIPOS>BOND
     1     1    33    1
     2     2     7    1
     3     2     1    1
     4     3     2    2
     5     4     3    1
     6     4     5    2
     7     5     6    1
     8     6     7    2
     9     8     1    1
    10     8     9    1
    11     8    12    1
    12     9    10    1
    13    10    11    1
    14    12    11    1
    15    13    46    1
    16    14    13    1
    17    14    15    1
    18    15    18    2
    19    16    17    1
    20    16    15    1
    21    19    14    2
    22    20    21    2
    23    20    19    1
    24    21    26    1
    25    22    21    1
    26    23    22    1
    27    24    23    1
    28    24    25    1
    29    26    27    1
    30    26    13    2
    31    28    44    1
    32    29    34    1
    33    30    39    1
    34    30    32    2
    35    33    32    1
    36    34    37    1
    37    34    42    2
    38    35    39    1
    39    36    29    2
    40    36    46    1
    41    38    41    1
    42    38    42    1
    43    39    31    1
    44    39    45    1
    45    41    33    1
    46    42    40    1
    47    43    44    1
    48    45    43    1
    49    46    38    2
