@<TRIPOS>MOLECULE
outputs/IAG933/test6/raw/output_1686_IAG933_linker_design_.xyz
 46 51 0 0 0
SMALL
GASTEIGER

@<TRIPOS>ATOM
      1 C         -24.8550   -1.0120   30.1430 C.3     1  UNL1        0.0443
      2 C         -24.9730   -2.5050   29.7880 C.2     1  UNL1       -0.0208
      3 C         -23.9060   -3.1730   29.1460 C.2     1  UNL1       -0.0042
      4 C         -23.9890   -4.5490   28.8530 C.2     1  UNL1       -0.0003
      5 C         -25.1370   -5.2800   29.2050 C.2     1  UNL1       -0.0000
      6 C         -26.2320   -4.6110   29.7840 C.2     1  UNL1       -0.0003
      7 C         -26.1550   -3.2320   30.0650 C.2     1  UNL1       -0.0042
      8 C         -25.3870   -0.6790   31.5710 C.3     1  UNL1        0.0772
      9 C         -25.1890    0.7730   32.0280 C.3     1  UNL1        0.0192
     10 C         -25.3360    0.6840   33.5440 C.3     1  UNL1        0.0202
     11 C         -24.8290   -0.7150   33.9050 C.3     1  UNL1        0.0887
     12 N         -24.7580   -1.4810   32.6460 N.3     1  UNL1       -0.2191
     13 C         -25.6880    1.6140   26.4610 C.2     1  UNL1        0.0400
     14 C         -26.2500    2.9200   26.3950 C.2     1  UNL1        0.0766
     15 C         -25.6420    4.0930   27.1230 C.2     1  UNL1        0.2664
     16 N         -25.6140    5.2520   26.4490 N.am    1  UNL1       -0.1997
     17 C         -25.0260    6.4790   26.9630 C.3     1  UNL1        0.1388
     18 O         -25.1430    3.9660   28.2430 O.2     1  UNL1       -0.2683
     19 C         -27.4380    3.0910   25.6450 C.2     1  UNL1        0.1067
     20 N         -28.0750    2.0890   25.0030 N.2     1  UNL1       -0.2081
     21 C         -27.5430    0.8490   25.0790 C.2     1  UNL1        0.2533
     22 O         -28.1930   -0.2080   24.4770 O.2     1  UNL1       -0.4558
     23 C         -29.4600    0.0050   23.8660 C.3     1  UNL1        0.2426
     24 C         -30.0650   -1.3770   23.5730 C.3     1  UNL1        0.2292
     25 O         -30.7290   -1.8780   24.7210 O.3     1  UNL1       -0.2162
     26 C         -26.3540    0.5760   25.7770 C.2     1  UNL1        0.1931
     27 F         -25.8600   -0.6810   25.7950 F       1  UNL1       -0.1992
     28 F         -21.0675    1.4399   27.7091 F       1  UNL1       -0.1851
     29 C         -28.4867    1.8997   30.2104 C.2     1  UNL1       -0.0255
     30 N         -30.5381   -2.7670   32.1339 N.3     1  UNL1       -0.0814
     31 C         -29.5257    1.4064   30.9458 C.3     1  UNL1        0.0548
     32 C         -27.8326    0.0033   29.1660 C.2     1  UNL1       -0.0190
     33 C         -22.3666    1.1394   27.6876 C.2     1  UNL1        0.2223
     34 C         -30.5574   -3.1176   30.7018 C.3     1  UNL1        0.3166
     35 C         -29.7972   -0.9495   30.1479 C.2     1  UNL1        0.1363
     36 C         -27.5812    0.9876   29.5558 C.2     1  UNL1       -0.0255
     37 CL        -23.0627    2.3378   25.2358 Cl      1  UNL1       -0.0784
     38 C         -26.6239    0.2721   29.1574 C.3     1  UNL1        0.0494
     39 C         -24.3700    0.5500   28.3228 C.2     1  UNL1        0.0521
     40 C         -23.2535    1.5965   26.7940 C.2     1  UNL1        0.1020
     41 C         -30.0620    0.1389   30.9880 C.2     1  UNL1        0.0155
     42 O         -30.7231   -1.9499   29.9257 O.2     1  UNL1       -0.4565
     43 C         -28.6752   -1.0828   29.3956 C.2     1  UNL1        0.0324
     44 N         -22.9827    0.3936   28.5882 N.pl3   1  UNL1       -0.1892
     45 C         -24.5383    1.3218   27.3095 C.2     1  UNL1        0.0279
     46 C         -25.2374   -0.0647   29.1108 C.3     1  UNL1        0.0513
@<TRIPOS>BOND
     1     1    46    1
     2     2     7    1
     3     2     1    1
     4     3     2    2
     5     4     3    1
     6     4     5    2
     7     5     6    1
     8     6     7    2
     9     8     1    1
    10     8     9    1
    11     8    12    1
    12     9    10    1
    13    10    11    1
    14    12    11    1
    15    13    45    1
    16    14    13    1
    17    14    15    1
    18    15    18    2
    19    16    17    1
    20    16    15    1
    21    19    14    2
    22    20    21    2
    23    20    19    1
    24    21    26    1
    25    22    21    1
    26    23    22    1
    27    24    23    1
    28    24    25    1
    29    26    27    1
    30    26    13    2
    31    29    31    1
    32    31    41    1
    33    32    43    2
    34    32    36    1
    35    33    28    1
    36    33    44    1
    37    34    30    1
    38    35    41    2
    39    36    29    2
    40    37    40    1
    41    38    46    1
    42    38    32    1
    43    38    36    1
    44    39    44    1
    45    40    45    1
    46    40    33    2
    47    42    35    1
    48    42    34    1
    49    43    35    1
    50    45    39    2
    51    46    39    1
