@<TRIPOS>MOLECULE
No_1688-gen_results/8p0m/2024-11-27-11-27-31/
 10 10 0 0 0
SMALL
GASTEIGER

@<TRIPOS>ATOM
      1 C         -28.0162   -0.8135   28.8779 C.ar    1  UNL1       -0.0001
      2 C         -28.4690   -0.7850   29.8287 C.ar    1  UNL1       -0.0000
      3 C         -26.5455   -0.8762   28.8500 C.ar    1  UNL1        0.0039
      4 C         -25.8041   -1.0324   30.0571 C.ar    1  UNL1        0.0714
      5 C         -24.3697   -1.0998   30.0718 C.3     1  UNL1        0.4186
      6 C         -27.9902   -1.0051   31.2092 C.ar    1  UNL1       -0.0001
      7 C         -26.5616   -1.1368   31.2600 C.ar    1  UNL1        0.0039
      8 F         -23.8941   -1.5516   29.0907 F       1  UNL1       -0.1659
      9 F         -23.8324    0.1745   30.2340 F       1  UNL1       -0.1659
     10 F         -23.8932   -1.7415   31.2202 F       1  UNL1       -0.1659
@<TRIPOS>BOND
     1     4     5    1
     2     5     8    1
     3     5     9    1
     4     5    10    1
     5     1     2   ar
     6     2     6   ar
     7     6     7   ar
     8     7     4   ar
     9     4     3   ar
    10     3     1   ar
