@<TRIPOS>MOLECULE
No_169-gen_results/8p0m/2024-11-27-11-27-31/
 16 17 0 0 0
SMALL
GASTEIGER

@<TRIPOS>ATOM
      1 C         -28.0162   -0.8135   28.8779 C.ar    1  UNL1        0.0039
      2 C         -27.0636   -0.1189   28.6079 C.ar    1  UNL1       -0.0001
      3 C         -25.7923   -0.4302   29.0761 C.ar    1  UNL1       -0.0000
      4 C         -24.5456    0.3494   28.8225 C.ar    1  UNL1       -0.0000
      5 C         -23.2409    0.0217   29.3323 C.ar    1  UNL1       -0.0000
      6 C         -27.8820   -1.8995   29.8633 C.ar    1  UNL1        0.0714
      7 C         -26.6526   -2.3142   30.3138 C.ar    1  UNL1        0.0039
      8 C         -25.5153   -1.5607   29.9787 C.ar    1  UNL1       -0.0001
      9 C         -22.1588    0.7866   28.9507 C.ar    1  UNL1        0.0000
     10 C         -22.1309    1.7439   27.9818 C.ar    1  UNL1        0.0000
     11 C         -24.3467    1.2383   27.6691 C.ar    1  UNL1       -0.0000
     12 C         -23.2713    1.9480   27.3587 C.ar    1  UNL1        0.0000
     13 C         -29.0462   -2.7278   30.2926 C.3     1  UNL1        0.4186
     14 F         -28.9033   -3.9120   29.9766 F       1  UNL1       -0.1659
     15 F         -29.1591   -2.5643   31.6622 F       1  UNL1       -0.1659
     16 F         -30.1694   -2.3069   29.7804 F       1  UNL1       -0.1659
@<TRIPOS>BOND
     1     3     4    1
     2     6    13    1
     3    13    14    1
     4    13    15    1
     5    13    16    1
     6     1     2   ar
     7     2     3   ar
     8     3     8   ar
     9     8     7   ar
    10     7     6   ar
    11     6     1   ar
    12     4     5   ar
    13     5     9   ar
    14     9    10   ar
    15    10    12   ar
    16    12    11   ar
    17    11     4   ar
