@<TRIPOS>MOLECULE
outputs/IAG933/test6/raw/output_1690_IAG933_linker_design_.xyz
 42 45 0 0 0
SMALL
GASTEIGER

@<TRIPOS>ATOM
      1 C         -24.8550   -1.0120   30.1430 C.3     1  UNL1        0.0454
      2 C         -24.9730   -2.5050   29.7880 C.2     1  UNL1       -0.0207
      3 C         -23.9060   -3.1730   29.1460 C.2     1  UNL1       -0.0042
      4 C         -23.9890   -4.5490   28.8530 C.2     1  UNL1       -0.0003
      5 C         -25.1370   -5.2800   29.2050 C.2     1  UNL1       -0.0000
      6 C         -26.2320   -4.6110   29.7840 C.2     1  UNL1       -0.0003
      7 C         -26.1550   -3.2320   30.0650 C.2     1  UNL1       -0.0042
      8 C         -25.3870   -0.6790   31.5710 C.3     1  UNL1        0.0952
      9 C         -25.1890    0.7730   32.0280 C.3     1  UNL1        0.0905
     10 C         -25.3360    0.6840   33.5440 C.3     1  UNL1        0.0399
     11 C         -24.8290   -0.7150   33.9050 C.3     1  UNL1        0.0905
     12 N         -24.7580   -1.4810   32.6460 N.3     1  UNL1       -0.2174
     13 C         -25.6880    1.6140   26.4610 C.2     1  UNL1        0.0316
     14 C         -26.2500    2.9200   26.3950 C.2     1  UNL1        0.0739
     15 C         -25.6420    4.0930   27.1230 C.2     1  UNL1        0.2662
     16 N         -25.6140    5.2520   26.4490 N.am    1  UNL1       -0.1997
     17 C         -25.0260    6.4790   26.9630 C.3     1  UNL1        0.1388
     18 O         -25.1430    3.9660   28.2430 O.2     1  UNL1       -0.2683
     19 C         -27.4380    3.0910   25.6450 C.2     1  UNL1        0.1065
     20 N         -28.0750    2.0890   25.0030 N.2     1  UNL1       -0.2081
     21 C         -27.5430    0.8490   25.0790 C.2     1  UNL1        0.2530
     22 O         -28.1930   -0.2080   24.4770 O.2     1  UNL1       -0.4558
     23 C         -29.4600    0.0050   23.8660 C.3     1  UNL1        0.2426
     24 C         -30.0650   -1.3770   23.5730 C.3     1  UNL1        0.2292
     25 O         -30.7290   -1.8780   24.7210 O.3     1  UNL1       -0.2162
     26 C         -26.3540    0.5760   25.7770 C.2     1  UNL1        0.1904
     27 F         -25.8600   -0.6810   25.7950 F       1  UNL1       -0.1995
     28 N         -24.8980    1.0890   28.5523 N.3     1  UNL1       -0.2132
     29 C         -28.3774    2.2419   30.6943 C.2     1  UNL1        0.0145
     30 C         -23.3901    2.1347   26.3004 C.3     1  UNL1        0.0246
     31 C         -21.8935    1.8786   26.4453 C.3     1  UNL1        0.0373
     32 C         -21.5205    1.4538   27.8706 C.3     1  UNL1        0.1822
     33 C         -24.5059    1.4351   27.1601 C.3     1  UNL1        0.0976
     34 C         -28.0359    4.9172   31.2447 C.2     1  UNL1        0.0013
     35 C         -29.0977    4.5110   30.4468 C.2     1  UNL1        0.0001
     36 C         -24.2821    1.5652   29.7554 C.3     1  UNL1        0.1104
     37 C         -25.1044    2.5097   30.4451 C.3     1  UNL1        0.1095
     38 C         -27.1303    3.9944   31.7544 C.2     1  UNL1        0.0145
     39 C         -29.3181    3.1536   30.2321 C.2     1  UNL1        0.0013
     40 N         -26.0563    1.8932   31.4795 N.pl3   1  UNL1       -0.3062
     41 C         -27.2224    2.6731   31.3459 C.2     1  UNL1        0.0479
     42 O         -22.3496    0.4118   28.3018 O.3     1  UNL1       -0.2204
@<TRIPOS>BOND
     1     2     7    1
     2     2     1    1
     3     3     2    2
     4     4     3    1
     5     4     5    2
     6     5     6    1
     7     6     7    2
     8     8     1    1
     9     8     9    1
    10     8    12    1
    11     9    40    1
    12     9    10    1
    13    10    11    1
    14    12    11    1
    15    13    33    1
    16    14    13    1
    17    14    15    1
    18    15    18    2
    19    16    17    1
    20    16    15    1
    21    19    14    2
    22    20    21    2
    23    20    19    1
    24    21    26    1
    25    22    21    1
    26    23    22    1
    27    24    23    1
    28    24    25    1
    29    26    27    1
    30    26    13    2
    31    28    36    1
    32    29    41    1
    33    30    31    1
    34    31    32    1
    35    32    42    1
    36    33    30    1
    37    33    28    1
    38    34    38    1
    39    35    34    2
    40    36    37    1
    41    37    40    1
    42    39    35    1
    43    39    29    2
    44    41    40    1
    45    41    38    2
