@<TRIPOS>MOLECULE
outputs/IAG933/test6/raw/output_1691_IAG933_linker_design_.xyz
 45 49 0 0 0
SMALL
GASTEIGER

@<TRIPOS>ATOM
      1 C         -24.8550   -1.0120   30.1430 C.3     1  UNL1        0.1111
      2 C         -24.9730   -2.5050   29.7880 C.2     1  UNL1       -0.0030
      3 C         -23.9060   -3.1730   29.1460 C.2     1  UNL1       -0.0026
      4 C         -23.9890   -4.5490   28.8530 C.2     1  UNL1       -0.0003
      5 C         -25.1370   -5.2800   29.2050 C.2     1  UNL1       -0.0000
      6 C         -26.2320   -4.6110   29.7840 C.2     1  UNL1       -0.0003
      7 C         -26.1550   -3.2320   30.0650 C.2     1  UNL1       -0.0026
      8 C         -25.3870   -0.6790   31.5710 C.3     1  UNL1        0.0950
      9 C         -25.1890    0.7730   32.0280 C.3     1  UNL1        0.0209
     10 C         -25.3360    0.6840   33.5440 C.3     1  UNL1        0.0203
     11 C         -24.8290   -0.7150   33.9050 C.3     1  UNL1        0.0888
     12 N         -24.7580   -1.4810   32.6460 N.3     1  UNL1       -0.2174
     13 C         -25.6880    1.6140   26.4610 C.2     1  UNL1        0.0387
     14 C         -26.2500    2.9200   26.3950 C.2     1  UNL1        0.0766
     15 C         -25.6420    4.0930   27.1230 C.2     1  UNL1        0.2664
     16 N         -25.6140    5.2520   26.4490 N.am    1  UNL1       -0.1997
     17 C         -25.0260    6.4790   26.9630 C.3     1  UNL1        0.1388
     18 O         -25.1430    3.9660   28.2430 O.2     1  UNL1       -0.2683
     19 C         -27.4380    3.0910   25.6450 C.2     1  UNL1        0.1067
     20 N         -28.0750    2.0890   25.0030 N.2     1  UNL1       -0.2081
     21 C         -27.5430    0.8490   25.0790 C.2     1  UNL1        0.2533
     22 O         -28.1930   -0.2080   24.4770 O.2     1  UNL1       -0.4560
     23 C         -29.4600    0.0050   23.8660 C.3     1  UNL1        0.2391
     24 C         -30.0650   -1.3770   23.5730 C.3     1  UNL1        0.1900
     25 O         -30.7290   -1.8780   24.7210 O.3     1  UNL1       -0.3403
     26 C         -26.3540    0.5760   25.7770 C.2     1  UNL1        0.1931
     27 F         -25.8600   -0.6810   25.7950 F       1  UNL1       -0.1992
     28 C         -31.4928   -0.6433   26.7147 C.2     1  UNL1        0.2971
     29 C         -24.3843    0.6164   28.4239 C.2     1  UNL1        0.0467
     30 N         -25.4604   -0.0441   29.1220 N.pl3   1  UNL1       -0.3060
     31 C         -22.2776    1.2728   27.8332 C.2     1  UNL1       -0.0061
     32 C         -29.2554   -0.1168   29.2849 C.3     1  UNL1        0.0044
     33 O         -30.2593   -0.4282   26.8276 O.2     1  UNL1       -0.2683
     34 C         -27.8721   -0.5683   28.8013 C.3     1  UNL1        0.0215
     35 C         -23.0409    0.6719   28.8249 C.3     1  UNL1        0.1488
     36 C         -26.8544    0.5798   28.9263 C.3     1  UNL1        0.0908
     37 C         -23.1798    1.6681   26.7906 C.2     1  UNL1       -0.0233
     38 N         -32.3858   -0.2633   27.7333 N.am    1  UNL1       -0.0599
     39 N         -22.4999    0.1527   30.0219 N.3     1  UNL1       -0.1220
     40 C         -22.7466    2.3938   25.5403 C.3     1  UNL1        0.0308
     41 C         -31.4302   -2.1093   28.7509 C.3     1  UNL1        0.1734
     42 C         -30.1824   -1.4185   29.4620 C.3     1  UNL1        0.0348
     43 O         -32.6106   -1.2443   28.7734 O.3     1  UNL1       -0.2439
     44 C         -24.4494    1.2774   27.1515 C.2     1  UNL1        0.0092
     45 C         -31.9143   -1.3630   25.3610 C.3     1  UNL1        0.2311
@<TRIPOS>BOND
     1     1     2    1
     2     2     7    1
     3     3     2    2
     4     4     3    1
     5     4     5    2
     6     5     6    1
     7     6     7    2
     8     8     1    1
     9     8     9    1
    10     8    12    1
    11     9    10    1
    12    10    11    1
    13    12    11    1
    14    13    44    1
    15    14    13    1
    16    14    15    1
    17    15    18    2
    18    16    17    1
    19    16    15    1
    20    19    14    2
    21    20    21    2
    22    20    19    1
    23    21    26    1
    24    22    21    1
    25    23    22    1
    26    24    23    1
    27    24    25    1
    28    25    45    1
    29    26    27    1
    30    26    13    2
    31    28    33    2
    32    28    38    1
    33    29    35    1
    34    29    30    1
    35    30     1    1
    36    31    35    1
    37    32    42    1
    38    34    36    1
    39    34    32    1
    40    35    39    1
    41    36    30    1
    42    37    44    1
    43    37    31    2
    44    38    43    1
    45    40    37    1
    46    41    43    1
    47    41    42    1
    48    44    29    2
    49    45    28    1
