@<TRIPOS>MOLECULE
No_1695-gen_results/8p0m/2024-11-27-11-27-31/
 19 19 0 0 0
SMALL
GASTEIGER

@<TRIPOS>ATOM
      1 C         -28.0162   -0.8135   28.8779 C.2     1  UNL1        0.2690
      2 C         -27.0636   -0.1189   28.6079 C.ar    1  UNL1        0.0554
      3 C         -27.0010    0.6913   27.4910 C.ar    1  UNL1        0.0054
      4 C         -25.8548    1.4825   27.0830 C.ar    1  UNL1        0.0115
      5 C         -24.6901    1.4526   27.8807 C.ar    1  UNL1        0.0616
      6 C         -24.7379    0.6010   29.0416 C.ar    1  UNL1        0.0821
      7 C         -25.8234   -0.1688   29.3887 C.ar    1  UNL1        0.0093
      8 N         -27.9524   -1.6294   30.0643 N.am    1  UNL1       -0.1702
      9 C         -29.0363   -2.3695   30.4865 C.2     1  UNL1        0.1642
     10 C         -28.7283   -3.6343   31.2329 C.3     1  UNL1        0.4339
     11 F         -29.1906   -3.6689   32.3560 F       1  UNL1       -0.1645
     12 F         -29.2500   -4.6727   30.4696 F       1  UNL1       -0.1645
     13 F         -27.3960   -3.7931   31.0678 F       1  UNL1       -0.1645
     14 CL        -23.3219    2.3449   27.5258 Cl      1  UNL1       -0.0823
     15 O         -29.1232   -0.7797   28.3760 O.2     1  UNL1       -0.2680
     16 C         -23.4566    0.5309   29.8810 C.3     1  UNL1        0.4194
     17 F         -23.6864    1.0118   31.0265 F       1  UNL1       -0.1658
     18 F         -22.4558    1.2630   29.3395 F       1  UNL1       -0.1658
     19 F         -23.1356   -0.7183   30.0628 F       1  UNL1       -0.1658
@<TRIPOS>BOND
     1     1     2    1
     2     1     8    1
     3     8     9    2
     4     9    10    1
     5    10    11    1
     6    10    12    1
     7    10    13    1
     8     5    14    1
     9     1    15    2
    10     6    16    1
    11    16    17    1
    12    16    18    1
    13    16    19    1
    14     2     3   ar
    15     3     4   ar
    16     4     5   ar
    17     5     6   ar
    18     6     7   ar
    19     7     2   ar
