@<TRIPOS>MOLECULE
No_1696-gen_results/8p0m/2024-11-27-11-27-31/
 16 16 0 0 0
SMALL
GASTEIGER

@<TRIPOS>ATOM
      1 C         -28.0162   -0.8135   28.8779 C.3     1  UNL1        0.2682
      2 C         -27.0636   -0.1189   28.6079 C.ar    1  UNL1        0.0333
      3 C         -27.0010    0.6913   27.4910 C.ar    1  UNL1        0.0007
      4 C         -25.8548    1.4825   27.0830 C.ar    1  UNL1        0.0064
      5 C         -24.6901    1.4526   27.8807 C.ar    1  UNL1        0.0798
      6 C         -24.7379    0.6010   29.0416 C.ar    1  UNL1        0.0064
      7 C         -25.8234   -0.1688   29.3887 C.ar    1  UNL1        0.0007
      8 CL        -29.5294   -0.3027   28.6098 Cl      1  UNL1       -0.0634
      9 O         -27.8868   -1.9414   29.6334 O.2     1  UNL1       -0.4563
     10 C         -23.5129    2.1981   27.5783 C.2     1  UNL1        0.3878
     11 O         -22.9856    2.7716   28.4666 O.co2   1  UNL1       -0.2406
     12 O         -23.2783    2.5246   26.2932 O.co2   1  UNL1       -0.2406
     13 C         -26.9172   -2.5147   30.0544 C.2     1  UNL1        0.1742
     14 C         -26.1207   -3.0661   29.3793 C.2     1  UNL1        0.0401
     15 C         -25.0087   -3.9000   29.8213 C.2     1  UNL1        0.0032
     16 C         -24.1838   -4.5252   28.8095 C.2     1  UNL1        0.0001
@<TRIPOS>BOND
     1     1     2    1
     2     1     8    1
     3     1     9    1
     4     5    10    1
     5    10    11   ar
     6    10    12   ar
     7     9    13    1
     8    13    14    2
     9    14    15    1
    10    15    16    2
    11     2     3   ar
    12     3     4   ar
    13     4     5   ar
    14     5     6   ar
    15     6     7   ar
    16     7     2   ar
