@<TRIPOS>MOLECULE
No_1697-gen_results/8p0m/2024-11-27-11-27-31/
 22 24 0 0 0
SMALL
GASTEIGER

@<TRIPOS>ATOM
      1 C         -28.0162   -0.8135   28.8779 C.ar    1  UNL1        0.0046
      2 C         -27.0636   -0.1190   28.6079 C.ar    1  UNL1        0.0001
      3 C         -25.7923   -0.4302   29.0761 C.ar    1  UNL1        0.0000
      4 C         -25.5756   -1.5654   29.9363 C.ar    1  UNL1        0.0001
      5 C         -26.7354   -2.3004   30.2173 C.ar    1  UNL1        0.0046
      6 C         -27.9184   -1.9537   29.7629 C.ar    1  UNL1        0.0554
      7 C         -27.1057    1.1023   27.7593 C.ar    1  UNL1        0.0000
      8 C         -26.7157    2.2350   27.9945 C.ar    1  UNL1        0.0000
      9 C         -26.6929    3.3459   27.0337 C.ar    1  UNL1        0.0000
     10 C         -27.1962    3.0779   25.7437 C.ar    1  UNL1        0.0000
     11 C         -27.5814    0.8882   26.3714 C.ar    1  UNL1        0.0000
     12 C         -27.6131    1.8443   25.4645 C.ar    1  UNL1        0.0000
     13 C         -29.1480   -2.6148   30.1849 C.2     1  UNL1        0.2690
     14 N         -30.2304   -2.0373   30.2309 N.am    1  UNL1       -0.1754
     15 O         -29.0568   -3.8482   30.5510 O.2     1  UNL1       -0.2680
     16 C         -31.5079   -2.6689   30.6180 C.ar    1  UNL1        0.0737
     17 C         -31.7233   -3.3606   31.3326 C.ar    1  UNL1        0.0175
     18 C         -32.5517   -2.0509   29.7347 C.ar    1  UNL1        0.0175
     19 C         -33.0220   -3.9790   31.6378 C.ar    1  UNL1        0.0127
     20 C         -33.8481   -2.5750   29.9333 C.ar    1  UNL1        0.0127
     21 C         -34.0526   -3.4904   30.9139 C.ar    1  UNL1        0.0578
     22 CL        -35.6476   -4.0706   31.1479 Cl      1  UNL1       -0.0822
@<TRIPOS>BOND
     1     2     7    1
     2     6    13    1
     3    13    14   am
     4    13    15    2
     5    14    16    1
     6    21    22    1
     7     7     8   ar
     8     8     9   ar
     9     9    10   ar
    10    10    12   ar
    11    12    11   ar
    12    11     7   ar
    13     1     2   ar
    14     2     3   ar
    15     3     4   ar
    16     4     5   ar
    17     5     6   ar
    18     6     1   ar
    19    16    17   ar
    20    17    19   ar
    21    19    21   ar
    22    21    20   ar
    23    20    18   ar
    24    18    16   ar
