@<TRIPOS>MOLECULE
outputs/IAG933/test6/raw/output_1699_IAG933_linker_design_.xyz
 45 49 0 0 0
SMALL
GASTEIGER

@<TRIPOS>ATOM
      1 C         -24.8550   -1.0120   30.1430 C.3     1  UNL1        0.1116
      2 C         -24.9730   -2.5050   29.7880 C.2     1  UNL1       -0.0030
      3 C         -23.9060   -3.1730   29.1460 C.2     1  UNL1       -0.0026
      4 C         -23.9890   -4.5490   28.8530 C.2     1  UNL1       -0.0003
      5 C         -25.1370   -5.2800   29.2050 C.2     1  UNL1       -0.0000
      6 C         -26.2320   -4.6110   29.7840 C.2     1  UNL1       -0.0003
      7 C         -26.1550   -3.2320   30.0650 C.2     1  UNL1       -0.0026
      8 C         -25.3870   -0.6790   31.5710 C.3     1  UNL1        0.0950
      9 C         -25.1890    0.7730   32.0280 C.3     1  UNL1        0.0209
     10 C         -25.3360    0.6840   33.5440 C.3     1  UNL1        0.0203
     11 C         -24.8290   -0.7150   33.9050 C.3     1  UNL1        0.0888
     12 N         -24.7580   -1.4810   32.6460 N.3     1  UNL1       -0.2174
     13 C         -25.6880    1.6140   26.4610 C.2     1  UNL1        0.0416
     14 C         -26.2500    2.9200   26.3950 C.2     1  UNL1        0.0767
     15 C         -25.6420    4.0930   27.1230 C.2     1  UNL1        0.2664
     16 N         -25.6140    5.2520   26.4490 N.am    1  UNL1       -0.1997
     17 C         -25.0260    6.4790   26.9630 C.3     1  UNL1        0.1388
     18 O         -25.1430    3.9660   28.2430 O.2     1  UNL1       -0.2683
     19 C         -27.4380    3.0910   25.6450 C.2     1  UNL1        0.1067
     20 N         -28.0750    2.0890   25.0030 N.2     1  UNL1       -0.2081
     21 C         -27.5430    0.8490   25.0790 C.2     1  UNL1        0.2533
     22 O         -28.1930   -0.2080   24.4770 O.2     1  UNL1       -0.4558
     23 C         -29.4600    0.0050   23.8660 C.3     1  UNL1        0.2426
     24 C         -30.0650   -1.3770   23.5730 C.3     1  UNL1        0.2292
     25 O         -30.7290   -1.8780   24.7210 O.3     1  UNL1       -0.2162
     26 C         -26.3540    0.5760   25.7770 C.2     1  UNL1        0.1932
     27 F         -25.8600   -0.6810   25.7950 F       1  UNL1       -0.1992
     28 C         -21.9436    0.9430   28.0830 C.ar    1  UNL1        0.1981
     29 C         -27.0831    0.6500   29.0773 C.3     1  UNL1        0.1180
     30 C         -24.4846    1.3767   27.2043 C.ar    1  UNL1        0.0479
     31 C         -29.4484    4.1238   30.8894 C.2     1  UNL1       -0.0000
     32 F         -23.5737    2.7885   25.5008 F       1  UNL1       -0.2017
     33 C         -30.0813    3.0734   30.1722 C.2     1  UNL1       -0.0003
     34 C         -27.3022    3.0723   30.3988 C.2     1  UNL1       -0.0026
     35 F         -21.2643    2.4330   26.3737 F       1  UNL1       -0.1993
     36 C         -28.0249    4.1075   31.0165 C.2     1  UNL1       -0.0003
     37 C         -23.4058    2.0388   26.6428 C.ar    1  UNL1        0.1710
     38 F         -22.5655   -0.4636   29.7113 F       1  UNL1       -0.2004
     39 C         -22.9809    0.3538   28.7608 C.ar    1  UNL1        0.1830
     40 F         -20.5996    0.8017   28.3444 F       1  UNL1       -0.1993
     41 C         -27.9410    1.9881   29.5925 C.2     1  UNL1       -0.0024
     42 N         -25.5578   -0.0461   29.1668 N.pl3   1  UNL1       -0.2982
     43 C         -24.3814    0.5635   28.3681 C.ar    1  UNL1        0.0808
     44 C         -29.3382    2.0111   29.5405 C.2     1  UNL1       -0.0026
     45 C         -22.1961    1.7752   27.0659 C.ar    1  UNL1        0.1969
@<TRIPOS>BOND
     1     1    42    1
     2     2     7    1
     3     2     1    1
     4     3     2    2
     5     4     3    1
     6     4     5    2
     7     5     6    1
     8     6     7    2
     9     8     1    1
    10     8     9    1
    11     8    12    1
    12     9    10    1
    13    10    11    1
    14    12    11    1
    15    13    30    1
    16    14    13    1
    17    14    15    1
    18    15    18    2
    19    16    17    1
    20    16    15    1
    21    19    14    2
    22    20    21    2
    23    20    19    1
    24    21    26    1
    25    22    21    1
    26    23    22    1
    27    24    23    1
    28    24    25    1
    29    26    27    1
    30    26    13    2
    31    28    40    1
    32    28    39   ar
    33    29    42    1
    34    29    41    1
    35    30    43   ar
    36    31    36    1
    37    32    37    1
    38    33    31    2
    39    34    36    2
    40    35    45    1
    41    37    45   ar
    42    37    30   ar
    43    39    38    1
    44    41    34    1
    45    43    39   ar
    46    43    42    1
    47    44    41    2
    48    44    33    1
    49    45    28   ar
