@<TRIPOS>MOLECULE
No_17-gen_results/8p0m/2024-11-27-11-27-31/
 22 24 0 0 0
SMALL
GASTEIGER

@<TRIPOS>ATOM
      1 C         -28.0162   -0.8135   28.8779 C.ar    1  UNL1        0.0114
      2 C         -27.0636   -0.1189   28.6079 C.ar    1  UNL1        0.0008
      3 C         -27.0010    0.6913   27.4910 C.ar    1  UNL1        0.0000
      4 C         -27.1778    1.9037   27.5632 C.ar    1  UNL1        0.0000
      5 C         -28.0594   -1.3960   30.2136 C.ar    1  UNL1        0.0577
      6 C         -26.8947   -1.6080   30.9179 C.ar    1  UNL1        0.0114
      7 C         -25.7839   -0.2253   29.3757 C.ar    1  UNL1        0.0003
      8 C         -25.7520   -0.9581   30.5315 C.ar    1  UNL1        0.0009
      9 C         -27.1106    2.7938   26.3675 C.ar    1  UNL1        0.0000
     10 C         -26.8464    2.2343   25.1274 C.ar    1  UNL1        0.0000
     11 C         -26.5638    0.1298   26.1961 C.ar    1  UNL1        0.0000
     12 C         -26.5290    0.9319   25.0465 C.ar    1  UNL1        0.0000
     13 CL        -29.4786   -2.2928   30.6856 Cl      1  UNL1       -0.0822
     14 C         -24.5430    0.4379   28.9471 C.ar    1  UNL1        0.0064
     15 C         -24.0685    1.6034   29.2144 C.ar    1  UNL1        0.0798
     16 C         -22.8452    2.1467   28.8047 C.ar    1  UNL1        0.0066
     17 C         -22.1676    1.4462   27.7452 C.ar    1  UNL1        0.0002
     18 C         -23.7372   -0.3127   27.9569 C.ar    1  UNL1        0.0002
     19 C         -22.5119    0.2456   27.4681 C.ar    1  UNL1        0.0000
     20 C         -24.8797    2.4824   30.2475 C.2     1  UNL1        0.3878
     21 O         -25.5456    3.4440   29.7838 O.co2   1  UNL1       -0.2406
     22 O         -24.8122    2.1967   31.4824 O.co2   1  UNL1       -0.2406
@<TRIPOS>BOND
     1     2     3    1
     2     5    13    1
     3     7    14    1
     4    15    20    1
     5    20    21   ar
     6    20    22   ar
     7     1     2   ar
     8     2     7   ar
     9     7     8   ar
    10     8     6   ar
    11     6     5   ar
    12     5     1   ar
    13    14    15   ar
    14    15    16   ar
    15    16    17   ar
    16    17    19   ar
    17    19    18   ar
    18    18    14   ar
    19     3     4   ar
    20     4     9   ar
    21     9    10   ar
    22    10    12   ar
    23    12    11   ar
    24    11     3   ar
