@<TRIPOS>MOLECULE
No_1700-gen_results/8p0m/2024-11-27-11-27-31/
 11 11 0 0 0
SMALL
GASTEIGER

@<TRIPOS>ATOM
      1 C         -28.0162   -0.8135   28.8779 C.ar    1  UNL1       -0.0039
      2 C         -27.0636   -0.1189   28.6079 C.ar    1  UNL1       -0.0178
      3 C         -26.9716    0.7139   27.5060 C.3     1  UNL1        0.0523
      4 C         -25.8205    1.4910   27.1160 C.2     1  UNL1       -0.0214
      5 C         -24.6562    1.4242   27.9180 C.2     1  UNL1       -0.0042
      6 C         -23.4374    2.1089   27.6717 C.2     1  UNL1       -0.0003
      7 C         -23.4645    2.6967   26.3322 C.2     1  UNL1       -0.0000
      8 C         -28.0094   -1.6217   30.0916 C.ar    1  UNL1       -0.0003
      9 C         -26.7909   -1.7622   30.7852 C.ar    1  UNL1       -0.0000
     10 C         -25.6583   -1.1221   30.3821 C.ar    1  UNL1       -0.0003
     11 C         -25.7217   -0.2962   29.2879 C.ar    1  UNL1       -0.0039
@<TRIPOS>BOND
     1     2     3    1
     2     3     4    1
     3     4     5    2
     4     5     6    1
     5     6     7    2
     6     1     2   ar
     7     2    11   ar
     8    11    10   ar
     9    10     9   ar
    10     9     8   ar
    11     8     1   ar
