@<TRIPOS>MOLECULE
No_1705-gen_results/8p0m/2024-11-27-11-27-31/
 35 37 0 0 0
SMALL
GASTEIGER

@<TRIPOS>ATOM
      1 C         -28.0162   -0.8135   28.8779 C.3     1  UNL1        0.2063
      2 C         -28.4690   -0.7850   29.8287 C.3     1  UNL1        0.2159
      3 C         -26.5042   -0.7777   28.8766 C.3     1  UNL1        0.0479
      4 C         -25.8305   -1.6807   29.6849 C.3     1  UNL1        0.0154
      5 C         -28.1490   -1.8854   30.9031 C.3     1  UNL1        0.1007
      6 BR        -29.1487   -2.1008   32.4440 Br      1  UNL1       -0.0778
      7 C         -26.5949   -1.9747   30.9746 C.3     1  UNL1        0.0158
      8 O         -28.4321    0.3447   30.7057 O.2     1  UNL1       -0.4715
      9 C         -24.6437   -2.2771   29.4020 C.3     1  UNL1        0.1035
     10 C         -23.4790   -1.4442   29.3127 C.3     1  UNL1        0.0112
     11 C         -23.4458   -0.1160   29.7516 C.3     1  UNL1        0.0006
     12 C         -22.6359    0.7974   29.0370 C.3     1  UNL1        0.0004
     13 C         -23.0927    2.0514   28.5518 C.3     1  UNL1        0.0047
     14 C         -23.1742    2.0845   27.0791 C.3     1  UNL1        0.0264
     15 C         -24.4889    2.0462   26.5675 C.ar    1  UNL1       -0.0222
     16 C         -24.8259    0.8850   25.7706 C.ar    1  UNL1       -0.0043
     17 C         -24.5568   -3.6995   29.2528 C.2     1  UNL1        0.3643
     18 O         -28.3137    0.3789   28.0449 O.3     1  UNL1       -0.4754
     19 C         -26.1577    0.7094   25.4667 C.ar    1  UNL1       -0.0003
     20 C         -27.0786    1.6750   25.5628 C.ar    1  UNL1       -0.0000
     21 C         -26.7681    2.8826   26.2205 C.ar    1  UNL1       -0.0003
     22 C         -25.4604    3.0516   26.7688 C.ar    1  UNL1       -0.0043
     23 O         -25.3139   -4.4596   29.7234 O.co2   1  UNL1       -0.2457
     24 O         -23.4122   -4.2465   28.8455 O.co2   1  UNL1       -0.2457
     25 C         -29.6243    0.6951   27.8283 C.ar    1  UNL1        0.1386
     26 C         -30.5710   -0.0719   27.8997 C.ar    1  UNL1        0.0369
     27 C         -31.8291    0.3329   27.4130 C.ar    1  UNL1        0.0031
     28 C         -31.8635    1.5735   26.8787 C.ar    1  UNL1        0.0002
     29 C         -30.8409    2.4401   26.7145 C.ar    1  UNL1        0.0031
     30 C         -29.6626    2.0227   27.1930 C.ar    1  UNL1        0.0369
     31 C         -29.4959    1.0795   31.0428 C.2     1  UNL1        0.1722
     32 C         -29.3097    2.4389   30.9700 C.2     1  UNL1        0.0397
     33 C         -30.4420    3.3099   31.0232 C.2     1  UNL1       -0.0013
     34 C         -31.7025    2.7465   31.2953 C.2     1  UNL1       -0.0257
     35 C         -31.8078    1.3715   31.4705 C.3     1  UNL1        0.0307
@<TRIPOS>BOND
     1     1     2    1
     2     1     3    1
     3     3     4    1
     4     2     5    1
     5     5     6    1
     6     4     7    1
     7     5     7    1
     8     2     8    1
     9     4     9    1
    10     9    10    1
    11    10    11    1
    12    11    12    1
    13    12    13    1
    14    13    14    1
    15    14    15    1
    16     9    17    1
    17     1    18    1
    18    17    23   ar
    19    17    24   ar
    20    18    25    1
    21     8    31    1
    22    31    32    2
    23    32    33    1
    24    33    34    2
    25    34    35    1
    26    25    26   ar
    27    26    27   ar
    28    27    28   ar
    29    28    29   ar
    30    29    30   ar
    31    30    25   ar
    32    15    16   ar
    33    16    19   ar
    34    19    20   ar
    35    20    21   ar
    36    21    22   ar
    37    22    15   ar
