@<TRIPOS>MOLECULE
No_1706-gen_results/8p0m/2024-11-27-11-27-31/
 16 18 0 0 0
SMALL
GASTEIGER

@<TRIPOS>ATOM
      1 C         -28.0162   -0.8135   28.8779 C.ar    1  UNL1        0.0000
      2 C         -27.0636   -0.1189   28.6079 C.ar    1  UNL1        0.0000
      3 C         -25.7923   -0.4302   29.0761 C.ar    1  UNL1        0.0000
      4 C         -24.5456    0.3494   28.8225 C.ar    1  UNL1        0.0000
      5 C         -23.2409    0.0217   29.3323 C.ar    1  UNL1        0.0000
      6 C         -27.8820   -1.8995   29.8633 C.ar    1  UNL1        0.0000
      7 C         -26.6526   -2.3142   30.3138 C.ar    1  UNL1        0.0000
      8 C         -25.5153   -1.5607   29.9787 C.ar    1  UNL1        0.0000
      9 C         -23.2072   -1.2289   30.0311 C.ar    1  UNL1        0.0000
     10 C         -24.2434   -1.9361   30.3879 C.ar    1  UNL1        0.0000
     11 C         -24.5768    1.5651   27.9574 C.ar    1  UNL1        0.0000
     12 C         -24.7953    2.6978   28.5594 C.ar    1  UNL1        0.0000
     13 C         -25.0608    3.8596   27.7884 C.ar    1  UNL1        0.0000
     14 C         -23.9589    1.5606   26.7171 C.ar    1  UNL1        0.0000
     15 C         -24.0571    2.6361   25.8678 C.ar    1  UNL1        0.0000
     16 C         -24.5094    3.8746   26.4530 C.ar    1  UNL1        0.0000
@<TRIPOS>BOND
     1     4    11    1
     2     1     2   ar
     3     2     3   ar
     4     8     7   ar
     5     7     6   ar
     6     6     1   ar
     7     3     4   ar
     8     4     5   ar
     9     5     9   ar
    10     9    10   ar
    11    10     8   ar
    12     8     3   ar
    13    11    12   ar
    14    12    13   ar
    15    13    16   ar
    16    16    15   ar
    17    15    14   ar
    18    14    11   ar
