@<TRIPOS>MOLECULE
outputs/IAG933/test6/raw/output_1707_IAG933_linker_design_.xyz
 45 49 0 0 0
SMALL
GASTEIGER

@<TRIPOS>ATOM
      1 C         -24.8550   -1.0120   30.1430 C.3     1  UNL1        0.0968
      2 C         -24.9730   -2.5050   29.7880 C.2     1  UNL1       -0.0064
      3 C         -23.9060   -3.1730   29.1460 C.2     1  UNL1       -0.0029
      4 C         -23.9890   -4.5490   28.8530 C.2     1  UNL1       -0.0003
      5 C         -25.1370   -5.2800   29.2050 C.2     1  UNL1       -0.0000
      6 C         -26.2320   -4.6110   29.7840 C.2     1  UNL1       -0.0003
      7 C         -26.1550   -3.2320   30.0650 C.2     1  UNL1       -0.0029
      8 C         -25.3870   -0.6790   31.5710 C.3     1  UNL1        0.0916
      9 C         -25.1890    0.7730   32.0280 C.3     1  UNL1        0.0206
     10 C         -25.3360    0.6840   33.5440 C.3     1  UNL1        0.0203
     11 C         -24.8290   -0.7150   33.9050 C.3     1  UNL1        0.0888
     12 N         -24.7580   -1.4810   32.6460 N.3     1  UNL1       -0.2178
     13 C         -25.6880    1.6140   26.4610 C.3     1  UNL1        0.0758
     14 C         -26.2500    2.9200   26.3950 C.2     1  UNL1        0.0552
     15 C         -25.6420    4.0930   27.1230 C.2     1  UNL1        0.2625
     16 N         -25.6140    5.2520   26.4490 N.am    1  UNL1       -0.2000
     17 C         -25.0260    6.4790   26.9630 C.3     1  UNL1        0.1388
     18 O         -25.1430    3.9660   28.2430 O.2     1  UNL1       -0.2687
     19 C         -27.4380    3.0910   25.6450 C.2     1  UNL1        0.1021
     20 N         -28.0750    2.0890   25.0030 N.2     1  UNL1       -0.2119
     21 C         -27.5430    0.8490   25.0790 C.2     1  UNL1        0.2341
     22 O         -28.1930   -0.2080   24.4770 O.2     1  UNL1       -0.4585
     23 C         -29.4600    0.0050   23.8660 C.3     1  UNL1        0.2423
     24 C         -30.0650   -1.3770   23.5730 C.3     1  UNL1        0.2292
     25 O         -30.7290   -1.8780   24.7210 O.3     1  UNL1       -0.2162
     26 C         -26.3540    0.5760   25.7770 C.3     1  UNL1        0.2404
     27 F         -25.8600   -0.6810   25.7950 F       1  UNL1       -0.2269
     28 O         -23.1032    1.2448   24.8307 O.3     1  UNL1       -0.1793
     29 C         -23.3560    1.3129   27.0950 C.2     1  UNL1        0.0562
     30 C         -22.5698    0.9220   28.1887 C.2     1  UNL1        0.1796
     31 C         -28.5894    2.2701   29.2268 C.2     1  UNL1        0.1098
     32 F         -20.8879    2.6033   28.1630 F       1  UNL1        0.0135
     33 O         -21.1940    1.3432   28.0614 O.2     1  UNL1       -0.2955
     34 C         -22.6624    1.7505   25.9339 C.3     1  UNL1        0.3311
     35 C         -26.7590    0.8455   28.9036 C.2     1  UNL1        0.0738
     36 C         -27.5297   -0.1709   28.3029 C.2     1  UNL1        0.0170
     37 C         -25.4314    0.9390   28.7606 C.3     1  UNL1        0.1030
     38 N         -27.3429    1.8611   29.6306 N.2     1  UNL1       -0.2459
     39 C         -24.8168    1.1609   27.4093 C.3     1  UNL1        0.0541
     40 N         -24.3680   -0.0261   29.1869 N.3     1  UNL1       -0.2587
     41 CL        -30.9282    1.2412   27.6750 Cl      1  UNL1       -0.0806
     42 C         -29.3508    1.3396   28.4104 C.2     1  UNL1        0.0768
     43 C         -28.8812    0.1455   28.0021 C.2     1  UNL1        0.0142
     44 F         -21.6512    2.5611   25.8102 F       1  UNL1       -0.1962
     45 C         -23.0727    0.3638   29.2910 C.3     1  UNL1        0.1415
@<TRIPOS>BOND
     1     1     2    1
     2     2     7    1
     3     3     2    2
     4     4     3    1
     5     4     5    2
     6     5     6    1
     7     6     7    2
     8     8     1    1
     9     8     9    1
    10     8    12    1
    11     9    10    1
    12    10    11    1
    13    12    11    1
    14    13    14    1
    15    13    39    1
    16    14    15    1
    17    15    18    2
    18    16    17    1
    19    16    15    1
    20    19    14    2
    21    20    21    2
    22    20    19    1
    23    21    26    1
    24    22    21    1
    25    23    22    1
    26    24    23    1
    27    24    25    1
    28    26    27    1
    29    26    13    1
    30    29    30    2
    31    30    45    1
    32    31    38    1
    33    33    32    1
    34    33    30    1
    35    34    28    1
    36    34    29    1
    37    35    38    2
    38    36    35    1
    39    37    35    1
    40    37    40    1
    41    39    29    1
    42    39    37    1
    43    40    45    1
    44    40     1    1
    45    41    42    1
    46    42    31    2
    47    43    36    2
    48    43    42    1
    49    44    34    1
