@<TRIPOS>MOLECULE
outputs/IAG933/test6/raw/output_1708_IAG933_linker_design_.xyz
 44 49 0 0 0
SMALL
GASTEIGER

@<TRIPOS>ATOM
      1 C         -24.8550   -1.0120   30.1430 C.3     1  UNL1        0.0602
      2 C         -24.9730   -2.5050   29.7880 C.2     1  UNL1       -0.0194
      3 C         -23.9060   -3.1730   29.1460 C.2     1  UNL1       -0.0042
      4 C         -23.9890   -4.5490   28.8530 C.2     1  UNL1       -0.0003
      5 C         -25.1370   -5.2800   29.2050 C.2     1  UNL1       -0.0000
      6 C         -26.2320   -4.6110   29.7840 C.2     1  UNL1       -0.0003
      7 C         -26.1550   -3.2320   30.0650 C.2     1  UNL1       -0.0042
      8 C         -25.3870   -0.6790   31.5710 C.3     1  UNL1        0.0785
      9 C         -25.1890    0.7730   32.0280 C.3     1  UNL1        0.0192
     10 C         -25.3360    0.6840   33.5440 C.3     1  UNL1        0.0202
     11 C         -24.8290   -0.7150   33.9050 C.3     1  UNL1        0.0887
     12 N         -24.7580   -1.4810   32.6460 N.3     1  UNL1       -0.2191
     13 C         -25.6880    1.6140   26.4610 C.3     1  UNL1        0.0918
     14 C         -26.2500    2.9200   26.3950 C.2     1  UNL1        0.0589
     15 C         -25.6420    4.0930   27.1230 C.2     1  UNL1        0.2628
     16 N         -25.6140    5.2520   26.4490 N.am    1  UNL1       -0.2000
     17 C         -25.0260    6.4790   26.9630 C.3     1  UNL1        0.1388
     18 O         -25.1430    3.9660   28.2430 O.2     1  UNL1       -0.2686
     19 C         -27.4380    3.0910   25.6450 C.2     1  UNL1        0.1025
     20 N         -28.0750    2.0890   25.0030 N.2     1  UNL1       -0.2118
     21 C         -27.5430    0.8490   25.0790 C.2     1  UNL1        0.2344
     22 O         -28.1930   -0.2080   24.4770 O.2     1  UNL1       -0.4585
     23 C         -29.4600    0.0050   23.8660 C.3     1  UNL1        0.2423
     24 C         -30.0650   -1.3770   23.5730 C.3     1  UNL1        0.2292
     25 O         -30.7290   -1.8780   24.7210 O.3     1  UNL1       -0.2162
     26 C         -26.3540    0.5760   25.7770 C.3     1  UNL1        0.2440
     27 F         -25.8600   -0.6810   25.7950 F       1  UNL1       -0.2265
     28 C         -27.5978    2.9453   29.9292 C.2     1  UNL1        0.0288
     29 C         -29.4119    1.6382   30.9035 C.2     1  UNL1        0.0128
     30 C         -24.9479    0.8979   28.6094 C.3     1  UNL1        0.1355
     31 C         -27.0287    1.8174   29.4417 C.2     1  UNL1        0.0813
     32 N         -25.7284    1.9626   29.0348 N.pl3   1  UNL1       -0.2318
     33 C         -28.7102    2.8418   30.7878 C.2     1  UNL1        0.0590
     34 C         -25.6303   -0.1923   29.0821 C.3     1  UNL1        0.1217
     35 C         -22.3562    1.9154   26.0919 C.2     1  UNL1       -0.0240
     36 CL        -29.0123    4.2690   31.6342 Cl      1  UNL1       -0.0822
     37 C         -23.7543    1.6102   26.4421 C.2     1  UNL1       -0.0203
     38 C         -27.6981    0.5875   29.5179 C.2     1  UNL1        0.0801
     39 N         -22.0382    0.4135   29.3342 N.pl3   1  UNL1       -0.1327
     40 C         -22.4654    1.0042   28.1770 C.2     1  UNL1        0.0685
     41 C         -21.5739    1.5592   27.2064 C.3     1  UNL1        0.0701
     42 C         -28.9507    0.5040   30.1876 C.2     1  UNL1        0.0183
     43 N         -26.9275   -0.4511   29.0287 N.pl3   1  UNL1       -0.2356
     44 C         -23.8574    1.1188   27.8019 C.2     1  UNL1        0.0082
@<TRIPOS>BOND
     1     1     2    1
     2     2     7    1
     3     3     2    2
     4     4     3    1
     5     4     5    2
     6     5     6    1
     7     6     7    2
     8     8     1    1
     9     8     9    1
    10     8    12    1
    11     9    10    1
    12    10    11    1
    13    12    11    1
    14    13    37    1
    15    14    13    1
    16    14    15    1
    17    15    18    2
    18    16    17    1
    19    16    15    1
    20    19    14    2
    21    20    21    2
    22    20    19    1
    23    21    26    1
    24    22    21    1
    25    23    22    1
    26    24    23    1
    27    24    25    1
    28    26    27    1
    29    26    13    1
    30    28    33    1
    31    30    44    1
    32    30    32    1
    33    30    34    1
    34    31    38    1
    35    31    28    2
    36    32    31    1
    37    33    29    2
    38    33    36    1
    39    34     1    1
    40    35    37    2
    41    35    41    1
    42    37    44    1
    43    38    42    2
    44    40    39    1
    45    41    40    1
    46    42    29    1
    47    43    34    1
    48    43    38    1
    49    44    40    2
