@<TRIPOS>MOLECULE
outputs/IAG933/test6/raw/output_1712_IAG933_linker_design_.xyz
 42 45 0 0 0
SMALL
GASTEIGER

@<TRIPOS>ATOM
      1 C         -24.8550   -1.0120   30.1430 C.3     1  UNL1        0.0760
      2 C         -24.9730   -2.5050   29.7880 C.2     1  UNL1       -0.0158
      3 C         -23.9060   -3.1730   29.1460 C.2     1  UNL1       -0.0039
      4 C         -23.9890   -4.5490   28.8530 C.2     1  UNL1       -0.0003
      5 C         -25.1370   -5.2800   29.2050 C.2     1  UNL1       -0.0000
      6 C         -26.2320   -4.6110   29.7840 C.2     1  UNL1       -0.0003
      7 C         -26.1550   -3.2320   30.0650 C.2     1  UNL1       -0.0039
      8 C         -25.3870   -0.6790   31.5710 C.3     1  UNL1        0.0822
      9 C         -25.1890    0.7730   32.0280 C.3     1  UNL1        0.0196
     10 C         -25.3360    0.6840   33.5440 C.3     1  UNL1        0.0203
     11 C         -24.8290   -0.7150   33.9050 C.3     1  UNL1        0.0887
     12 N         -24.7580   -1.4810   32.6460 N.3     1  UNL1       -0.2188
     13 C         -25.6880    1.6140   26.4610 C.2     1  UNL1        0.0226
     14 C         -26.2500    2.9200   26.3950 C.2     1  UNL1        0.0730
     15 C         -25.6420    4.0930   27.1230 C.2     1  UNL1        0.2661
     16 N         -25.6140    5.2520   26.4490 N.am    1  UNL1       -0.1997
     17 C         -25.0260    6.4790   26.9630 C.3     1  UNL1        0.1388
     18 O         -25.1430    3.9660   28.2430 O.2     1  UNL1       -0.2683
     19 C         -27.4380    3.0910   25.6450 C.2     1  UNL1        0.1064
     20 N         -28.0750    2.0890   25.0030 N.2     1  UNL1       -0.2081
     21 C         -27.5430    0.8490   25.0790 C.2     1  UNL1        0.2530
     22 O         -28.1930   -0.2080   24.4770 O.2     1  UNL1       -0.4558
     23 C         -29.4600    0.0050   23.8660 C.3     1  UNL1        0.2426
     24 C         -30.0650   -1.3770   23.5730 C.3     1  UNL1        0.2292
     25 O         -30.7290   -1.8780   24.7210 O.3     1  UNL1       -0.2162
     26 C         -26.3540    0.5760   25.7770 C.2     1  UNL1        0.1895
     27 F         -25.8600   -0.6810   25.7950 F       1  UNL1       -0.1996
     28 C         -29.5192    0.0048   28.7033 C.3     1  UNL1        0.2574
     29 F         -21.6045    2.4435   25.2527 F       1  UNL1       -0.2218
     30 C         -23.4864    1.5699   26.1325 C.3     1  UNL1        0.2122
     31 F         -23.7359    1.4928   24.7578 F       1  UNL1       -0.2326
     32 C         -25.1236    0.1747   29.1632 C.2     1  UNL1        0.0585
     33 C         -24.4122    1.3069   26.9533 C.3     1  UNL1        0.0871
     34 C         -22.8235    1.0318   28.7908 C.2     1  UNL1        0.1655
     35 S         -21.5645    1.8113   27.8474 S.3     1  UNL1       -0.0480
     36 C         -22.2691    1.9597   26.3175 C.3     1  UNL1        0.2473
     37 N         -26.3651    0.6899   29.1760 N.am    1  UNL1       -0.1467
     38 F         -22.3889    0.5424   30.0011 F       1  UNL1       -0.1976
     39 O         -28.0431    1.5803   30.3771 O.2     1  UNL1       -0.2242
     40 O         -28.3381   -0.4873   29.3570 O.3     1  UNL1       -0.4292
     41 C         -27.5544    0.6089   29.7418 C.2     1  UNL1        0.4252
     42 C         -24.1217    0.8166   28.3155 C.2     1  UNL1        0.0296
@<TRIPOS>BOND
     1     1    32    1
     2     2     7    1
     3     2     1    1
     4     3     2    2
     5     4     3    1
     6     4     5    2
     7     5     6    1
     8     6     7    2
     9     8     1    1
    10     8     9    1
    11     8    12    1
    12     9    10    1
    13    10    11    1
    14    12    11    1
    15    14    13    1
    16    14    15    1
    17    15    18    2
    18    16    17    1
    19    16    15    1
    20    19    14    2
    21    20    21    2
    22    20    19    1
    23    21    26    1
    24    22    21    1
    25    23    22    1
    26    24    23    1
    27    24    25    1
    28    26    27    1
    29    26    13    2
    30    28    40    1
    31    30    31    1
    32    30    36    1
    33    30    33    1
    34    32    37    2
    35    33    13    1
    36    33    42    1
    37    34    38    1
    38    35    34    1
    39    36    29    1
    40    36    35    1
    41    37    41    1
    42    40    41    1
    43    41    39    2
    44    42    34    2
    45    42    32    1
