@<TRIPOS>MOLECULE
No_1713-gen_results/8p0m/2024-11-27-11-27-31/
 15 16 0 0 0
SMALL
GASTEIGER

@<TRIPOS>ATOM
      1 N         -28.0544   -1.0498   28.7246 N.pl3   1  UNL1       -0.2345
      2 C         -26.9659   -0.4722   28.7709 C.ar    1  UNL1        0.0786
      3 C         -25.9289   -1.0196   29.5059 C.ar    1  UNL1        0.0173
      4 C         -24.5844   -0.4437   29.6599 C.ar    1  UNL1        0.0053
      5 C         -24.3615    0.7792   28.9691 C.ar    1  UNL1        0.0727
      6 C         -25.4238    1.3029   28.1832 C.ar    1  UNL1        0.0197
      7 C         -26.6399    0.7108   28.0777 C.ar    1  UNL1        0.0629
      8 C         -29.0999   -0.1860   28.8595 C.3     1  UNL1        0.1336
      9 C         -29.2680    0.6529   27.8073 C.3     1  UNL1        0.1142
     10 N         -27.9607    1.4309   27.6556 N.pl3   1  UNL1       -0.3030
     11 C         -27.7691    2.6527   26.9503 C.3     1  UNL1        0.1123
     12 C         -23.0252    1.3299   28.9815 C.3     1  UNL1        0.4186
     13 F         -22.4514    1.3978   30.0721 F       1  UNL1       -0.1659
     14 F         -23.0072    2.6339   28.5342 F       1  UNL1       -0.1659
     15 F         -22.1386    0.7089   28.1694 F       1  UNL1       -0.1659
@<TRIPOS>BOND
     1     1     2    1
     2     1     8    1
     3     8     9    1
     4     7    10    1
     5     9    10    1
     6    10    11    1
     7     5    12    1
     8    12    13    1
     9    12    14    1
    10    12    15    1
    11     2     3   ar
    12     3     4   ar
    13     4     5   ar
    14     5     6   ar
    15     6     7   ar
    16     7     2   ar
