@<TRIPOS>MOLECULE
outputs/IAG933/test6/raw/output_1715_IAG933_linker_design_.xyz
 41 44 0 0 0
SMALL
GASTEIGER

@<TRIPOS>ATOM
      1 C         -24.8550   -1.0120   30.1430 C.3     1  UNL1        0.0532
      2 C         -24.9730   -2.5050   29.7880 C.2     1  UNL1       -0.0203
      3 C         -23.9060   -3.1730   29.1460 C.2     1  UNL1       -0.0042
      4 C         -23.9890   -4.5490   28.8530 C.2     1  UNL1       -0.0003
      5 C         -25.1370   -5.2800   29.2050 C.2     1  UNL1       -0.0000
      6 C         -26.2320   -4.6110   29.7840 C.2     1  UNL1       -0.0003
      7 C         -26.1550   -3.2320   30.0650 C.2     1  UNL1       -0.0042
      8 C         -25.3870   -0.6790   31.5710 C.3     1  UNL1        0.0777
      9 C         -25.1890    0.7730   32.0280 C.3     1  UNL1        0.0192
     10 C         -25.3360    0.6840   33.5440 C.3     1  UNL1        0.0202
     11 C         -24.8290   -0.7150   33.9050 C.3     1  UNL1        0.0887
     12 N         -24.7580   -1.4810   32.6460 N.3     1  UNL1       -0.2191
     13 C         -25.6880    1.6140   26.4610 C.2     1  UNL1        0.0410
     14 C         -26.2500    2.9200   26.3950 C.2     1  UNL1        0.0766
     15 C         -25.6420    4.0930   27.1230 C.2     1  UNL1        0.2664
     16 N         -25.6140    5.2520   26.4490 N.am    1  UNL1       -0.1997
     17 C         -25.0260    6.4790   26.9630 C.3     1  UNL1        0.1388
     18 O         -25.1430    3.9660   28.2430 O.2     1  UNL1       -0.2683
     19 C         -27.4380    3.0910   25.6450 C.2     1  UNL1        0.1067
     20 N         -28.0750    2.0890   25.0030 N.2     1  UNL1       -0.2081
     21 C         -27.5430    0.8490   25.0790 C.2     1  UNL1        0.2533
     22 O         -28.1930   -0.2080   24.4770 O.2     1  UNL1       -0.4558
     23 C         -29.4600    0.0050   23.8660 C.3     1  UNL1        0.2426
     24 C         -30.0650   -1.3770   23.5730 C.3     1  UNL1        0.2292
     25 O         -30.7290   -1.8780   24.7210 O.3     1  UNL1       -0.2162
     26 C         -26.3540    0.5760   25.7770 C.2     1  UNL1        0.1931
     27 F         -25.8600   -0.6810   25.7950 F       1  UNL1       -0.1992
     28 O         -23.6045    2.9093   25.2619 O.2     1  UNL1       -0.2842
     29 F         -21.1420    1.8634   25.6687 F       1  UNL1       -0.2007
     30 N         -22.1544   -1.1623   28.9484 N.3     1  UNL1        0.1108
     31 C         -24.3920    1.4092   27.0448 C.2     1  UNL1        0.0433
     32 C         -23.3551    2.0362   26.3151 C.2     1  UNL1        0.2228
     33 C         -22.0542    1.7888   26.6479 C.2     1  UNL1        0.1819
     34 O         -27.5870   -0.6421   28.8927 O.co2   1  UNL1       -0.2453
     35 O         -26.6614    1.2697   29.6840 O.co2   1  UNL1       -0.2453
     36 C         -24.0998    0.7719   28.2215 C.2     1  UNL1        0.0285
     37 O         -22.3992   -0.1079   29.6305 O.2     1  UNL1       -0.3657
     38 C         -26.6225    0.1555   29.1222 C.2     1  UNL1        0.3688
     39 C         -21.7523    1.3652   27.9208 C.2     1  UNL1        0.0721
     40 C         -25.1659   -0.2242   28.8016 C.3     1  UNL1        0.1340
     41 C         -22.7012    0.8027   28.6247 C.2     1  UNL1        0.1679
@<TRIPOS>BOND
     1     1    40    1
     2     2     7    1
     3     2     1    1
     4     3     2    2
     5     4     3    1
     6     4     5    2
     7     5     6    1
     8     6     7    2
     9     8     1    1
    10     8     9    1
    11     8    12    1
    12     9    10    1
    13    10    11    1
    14    12    11    1
    15    13    31    1
    16    14    13    1
    17    14    15    1
    18    15    18    2
    19    16    17    1
    20    16    15    1
    21    19    14    2
    22    20    21    2
    23    20    19    1
    24    21    26    1
    25    22    21    1
    26    23    22    1
    27    24    23    1
    28    24    25    1
    29    26    27    1
    30    26    13    2
    31    28    32    1
    32    29    33    1
    33    30    37    1
    34    31    36    1
    35    32    33    1
    36    32    31    2
    37    33    39    2
    38    34    38   ar
    39    36    41    2
    40    36    40    1
    41    38    35   ar
    42    39    41    1
    43    40    38    1
    44    41    37    1
