@<TRIPOS>MOLECULE
outputs/IAG933/test6/raw/output_1716_IAG933_linker_design_.xyz
 42 47 0 0 0
SMALL
GASTEIGER

@<TRIPOS>ATOM
      1 C         -24.8550   -1.0120   30.1430 C.3     1  UNL1        0.1548
      2 C         -24.9730   -2.5050   29.7880 C.2     1  UNL1        0.0060
      3 C         -23.9060   -3.1730   29.1460 C.2     1  UNL1       -0.0019
      4 C         -23.9890   -4.5490   28.8530 C.2     1  UNL1       -0.0002
      5 C         -25.1370   -5.2800   29.2050 C.2     1  UNL1       -0.0000
      6 C         -26.2320   -4.6110   29.7840 C.2     1  UNL1       -0.0002
      7 C         -26.1550   -3.2320   30.0650 C.2     1  UNL1       -0.0019
      8 C         -25.3870   -0.6790   31.5710 C.3     1  UNL1        0.1041
      9 C         -25.1890    0.7730   32.0280 C.3     1  UNL1        0.0217
     10 C         -25.3360    0.6840   33.5440 C.3     1  UNL1        0.0203
     11 C         -24.8290   -0.7150   33.9050 C.3     1  UNL1        0.0888
     12 N         -24.7580   -1.4810   32.6460 N.3     1  UNL1       -0.2166
     13 C         -25.6880    1.6140   26.4610 C.2     1  UNL1        0.0207
     14 C         -26.2500    2.9200   26.3950 C.2     1  UNL1        0.0706
     15 C         -25.6420    4.0930   27.1230 C.2     1  UNL1        0.2243
     16 N         -25.6140    5.2520   26.4490 N.2     1  UNL1       -0.2356
     17 C         -25.0260    6.4790   26.9630 C.3     1  UNL1        0.1550
     18 O         -25.1430    3.9660   28.2430 O.2     1  UNL1       -0.4268
     19 C         -27.4380    3.0910   25.6450 C.2     1  UNL1        0.1065
     20 N         -28.0750    2.0890   25.0030 N.2     1  UNL1       -0.2081
     21 C         -27.5430    0.8490   25.0790 C.2     1  UNL1        0.2530
     22 O         -28.1930   -0.2080   24.4770 O.2     1  UNL1       -0.4558
     23 C         -29.4600    0.0050   23.8660 C.3     1  UNL1        0.2426
     24 C         -30.0650   -1.3770   23.5730 C.3     1  UNL1        0.2292
     25 O         -30.7290   -1.8780   24.7210 O.3     1  UNL1       -0.2162
     26 C         -26.3540    0.5760   25.7770 C.2     1  UNL1        0.1893
     27 F         -25.8600   -0.6810   25.7950 F       1  UNL1       -0.1996
     28 C         -22.5067    1.9229   25.6984 C.3     1  UNL1        0.1602
     29 N         -22.4800    1.3272   27.9971 N.3     1  UNL1       -0.2425
     30 C         -25.5583    3.5761   29.5483 C.3     1  UNL1        0.3984
     31 N         -27.9081    2.8207   30.0252 N.3     1  UNL1        0.0396
     32 C         -21.2024    2.0331   27.6905 C.3     1  UNL1        0.2201
     33 O         -21.1750    2.0183   26.2602 O.3     1  UNL1       -0.3359
     34 C         -24.7255    1.2259   28.7037 C.3     1  UNL1        0.1772
     35 O         -27.4566    5.1083   30.0252 O.2     1  UNL1       -0.1498
     36 C         -23.2097    1.2002   26.7911 C.3     1  UNL1        0.0972
     37 S         -26.9173    3.8561   30.4824 S.O2    1  UNL1        0.1282
     38 N         -25.6585    2.0797   29.4599 N.3     1  UNL1       -0.1319
     39 O         -26.7502    3.8747   31.9031 O.2     1  UNL1       -0.1498
     40 O         -24.8221   -0.1487   29.1121 O.3     1  UNL1       -0.3382
     41 C         -24.5613    1.3303   27.2170 C.3     1  UNL1        0.0840
     42 C         -23.2236    1.7952   29.0929 C.3     1  UNL1        0.1192
@<TRIPOS>BOND
     1     1    40    1
     2     2     7    1
     3     2     1    1
     4     3     2    2
     5     4     3    1
     6     4     5    2
     7     5     6    1
     8     6     7    2
     9     8     1    1
    10     8     9    1
    11     8    12    1
    12     9    10    1
    13    10    11    1
    14    12    11    1
    15    14    13    1
    16    14    15    1
    17    15    18    1
    18    16    17    1
    19    16    15    2
    20    18    30    1
    21    19    14    2
    22    20    21    2
    23    20    19    1
    24    21    26    1
    25    22    21    1
    26    23    22    1
    27    24    23    1
    28    24    25    1
    29    26    27    1
    30    26    13    2
    31    28    33    1
    32    29    32    1
    33    29    42    1
    34    30    37    1
    35    31    37    1
    36    33    32    1
    37    34    42    1
    38    34    40    1
    39    34    38    1
    40    35    37    2
    41    36    28    1
    42    36    41    1
    43    36    29    1
    44    37    39    2
    45    38    30    1
    46    41    13    1
    47    41    34    1
