@<TRIPOS>MOLECULE
outputs/IAG933/test6/raw/output_1717_IAG933_linker_design_.xyz
 40 42 0 0 0
SMALL
GASTEIGER

@<TRIPOS>ATOM
      1 C         -24.8550   -1.0120   30.1430 C.3     1  UNL1        0.1334
      2 C         -24.9730   -2.5050   29.7880 C.2     1  UNL1       -0.0012
      3 C         -23.9060   -3.1730   29.1460 C.2     1  UNL1       -0.0026
      4 C         -23.9890   -4.5490   28.8530 C.2     1  UNL1       -0.0003
      5 C         -25.1370   -5.2800   29.2050 C.2     1  UNL1       -0.0000
      6 C         -26.2320   -4.6110   29.7840 C.2     1  UNL1       -0.0003
      7 C         -26.1550   -3.2320   30.0650 C.2     1  UNL1       -0.0026
      8 C         -25.3870   -0.6790   31.5710 C.3     1  UNL1        0.0969
      9 C         -25.1890    0.7730   32.0280 C.3     1  UNL1        0.0210
     10 C         -25.3360    0.6840   33.5440 C.3     1  UNL1        0.0203
     11 C         -24.8290   -0.7150   33.9050 C.3     1  UNL1        0.0888
     12 N         -24.7580   -1.4810   32.6460 N.3     1  UNL1       -0.2174
     13 C         -25.6880    1.6140   26.4610 C.2     1  UNL1        0.0164
     14 C         -26.2500    2.9200   26.3950 C.2     1  UNL1        0.0726
     15 C         -25.6420    4.0930   27.1230 C.2     1  UNL1        0.2661
     16 N         -25.6140    5.2520   26.4490 N.am    1  UNL1       -0.1997
     17 C         -25.0260    6.4790   26.9630 C.3     1  UNL1        0.1388
     18 O         -25.1430    3.9660   28.2430 O.2     1  UNL1       -0.2683
     19 C         -27.4380    3.0910   25.6450 C.2     1  UNL1        0.1064
     20 N         -28.0750    2.0890   25.0030 N.2     1  UNL1       -0.2081
     21 C         -27.5430    0.8490   25.0790 C.2     1  UNL1        0.2530
     22 O         -28.1930   -0.2080   24.4770 O.2     1  UNL1       -0.4558
     23 C         -29.4600    0.0050   23.8660 C.3     1  UNL1        0.2426
     24 C         -30.0650   -1.3770   23.5730 C.3     1  UNL1        0.2292
     25 O         -30.7290   -1.8780   24.7210 O.3     1  UNL1       -0.2162
     26 C         -26.3540    0.5760   25.7770 C.2     1  UNL1        0.1891
     27 F         -25.8600   -0.6810   25.7950 F       1  UNL1       -0.1996
     28 C         -23.4853    1.1631   26.9856 C.3     1  UNL1        0.1143
     29 O         -21.2449    2.0255   26.9694 O.3     1  UNL1       -0.4485
     30 O         -24.1005   -1.2995   27.5036 O.2     1  UNL1       -0.2706
     31 C         -22.8766    0.1281   29.0667 C.3     1  UNL1        0.2292
     32 C         -21.5303   -0.4883   29.2363 C.3     1  UNL1        0.0463
     33 N         -25.0543   -0.0710   29.2585 N.am    1  UNL1       -0.1991
     34 C         -22.7114    2.2461   26.5816 C.2     1  UNL1        0.3173
     35 C         -20.4011    0.0169   28.3352 C.3     1  UNL1        0.0506
     36 C         -20.7278    0.9659   27.5603 C.3     1  UNL1        0.2085
     37 C         -24.7273    1.4216   27.3295 C.3     1  UNL1        0.0406
     38 C         -23.8666   -0.6010   28.5185 C.2     1  UNL1        0.2721
     39 O         -23.0194    1.3709   29.4218 O.3     1  UNL1       -0.2132
     40 O         -22.9917    3.0057   25.7039 O.2     1  UNL1       -0.2501
@<TRIPOS>BOND
     1     1    33    1
     2     2     7    1
     3     2     1    1
     4     3     2    2
     5     4     3    1
     6     4     5    2
     7     5     6    1
     8     6     7    2
     9     8     1    1
    10     8     9    1
    11     8    12    1
    12     9    10    1
    13    10    11    1
    14    12    11    1
    15    13    37    1
    16    14    13    1
    17    14    15    1
    18    15    18    2
    19    16    17    1
    20    16    15    1
    21    19    14    2
    22    20    21    2
    23    20    19    1
    24    21    26    1
    25    22    21    1
    26    23    22    1
    27    24    23    1
    28    24    25    1
    29    26    27    1
    30    26    13    2
    31    28    37    1
    32    29    36    1
    33    30    38    2
    34    31    32    1
    35    31    39    1
    36    34    29    1
    37    34    28    1
    38    35    32    1
    39    36    35    1
    40    38    31    1
    41    38    33    1
    42    40    34    2
