@<TRIPOS>MOLECULE
No_1723-gen_results/8p0m/2024-11-27-11-27-31/
 18 20 0 0 0
SMALL
GASTEIGER

@<TRIPOS>ATOM
      1 C         -28.0162   -0.8135   28.8779 C.ar    1  UNL1       -0.0001
      2 C         -27.0636   -0.1189   28.6079 C.ar    1  UNL1        0.0039
      3 C         -25.7923   -0.4302   29.0761 C.ar    1  UNL1       -0.0000
      4 C         -25.5756   -1.5654   29.9363 C.ar    1  UNL1       -0.0000
      5 C         -26.7354   -2.3004   30.2173 C.ar    1  UNL1       -0.0000
      6 C         -27.9184   -1.9537   29.7629 C.ar    1  UNL1       -0.0000
      7 C         -27.1057    1.1023   27.7593 C.ar    1  UNL1        0.0714
      8 C         -26.1219    1.4820   27.0232 C.ar    1  UNL1        0.0039
      9 C         -24.7142    1.1299   27.4889 C.ar    1  UNL1       -0.0001
     10 C         -24.5718    0.0966   28.4066 C.ar    1  UNL1       -0.0000
     11 C         -23.5476    1.7679   26.9015 C.ar    1  UNL1       -0.0000
     12 C         -22.3959    1.9123   27.7199 C.ar    1  UNL1       -0.0000
     13 C         -22.1510    0.9229   28.7176 C.ar    1  UNL1       -0.0000
     14 C         -23.3115   -0.4163   28.5536 C.ar    1  UNL1       -0.0000
     15 C         -28.4655    1.6685   27.5826 C.3     1  UNL1        0.4186
     16 F         -28.6080    2.0857   26.4583 F       1  UNL1       -0.1659
     17 F         -29.4256    0.8097   27.8496 F       1  UNL1       -0.1659
     18 F         -28.5537    2.7045   28.4579 F       1  UNL1       -0.1659
@<TRIPOS>BOND
     1     7    15    1
     2    15    16    1
     3    15    17    1
     4    15    18    1
     5     1     2   ar
     6     3     4   ar
     7     4     5   ar
     8     5     6   ar
     9     6     1   ar
    10     2     3   ar
    11     3    10   ar
    12     9     8   ar
    13     8     7   ar
    14     7     2   ar
    15     9    10   ar
    16    10    14   ar
    17    14    13   ar
    18    13    12   ar
    19    12    11   ar
    20    11     9   ar
