@<TRIPOS>MOLECULE
No_1724-gen_results/8p0m/2024-11-27-11-27-31/
 9 9 0 0 0
SMALL
GASTEIGER

@<TRIPOS>ATOM
      1 C         -28.0162   -0.8135   28.8779 C.3     1  UNL1        0.0468
      2 C         -27.0636   -0.1189   28.6079 C.ar    1  UNL1       -0.0207
      3 C         -26.8756    1.1325   28.9134 C.ar    1  UNL1       -0.0042
      4 C         -25.6883    1.9515   28.5672 C.ar    1  UNL1       -0.0003
      5 C         -24.6394    1.2834   27.8753 C.ar    1  UNL1       -0.0000
      6 C         -24.8068   -0.0513   27.6040 C.ar    1  UNL1       -0.0003
      7 C         -25.9019   -0.7670   27.9511 C.ar    1  UNL1       -0.0042
      8 C         -28.0678   -1.4475   30.2707 C.3     1  UNL1        0.1140
      9 N         -27.0781   -1.6642   30.8450 N.3     1  UNL1       -0.1310
@<TRIPOS>BOND
     1     1     8    1
     2     8     9    1
     3     1     2    1
     4     2     3   ar
     5     3     4   ar
     6     4     5   ar
     7     5     6   ar
     8     6     7   ar
     9     7     2   ar
