@<TRIPOS>MOLECULE
outputs/IAG933/test6/raw/output_1727_IAG933_linker_design_.xyz
 44 49 0 0 0
SMALL
GASTEIGER

@<TRIPOS>ATOM
      1 C         -24.8550   -1.0120   30.1430 C.3     1  UNL1        0.0618
      2 C         -24.9730   -2.5050   29.7880 C.2     1  UNL1       -0.0194
      3 C         -23.9060   -3.1730   29.1460 C.2     1  UNL1       -0.0042
      4 C         -23.9890   -4.5490   28.8530 C.2     1  UNL1       -0.0003
      5 C         -25.1370   -5.2800   29.2050 C.2     1  UNL1       -0.0000
      6 C         -26.2320   -4.6110   29.7840 C.2     1  UNL1       -0.0003
      7 C         -26.1550   -3.2320   30.0650 C.2     1  UNL1       -0.0042
      8 C         -25.3870   -0.6790   31.5710 C.3     1  UNL1        0.0848
      9 C         -25.1890    0.7730   32.0280 C.3     1  UNL1        0.0891
     10 C         -25.3360    0.6840   33.5440 C.3     1  UNL1        0.0267
     11 C         -24.8290   -0.7150   33.9050 C.3     1  UNL1        0.0889
     12 N         -24.7580   -1.4810   32.6460 N.3     1  UNL1       -0.2188
     13 C         -25.6880    1.6140   26.4610 C.2     1  UNL1        0.0161
     14 C         -26.2500    2.9200   26.3950 C.2     1  UNL1        0.0726
     15 C         -25.6420    4.0930   27.1230 C.2     1  UNL1        0.2661
     16 N         -25.6140    5.2520   26.4490 N.am    1  UNL1       -0.1997
     17 C         -25.0260    6.4790   26.9630 C.3     1  UNL1        0.1388
     18 O         -25.1430    3.9660   28.2430 O.2     1  UNL1       -0.2683
     19 C         -27.4380    3.0910   25.6450 C.2     1  UNL1        0.1064
     20 N         -28.0750    2.0890   25.0030 N.2     1  UNL1       -0.2081
     21 C         -27.5430    0.8490   25.0790 C.2     1  UNL1        0.2530
     22 O         -28.1930   -0.2080   24.4770 O.2     1  UNL1       -0.4558
     23 C         -29.4600    0.0050   23.8660 C.3     1  UNL1        0.2426
     24 C         -30.0650   -1.3770   23.5730 C.3     1  UNL1        0.2292
     25 O         -30.7290   -1.8780   24.7210 O.3     1  UNL1       -0.2162
     26 C         -26.3540    0.5760   25.7770 C.2     1  UNL1        0.1891
     27 F         -25.8600   -0.6810   25.7950 F       1  UNL1       -0.1996
     28 O         -25.9430   -1.0011   27.8920 O.2     1  UNL1       -0.2946
     29 C         -24.1276    0.0202   27.2758 C.3     1  UNL1        0.0659
     30 C         -21.6286    1.1797   28.7269 C.3     1  UNL1        0.1423
     31 C         -22.8023    0.8532   28.9099 C.3     1  UNL1        0.0352
     32 C         -24.6858    4.2483   32.6227 C.3     1  UNL1        0.1782
     33 O         -26.4793    2.9598   31.6863 O.3     1  UNL1       -0.1758
     34 C         -25.3277    2.1932   31.3486 C.3     1  UNL1        0.2858
     35 C         -25.4270   -0.1007   28.1347 C.2     1  UNL1        0.1668
     36 O         -23.4859    3.1282   25.2107 O.3     1  UNL1       -0.2177
     37 O         -21.3556    1.9446   27.4974 O.3     1  UNL1       -0.3535
     38 C         -25.3382    0.3027   29.6688 C.3     1  UNL1        0.1399
     39 C         -23.4395    1.0919   27.5005 C.3     1  UNL1        0.0411
     40 C         -24.4572    1.3450   27.0104 C.3     1  UNL1        0.0347
     41 O         -24.3528    3.0608   31.8223 O.3     1  UNL1       -0.3170
     42 C         -22.4186    1.8053   26.7973 C.3     1  UNL1        0.1487
     43 C         -22.5668    2.1433   25.3584 C.3     1  UNL1        0.2114
     44 N         -25.1949    1.8291   29.9831 N.3     1  UNL1       -0.1617
@<TRIPOS>BOND
     1     1     2    1
     2     1     8    1
     3     2     7    1
     4     3     2    2
     5     4     3    1
     6     4     5    2
     7     5     6    1
     8     6     7    2
     9     8     9    1
    10     8    12    1
    11     9    10    1
    12    10    11    1
    13    12    11    1
    14    14    13    1
    15    14    15    1
    16    15    18    2
    17    16    17    1
    18    16    15    1
    19    19    14    2
    20    20    21    2
    21    20    19    1
    22    21    26    1
    23    22    21    1
    24    23    22    1
    25    24    23    1
    26    24    25    1
    27    26    27    1
    28    26    13    2
    29    28    35    2
    30    29    39    1
    31    29    35    1
    32    30    31    1
    33    34    33    1
    34    34    41    1
    35    34     9    1
    36    36    43    1
    37    37    30    1
    38    38    35    1
    39    38    44    1
    40    38     1    1
    41    39    31    1
    42    40    13    1
    43    40    29    1
    44    40    39    1
    45    41    32    1
    46    42    43    1
    47    42    37    1
    48    42    39    1
    49    44    34    1
