@<TRIPOS>MOLECULE
outputs/IAG933/test6/raw/output_1733_IAG933_linker_design_.xyz
 46 50 0 0 0
SMALL
GASTEIGER

@<TRIPOS>ATOM
      1 C         -24.8550   -1.0120   30.1430 C.3     1  UNL1        0.1250
      2 C         -24.9730   -2.5050   29.7880 C.2     1  UNL1       -0.0004
      3 C         -23.9060   -3.1730   29.1460 C.2     1  UNL1       -0.0024
      4 C         -23.9890   -4.5490   28.8530 C.2     1  UNL1       -0.0003
      5 C         -25.1370   -5.2800   29.2050 C.2     1  UNL1       -0.0000
      6 C         -26.2320   -4.6110   29.7840 C.2     1  UNL1       -0.0003
      7 C         -26.1550   -3.2320   30.0650 C.2     1  UNL1       -0.0024
      8 C         -25.3870   -0.6790   31.5710 C.3     1  UNL1        0.0977
      9 C         -25.1890    0.7730   32.0280 C.3     1  UNL1        0.0211
     10 C         -25.3360    0.6840   33.5440 C.3     1  UNL1        0.0203
     11 C         -24.8290   -0.7150   33.9050 C.3     1  UNL1        0.0888
     12 N         -24.7580   -1.4810   32.6460 N.3     1  UNL1       -0.2172
     13 C         -25.6880    1.6140   26.4610 C.3     1  UNL1        0.0951
     14 C         -26.2500    2.9200   26.3950 C.2     1  UNL1        0.0590
     15 C         -25.6420    4.0930   27.1230 C.2     1  UNL1        0.2628
     16 N         -25.6140    5.2520   26.4490 N.am    1  UNL1       -0.2000
     17 C         -25.0260    6.4790   26.9630 C.3     1  UNL1        0.1388
     18 O         -25.1430    3.9660   28.2430 O.2     1  UNL1       -0.2686
     19 C         -27.4380    3.0910   25.6450 C.2     1  UNL1        0.1025
     20 N         -28.0750    2.0890   25.0030 N.2     1  UNL1       -0.2118
     21 C         -27.5430    0.8490   25.0790 C.2     1  UNL1        0.2344
     22 O         -28.1930   -0.2080   24.4770 O.2     1  UNL1       -0.4585
     23 C         -29.4600    0.0050   23.8660 C.3     1  UNL1        0.2423
     24 C         -30.0650   -1.3770   23.5730 C.3     1  UNL1        0.2292
     25 O         -30.7290   -1.8780   24.7210 O.3     1  UNL1       -0.2162
     26 C         -26.3540    0.5760   25.7770 C.3     1  UNL1        0.2441
     27 F         -25.8600   -0.6810   25.7950 F       1  UNL1       -0.2265
     28 C         -25.0681    1.1571   27.5011 C.ar    1  UNL1        0.0187
     29 C         -23.6936    1.2335   27.6384 C.ar    1  UNL1        0.0276
     30 C         -29.3628    0.9778   29.9191 C.3     1  UNL1        0.2210
     31 C         -25.7708    0.2570   28.3471 C.ar    1  UNL1        0.1318
     32 O         -28.9614   -1.4225   29.3179 O.2     1  UNL1       -0.2488
     33 C         -30.7896    0.9266   30.3552 C.3     1  UNL1        0.0424
     34 C         -22.6245    1.8013   27.0119 C.2     1  UNL1        0.0887
     35 N         -22.5500    3.3890   25.1149 N.1     1  UNL1       -0.1908
     36 O         -29.1692    2.4387   29.6753 O.3     1  UNL1       -0.3442
     37 O         -29.5915   -0.0020   27.6846 O.2     1  UNL1       -0.2488
     38 C         -22.1780    0.3346   29.1535 C.2     1  UNL1        0.1160
     39 N         -24.5835    0.0149   29.1471 N.ar    1  UNL1       -0.3103
     40 C         -21.3515    1.5681   27.3910 C.2     1  UNL1        0.1092
     41 C         -22.6474    2.6655   25.9634 C.1     1  UNL1        0.1020
     42 N         -27.3462    0.1145   28.7615 N.pl3   1  UNL1       -0.1438
     43 C         -28.9178   -0.0898   28.9272 C.3     1  UNL1        0.4577
     44 N         -21.1609    0.9165   28.4701 N.2     1  UNL1       -0.2401
     45 C         -23.4673    0.5001   28.7034 C.ar    1  UNL1        0.0809
     46 C         -29.2903    2.7804   28.3127 C.3     1  UNL1        0.1744
@<TRIPOS>BOND
     1     1     2    1
     2     2     7    1
     3     3     2    2
     4     4     3    1
     5     4     5    2
     6     5     6    1
     7     6     7    2
     8     8     1    1
     9     8     9    1
    10     8    12    1
    11     9    10    1
    12    10    11    1
    13    12    11    1
    14    13    28    1
    15    14    13    1
    16    14    15    1
    17    15    18    2
    18    16    17    1
    19    16    15    1
    20    19    14    2
    21    20    21    2
    22    20    19    1
    23    21    26    1
    24    22    21    1
    25    23    22    1
    26    24    23    1
    27    24    25    1
    28    26    27    1
    29    26    13    1
    30    28    29   ar
    31    28    31   ar
    32    29    45   ar
    33    30    33    1
    34    31    42    1
    35    31    39   ar
    36    34    40    1
    37    34    29    2
    38    35    41    3
    39    36    30    1
    40    37    43    1
    41    39     1    1
    42    40    44    2
    43    41    34    1
    44    42    43    1
    45    43    32    1
    46    43    30    1
    47    44    38    1
    48    45    39   ar
    49    45    38    2
    50    46    36    1
