@<TRIPOS>MOLECULE
outputs/IAG933/test6/raw/output_1734_IAG933_linker_design_.xyz
 44 49 0 0 0
SMALL
GASTEIGER

@<TRIPOS>ATOM
      1 C         -24.8550   -1.0120   30.1430 C.3     1  UNL1        0.0535
      2 C         -24.9730   -2.5050   29.7880 C.2     1  UNL1       -0.0198
      3 C         -23.9060   -3.1730   29.1460 C.2     1  UNL1       -0.0042
      4 C         -23.9890   -4.5490   28.8530 C.2     1  UNL1       -0.0003
      5 C         -25.1370   -5.2800   29.2050 C.2     1  UNL1       -0.0000
      6 C         -26.2320   -4.6110   29.7840 C.2     1  UNL1       -0.0003
      7 C         -26.1550   -3.2320   30.0650 C.2     1  UNL1       -0.0042
      8 C         -25.3870   -0.6790   31.5710 C.3     1  UNL1        0.0781
      9 C         -25.1890    0.7730   32.0280 C.3     1  UNL1        0.0192
     10 C         -25.3360    0.6840   33.5440 C.3     1  UNL1        0.0202
     11 C         -24.8290   -0.7150   33.9050 C.3     1  UNL1        0.0887
     12 N         -24.7580   -1.4810   32.6460 N.3     1  UNL1       -0.2191
     13 C         -25.6880    1.6140   26.4610 C.3     1  UNL1        0.0731
     14 C         -26.2500    2.9200   26.3950 C.2     1  UNL1        0.0549
     15 C         -25.6420    4.0930   27.1230 C.2     1  UNL1        0.2624
     16 N         -25.6140    5.2520   26.4490 N.am    1  UNL1       -0.2000
     17 C         -25.0260    6.4790   26.9630 C.3     1  UNL1        0.1388
     18 O         -25.1430    3.9660   28.2430 O.2     1  UNL1       -0.2687
     19 C         -27.4380    3.0910   25.6450 C.2     1  UNL1        0.1021
     20 N         -28.0750    2.0890   25.0030 N.2     1  UNL1       -0.2119
     21 C         -27.5430    0.8490   25.0790 C.2     1  UNL1        0.2341
     22 O         -28.1930   -0.2080   24.4770 O.2     1  UNL1       -0.4585
     23 C         -29.4600    0.0050   23.8660 C.3     1  UNL1        0.2423
     24 C         -30.0650   -1.3770   23.5730 C.3     1  UNL1        0.2292
     25 O         -30.7290   -1.8780   24.7210 O.3     1  UNL1       -0.2162
     26 C         -26.3540    0.5760   25.7770 C.3     1  UNL1        0.2401
     27 F         -25.8600   -0.6810   25.7950 F       1  UNL1       -0.2269
     28 O         -28.2943   -0.5715   29.5720 O.2     1  UNL1       -0.2667
     29 CL        -22.9334    1.8231   25.5786 Cl      1  UNL1       -0.1135
     30 O         -31.8053   -0.7531   27.7578 O.3     1  UNL1       -0.3325
     31 C         -23.3920    1.0184   27.1176 C.3     1  UNL1        0.0979
     32 C         -31.7147    0.3466   26.8350 C.3     1  UNL1        0.1657
     33 C         -24.6627    0.2037   29.1015 C.3     1  UNL1        0.0733
     34 C         -25.9594    0.7679   28.8027 C.3     1  UNL1        0.0846
     35 N         -23.0327    0.2239   29.2493 N.3     1  UNL1       -0.2201
     36 O         -27.2761    2.2633   29.7378 O.2     1  UNL1       -0.2865
     37 C         -24.8784    1.1475   27.5978 C.3     1  UNL1        0.0449
     38 C         -30.5916   -0.9185   28.4974 C.3     1  UNL1        0.2429
     39 C         -30.5621    1.1977   27.3852 C.3     1  UNL1        0.1282
     40 C         -22.3196    0.6081   28.0452 C.3     1  UNL1        0.0878
     41 N         -29.8573    0.3192   28.2584 N.am    1  UNL1       -0.2457
     42 C         -21.0170    1.2120   27.9071 C.3     1  UNL1        0.0201
     43 C         -27.2815    1.2566   29.1533 C.2     1  UNL1        0.2271
     44 C         -28.5498    0.3237   28.9454 C.2     1  UNL1        0.2857
@<TRIPOS>BOND
     1     1     2    1
     2     2     7    1
     3     3     2    2
     4     4     3    1
     5     4     5    2
     6     5     6    1
     7     6     7    2
     8     8     1    1
     9     8     9    1
    10     8    12    1
    11     9    10    1
    12    10    11    1
    13    12    11    1
    14    13    14    1
    15    14    15    1
    16    15    18    2
    17    16    17    1
    18    16    15    1
    19    19    14    2
    20    20    21    2
    21    20    19    1
    22    21    26    1
    23    22    21    1
    24    23    22    1
    25    24    23    1
    26    24    25    1
    27    26    27    1
    28    26    13    1
    29    30    38    1
    30    31    29    1
    31    31    37    1
    32    31    40    1
    33    32    39    1
    34    32    30    1
    35    33    35    1
    36    33     1    1
    37    34    33    1
    38    34    43    1
    39    37    13    1
    40    37    34    1
    41    37    33    1
    42    39    41    1
    43    40    42    1
    44    40    35    1
    45    41    38    1
    46    41    44   am
    47    43    36    2
    48    44    43    1
    49    44    28    2
