@<TRIPOS>MOLECULE
No_1736-gen_results/8p0m/2024-11-27-11-27-31/
 19 19 0 0 0
SMALL
GASTEIGER

@<TRIPOS>ATOM
      1 C         -28.0162   -0.8135   28.8779 C.3     1  UNL1        0.0310
      2 C         -27.0636   -0.1189   28.6079 C.ar    1  UNL1       -0.0218
      3 C         -26.9716    0.7139   27.5060 C.ar    1  UNL1       -0.0040
      4 C         -25.8205    1.4909   27.1160 C.ar    1  UNL1        0.0077
      5 C         -24.8579    1.3421   27.6008 C.ar    1  UNL1        0.0975
      6 C         -24.6224    0.5295   28.8144 C.ar    1  UNL1        0.0077
      7 C         -25.7344   -0.1811   29.1908 C.ar    1  UNL1       -0.0040
      8 C         -28.6269   -0.4745   30.2487 C.3     1  UNL1        0.0307
      9 C         -29.7287   -1.2771   30.7236 C.2     1  UNL1       -0.0258
     10 C         -23.5103    2.1338   27.3073 C.2     1  UNL1        0.4766
     11 N         -22.5333    2.1914   28.1368 N.pl3   1  UNL1        0.2047
     12 N         -23.5901    3.0428   26.3166 N.pl3   1  UNL1        0.2047
     13 C         -30.0842   -2.2039   29.9645 C.2     1  UNL1       -0.0046
     14 C         -31.2536   -2.9561   30.5020 C.2     1  UNL1       -0.0003
     15 C         -31.7046   -4.0568   29.7146 C.2     1  UNL1       -0.0000
     16 C         -32.5329   -4.2154   29.0101 C.2     1  UNL1       -0.0000
     17 C         -32.7776   -5.3936   28.1170 C.2     1  UNL1       -0.0000
     18 C         -31.7890   -6.3641   28.1566 C.2     1  UNL1        0.0000
     19 C         -30.6951   -6.2323   28.9501 C.2     1  UNL1        0.0000
@<TRIPOS>BOND
     1     1     8    1
     2     8     9    1
     3     5    10    1
     4    10    11    1
     5    10    12    2
     6     9    13    2
     7    13    14    1
     8    14    15    2
     9    15    16    1
    10    16    17    2
    11    17    18    1
    12    18    19    2
    13     1     2    1
    14     2     3   ar
    15     3     4   ar
    16     4     5   ar
    17     5     6   ar
    18     6     7   ar
    19     7     2   ar
