@<TRIPOS>MOLECULE
No_1739-gen_results/8p0m/2024-11-27-11-27-31/
 12 12 0 0 0
SMALL
GASTEIGER

@<TRIPOS>ATOM
      1 C         -28.0162   -0.8135   28.8779 C.ar    1  UNL1        0.0078
      2 C         -27.0636   -0.1189   28.6079 C.ar    1  UNL1        0.0552
      3 C         -26.9716    0.7139   27.5060 C.ar    1  UNL1        0.0078
      4 C         -28.1053    0.7744   26.6421 C.ar    1  UNL1        0.0422
      5 C         -29.2008    0.1044   27.0527 C.ar    1  UNL1        0.1957
      6 C         -29.2096   -0.6029   28.1853 C.ar    1  UNL1        0.0422
      7 O         -30.2994    0.2279   26.2571 O.3     1  UNL1       -0.2866
      8 C         -25.6209   -0.1306   29.2213 C.2     1  UNL1        0.2648
      9 N         -25.3151   -1.0014   30.0653 N.am    1  UNL1       -0.2017
     10 O         -24.7318    0.7269   28.9895 O.2     1  UNL1       -0.2684
     11 C         -24.0246   -1.1503   30.7447 C.3     1  UNL1        0.1155
     12 C         -23.1324   -0.1668   30.6440 C.3     1  UNL1        0.0253
@<TRIPOS>BOND
     1     5     7    1
     2     2     8    1
     3     8     9   am
     4     8    10    2
     5     9    11    1
     6    11    12    1
     7     1     2   ar
     8     2     3   ar
     9     3     4   ar
    10     4     5   ar
    11     5     6   ar
    12     6     1   ar
