@<TRIPOS>MOLECULE
No_1740-gen_results/8p0m/2024-11-27-11-27-31/
 35 36 0 0 0
SMALL
GASTEIGER

@<TRIPOS>ATOM
      1 C         -28.0162   -0.8135   28.8779 C.2     1  UNL1        0.3508
      2 C         -27.0636   -0.1190   28.6079 C.ar    1  UNL1        0.1106
      3 C         -27.0010    0.6913   27.4910 C.ar    1  UNL1        0.1550
      4 C         -25.8548    1.4825   27.0830 C.ar    1  UNL1        0.0402
      5 C         -24.6901    1.4526   27.8807 C.ar    1  UNL1        0.0311
      6 C         -23.4878    2.1451   27.6011 C.2     1  UNL1        0.1337
      7 C         -25.8122   -0.1656   29.4299 C.ar    1  UNL1        0.0096
      8 C         -24.6457    0.5887   29.0806 C.ar    1  UNL1        0.0028
      9 O         -27.8770   -1.6675   29.8462 O.3     1  UNL1       -0.3863
     10 O         -29.1762   -0.5827   28.5020 O.2     1  UNL1       -0.2443
     11 N         -22.4612    1.6301   27.2296 N.2     1  UNL1       -0.2469
     12 CL        -23.7133    3.8986   27.3721 Cl      1  UNL1       -0.0618
     13 C         -21.4557    1.1737   28.0527 C.3     1  UNL1        0.2398
     14 C         -21.2270    0.1384   28.4489 C.2     1  UNL1        0.3892
     15 O         -20.3036   -0.7335   28.2404 O.co2   1  UNL1       -0.2434
     16 O         -22.1194   -0.3620   29.3890 O.co2   1  UNL1       -0.2434
     17 O         -28.0068    0.7381   26.6763 O.3     1  UNL1       -0.4208
     18 C         -27.7996    0.5490   25.3180 C.2     1  UNL1        0.3457
     19 C         -28.9607    0.1089   24.6709 C.ar    1  UNL1        0.0758
     20 C         -29.9107   -0.3722   25.4603 C.ar    1  UNL1        0.0034
     21 C         -31.1562   -0.3960   24.7820 C.ar    1  UNL1       -0.0069
     22 C         -31.2884   -0.1869   23.4164 C.ar    1  UNL1       -0.0031
     23 C         -30.2943    0.3914   22.7746 C.ar    1  UNL1       -0.0001
     24 C         -29.1460    0.6148   23.3786 C.ar    1  UNL1        0.0064
     25 O         -26.6726    0.5557   24.7884 O.2     1  UNL1       -0.2445
     26 C         -32.3317   -1.1528   25.5184 C.3     1  UNL1        0.1064
     27 CL        -32.1878   -2.3556   26.4275 Cl      1  UNL1       -0.1098
     28 C         -33.6363   -0.6207   25.2017 C.3     1  UNL1        0.0467
     29 C         -28.9817   -2.5299   30.3128 C.2     1  UNL1        0.3731
     30 C         -28.5935   -3.8634   30.3521 C.3     1  UNL1        0.3378
     31 CL        -29.6144   -5.1856   30.2507 Cl      1  UNL1       -0.0654
     32 F         -27.3173   -4.2654   30.3081 F       1  UNL1       -0.2069
     33 O         -30.0006   -2.1031   30.6394 O.2     1  UNL1       -0.2451
     34 C         -33.9944    0.4758   26.0451 C.2     1  UNL1       -0.0245
     35 C         -33.6025    0.4992   27.3254 C.2     1  UNL1       -0.0049
@<TRIPOS>BOND
     1     1     2    1
     2     5     6    1
     3     1     9    1
     4     1    10    2
     5     6    11    2
     6     6    12    1
     7    11    13    1
     8    13    14    1
     9    14    15   ar
    10    14    16   ar
    11     3    17    1
    12    17    18    1
    13    18    19    1
    14    18    25    2
    15    21    26    1
    16    26    27    1
    17    26    28    1
    18     9    29    1
    19    29    30    1
    20    30    31    1
    21    30    32    1
    22    29    33    2
    23    28    34    1
    24    34    35    2
    25     2     3   ar
    26     3     4   ar
    27     4     5   ar
    28     5     8   ar
    29     8     7   ar
    30     7     2   ar
    31    19    20   ar
    32    20    21   ar
    33    21    22   ar
    34    22    23   ar
    35    23    24   ar
    36    24    19   ar
