@<TRIPOS>MOLECULE
No_1743-gen_results/8p0m/2024-11-27-11-27-31/
 11 11 0 0 0
SMALL
GASTEIGER

@<TRIPOS>ATOM
      1 C         -28.0162   -0.8135   28.8779 C.ar    1  UNL1       -0.0027
      2 C         -28.4690   -0.7850   29.8287 C.ar    1  UNL1        0.0006
      3 C         -26.5042   -0.7777   28.8766 C.ar    1  UNL1       -0.0003
      4 C         -25.8103   -0.8531   30.1028 C.ar    1  UNL1       -0.0000
      5 C         -27.9906   -0.8916   31.2257 C.ar    1  UNL1       -0.0027
      6 C         -26.6042   -0.8676   31.2652 C.ar    1  UNL1       -0.0003
      7 C         -30.0739   -0.8360   29.8615 C.3     1  UNL1        0.1805
      8 N         -30.6529   -1.7943   30.2676 N.3     1  UNL1       -0.1221
      9 C         -30.7551    0.2587   29.2375 C.3     1  UNL1        0.3398
     10 F         -30.0944    1.1665   28.8980 F       1  UNL1       -0.1964
     11 F         -31.4479   -0.2865   28.1740 F       1  UNL1       -0.1964
@<TRIPOS>BOND
     1     2     7    1
     2     7     8    1
     3     7     9    1
     4     9    10    1
     5     9    11    1
     6     1     2   ar
     7     2     5   ar
     8     5     6   ar
     9     6     4   ar
    10     4     3   ar
    11     3     1   ar
