@<TRIPOS>MOLECULE
outputs/IAG933/test6/raw/output_1745_IAG933_linker_design_.xyz
 42 46 0 0 0
SMALL
GASTEIGER

@<TRIPOS>ATOM
      1 C         -24.8550   -1.0120   30.1430 C.3     1  UNL1        0.1131
      2 C         -24.9730   -2.5050   29.7880 C.2     1  UNL1       -0.0029
      3 C         -23.9060   -3.1730   29.1460 C.2     1  UNL1       -0.0026
      4 C         -23.9890   -4.5490   28.8530 C.2     1  UNL1       -0.0003
      5 C         -25.1370   -5.2800   29.2050 C.2     1  UNL1       -0.0000
      6 C         -26.2320   -4.6110   29.7840 C.2     1  UNL1       -0.0003
      7 C         -26.1550   -3.2320   30.0650 C.2     1  UNL1       -0.0026
      8 C         -25.3870   -0.6790   31.5710 C.3     1  UNL1        0.0951
      9 C         -25.1890    0.7730   32.0280 C.3     1  UNL1        0.0209
     10 C         -25.3360    0.6840   33.5440 C.3     1  UNL1        0.0203
     11 C         -24.8290   -0.7150   33.9050 C.3     1  UNL1        0.0888
     12 N         -24.7580   -1.4810   32.6460 N.3     1  UNL1       -0.2174
     13 C         -25.6880    1.6140   26.4610 C.2     1  UNL1        0.0399
     14 C         -26.2500    2.9200   26.3950 C.2     1  UNL1        0.0766
     15 C         -25.6420    4.0930   27.1230 C.2     1  UNL1        0.2664
     16 N         -25.6140    5.2520   26.4490 N.am    1  UNL1       -0.1997
     17 C         -25.0260    6.4790   26.9630 C.3     1  UNL1        0.1388
     18 O         -25.1430    3.9660   28.2430 O.2     1  UNL1       -0.2683
     19 C         -27.4380    3.0910   25.6450 C.2     1  UNL1        0.1067
     20 N         -28.0750    2.0890   25.0030 N.2     1  UNL1       -0.2081
     21 C         -27.5430    0.8490   25.0790 C.2     1  UNL1        0.2533
     22 O         -28.1930   -0.2080   24.4770 O.2     1  UNL1       -0.4558
     23 C         -29.4600    0.0050   23.8660 C.3     1  UNL1        0.2426
     24 C         -30.0650   -1.3770   23.5730 C.3     1  UNL1        0.2292
     25 O         -30.7290   -1.8780   24.7210 O.3     1  UNL1       -0.2162
     26 C         -26.3540    0.5760   25.7770 C.2     1  UNL1        0.1931
     27 F         -25.8600   -0.6810   25.7950 F       1  UNL1       -0.1992
     28 C         -24.1020    0.5935   28.2250 C.2     1  UNL1        0.0519
     29 C         -22.1492    1.4434   27.4382 C.2     1  UNL1        0.1509
     30 N         -25.1027    0.0684   29.1030 N.pl3   1  UNL1       -0.2828
     31 O         -27.3788   -0.6663   28.6284 O.3     1  UNL1       -0.2483
     32 C         -24.3895    1.3852   27.0199 C.2     1  UNL1        0.0261
     33 C         -22.6007    0.5655   28.4843 C.3     1  UNL1        0.1777
     34 N         -21.9674   -0.2118   29.4478 N.3     1  UNL1       -0.1194
     35 C         -29.7349    1.9214   29.7441 C.3     1  UNL1        0.0217
     36 CL        -22.8265    2.6802   25.0309 Cl      1  UNL1       -0.0802
     37 N         -28.6112   -0.2361   29.1217 N.3     1  UNL1       -0.0832
     38 C         -26.4703    0.3244   28.9990 C.3     1  UNL1        0.2166
     39 F         -20.8274    1.7871   27.3544 F       1  UNL1       -0.2061
     40 C         -27.1101    1.5359   29.4122 C.3     1  UNL1        0.0729
     41 C         -23.1393    1.8590   26.5571 C.2     1  UNL1        0.0837
     42 C         -28.5276    1.1585   29.5726 C.3     1  UNL1        0.1074
@<TRIPOS>BOND
     1     1    30    1
     2     2     7    1
     3     2     1    1
     4     3     2    2
     5     4     3    1
     6     4     5    2
     7     5     6    1
     8     6     7    2
     9     8     1    1
    10     8     9    1
    11     8    12    1
    12     9    10    1
    13    10    11    1
    14    12    11    1
    15    13    32    1
    16    14    13    1
    17    14    15    1
    18    15    18    2
    19    16    17    1
    20    16    15    1
    21    19    14    2
    22    20    21    2
    23    20    19    1
    24    21    26    1
    25    22    21    1
    26    23    22    1
    27    24    23    1
    28    24    25    1
    29    26    27    1
    30    26    13    2
    31    28    33    1
    32    28    30    1
    33    29    33    1
    34    31    38    1
    35    31    37    1
    36    32    28    2
    37    33    34    1
    38    36    41    1
    39    37    42    1
    40    38    30    1
    41    38    40    1
    42    39    29    1
    43    40    42    1
    44    41    32    1
    45    41    29    2
    46    42    35    1
