@<TRIPOS>MOLECULE
outputs/IAG933/test6/raw/output_1747_IAG933_linker_design_.xyz
 46 51 0 0 0
SMALL
GASTEIGER

@<TRIPOS>ATOM
      1 C         -24.8550   -1.0120   30.1430 C.3     1  UNL1        0.0573
      2 C         -24.9730   -2.5050   29.7880 C.2     1  UNL1       -0.0195
      3 C         -23.9060   -3.1730   29.1460 C.2     1  UNL1       -0.0042
      4 C         -23.9890   -4.5490   28.8530 C.2     1  UNL1       -0.0003
      5 C         -25.1370   -5.2800   29.2050 C.2     1  UNL1       -0.0000
      6 C         -26.2320   -4.6110   29.7840 C.2     1  UNL1       -0.0003
      7 C         -26.1550   -3.2320   30.0650 C.2     1  UNL1       -0.0042
      8 C         -25.3870   -0.6790   31.5710 C.3     1  UNL1        0.0784
      9 C         -25.1890    0.7730   32.0280 C.3     1  UNL1        0.0192
     10 C         -25.3360    0.6840   33.5440 C.3     1  UNL1        0.0202
     11 C         -24.8290   -0.7150   33.9050 C.3     1  UNL1        0.0887
     12 N         -24.7580   -1.4810   32.6460 N.3     1  UNL1       -0.2191
     13 C         -25.6880    1.6140   26.4610 C.3     1  UNL1        0.0992
     14 C         -26.2500    2.9200   26.3950 C.2     1  UNL1        0.0591
     15 C         -25.6420    4.0930   27.1230 C.2     1  UNL1        0.2628
     16 N         -25.6140    5.2520   26.4490 N.am    1  UNL1       -0.2000
     17 C         -25.0260    6.4790   26.9630 C.3     1  UNL1        0.1388
     18 O         -25.1430    3.9660   28.2430 O.2     1  UNL1       -0.2686
     19 C         -27.4380    3.0910   25.6450 C.2     1  UNL1        0.1025
     20 N         -28.0750    2.0890   25.0030 N.2     1  UNL1       -0.2118
     21 C         -27.5430    0.8490   25.0790 C.2     1  UNL1        0.2344
     22 O         -28.1930   -0.2080   24.4770 O.2     1  UNL1       -0.4585
     23 C         -29.4600    0.0050   23.8660 C.3     1  UNL1        0.2423
     24 C         -30.0650   -1.3770   23.5730 C.3     1  UNL1        0.2292
     25 O         -30.7290   -1.8780   24.7210 O.3     1  UNL1       -0.2162
     26 C         -26.3540    0.5760   25.7770 C.3     1  UNL1        0.2442
     27 F         -25.8600   -0.6810   25.7950 F       1  UNL1       -0.2265
     28 F         -20.0518    1.6249   28.3120 F       1  UNL1       -0.2288
     29 C         -21.1954    0.7487   28.5369 C.3     1  UNL1        0.2281
     30 C         -22.0859    0.1622   29.7002 C.3     1  UNL1        0.1500
     31 O         -19.0062   -0.3158   28.6308 O.3     1  UNL1       -0.2192
     32 C         -26.5191    0.2647   28.8937 C.3     1  UNL1        0.0927
     33 O         -23.8385    1.8323   29.8054 O.2     1  UNL1       -0.2743
     34 O         -22.3784    2.4011   25.3320 O.2     1  UNL1       -0.2567
     35 O         -21.6252    2.0942   26.5661 O.2     1  UNL1       -0.2848
     36 F         -23.9583    1.2567   24.1085 F       1  UNL1       -0.1589
     37 C         -23.5568    1.8241   25.2189 C.2     1  UNL1        0.3311
     38 C         -20.6554   -0.7874   28.9062 C.3     1  UNL1        0.2010
     39 C         -25.2992   -0.3475   28.8594 C.3     1  UNL1        0.0930
     40 C         -23.5845    0.7408   29.3174 C.2     1  UNL1        0.2347
     41 C         -23.5139    1.1264   27.4113 C.2     1  UNL1        0.0932
     42 N         -24.1930    0.3077   28.3917 N.am    1  UNL1       -0.2569
     43 O         -28.2270   -1.2302   29.1278 O.2     1  UNL1       -0.2882
     44 C         -27.8702   -0.0784   28.6850 C.2     1  UNL1        0.2091
     45 C         -22.1676    1.3292   27.4697 C.2     1  UNL1        0.2189
     46 C         -24.2288    1.5691   26.3655 C.2     1  UNL1        0.0692
@<TRIPOS>BOND
     1     1    39    1
     2     2     7    1
     3     2     1    1
     4     3     2    2
     5     4     3    1
     6     4     5    2
     7     5     6    1
     8     6     7    2
     9     8     1    1
    10     8     9    1
    11     8    12    1
    12     9    10    1
    13    10    11    1
    14    12    11    1
    15    13    46    1
    16    14    13    1
    17    14    15    1
    18    15    18    2
    19    16    17    1
    20    16    15    1
    21    19    14    2
    22    20    21    2
    23    20    19    1
    24    21    26    1
    25    22    21    1
    26    23    22    1
    27    24    23    1
    28    24    25    1
    29    26    27    1
    30    26    13    1
    31    29    28    1
    32    29    38    1
    33    29    30    1
    34    30    40    1
    35    34    35    1
    36    35    45    1
    37    36    37    1
    38    37    34    1
    39    37    46    2
    40    38    31    1
    41    38    30    1
    42    39    32    1
    43    40    33    2
    44    41    45    2
    45    41    42    1
    46    42    39    1
    47    42    40   am
    48    44    32    1
    49    44    43    2
    50    45    29    1
    51    46    41    1
