@<TRIPOS>MOLECULE
No_1748-gen_results/8p0m/2024-11-27-11-27-31/
 10 10 0 0 0
SMALL
GASTEIGER

@<TRIPOS>ATOM
      1 C         -28.0162   -0.8135   28.8779 C.ar    1  UNL1       -0.0001
      2 C         -28.4690   -0.7850   29.8287 C.ar    1  UNL1       -0.0000
      3 C         -26.5042   -0.7777   28.8766 C.ar    1  UNL1        0.0039
      4 C         -25.8103   -0.8531   30.1028 C.ar    1  UNL1        0.0714
      5 C         -27.9906   -0.8916   31.2257 C.ar    1  UNL1       -0.0001
      6 C         -24.3976   -0.8364   30.1775 C.3     1  UNL1        0.4186
      7 C         -26.5754   -0.8899   31.2661 C.ar    1  UNL1        0.0039
      8 F         -23.9400   -1.4771   31.0402 F       1  UNL1       -0.1659
      9 F         -23.8042   -1.2742   28.9805 F       1  UNL1       -0.1659
     10 F         -23.9343    0.4590   30.2934 F       1  UNL1       -0.1659
@<TRIPOS>BOND
     1     4     6    1
     2     6     8    1
     3     6     9    1
     4     6    10    1
     5     1     2   ar
     6     2     5   ar
     7     5     7   ar
     8     7     4   ar
     9     4     3   ar
    10     3     1   ar
