@<TRIPOS>MOLECULE
No_1749-gen_results/8p0m/2024-11-27-11-27-31/
 34 37 0 0 0
SMALL
GASTEIGER

@<TRIPOS>ATOM
      1 C         -28.0162   -0.8135   28.8779 C.ar    1  UNL1        0.0066
      2 C         -28.4690   -0.7850   29.8287 C.ar    1  UNL1        0.0798
      3 C         -28.1816    0.4277   28.1134 C.ar    1  UNL1        0.0001
      4 C         -27.4498    0.6435   26.8500 C.2     1  UNL1        0.0023
      5 C         -26.4529    0.9939   26.6681 C.2     1  UNL1       -0.0179
      6 C         -25.1811    0.8624   26.8164 C.2     1  UNL1       -0.0076
      7 C         -24.2187    1.6769   26.2404 C.2     1  UNL1       -0.0217
      8 C         -29.4213    0.0902   30.4451 C.ar    1  UNL1        0.0066
      9 C         -29.0456    1.3709   28.5903 C.ar    1  UNL1       -0.0000
     10 C         -29.6394    1.1968   29.7666 C.ar    1  UNL1        0.0002
     11 C         -23.7837    2.6590   25.8999 C.3     1  UNL1        0.0523
     12 C         -28.3584    0.3078   25.6866 C.2     1  UNL1        0.0714
     13 C         -28.0168    1.1122   24.7027 C.2     1  UNL1       -0.0150
     14 C         -26.7378    1.8706   25.3620 C.3     1  UNL1        0.0525
     15 C         -24.5921   -0.1762   27.7018 C.ar    1  UNL1       -0.0006
     16 C         -23.4821    0.1902   28.5226 C.ar    1  UNL1       -0.0000
     17 C         -23.1947   -0.7633   29.5878 C.ar    1  UNL1       -0.0000
     18 C         -23.7972   -1.9942   29.5204 C.ar    1  UNL1       -0.0000
     19 C         -24.7765   -2.3496   28.6853 C.ar    1  UNL1       -0.0000
     20 C         -25.2318   -1.3512   27.7965 C.ar    1  UNL1       -0.0000
     21 C         -28.2351   -2.1071   30.8069 C.2     1  UNL1        0.3878
     22 O         -27.1623   -2.4528   30.9057 O.co2   1  UNL1       -0.2406
     23 O         -29.3338   -2.8291   31.0731 O.co2   1  UNL1       -0.2406
     24 C         -24.2568    3.9035   26.7326 C.ar    1  UNL1       -0.0177
     25 C         -24.7442    5.1242   26.1527 C.ar    1  UNL1       -0.0031
     26 C         -25.0311    6.1790   27.0113 C.ar    1  UNL1        0.0111
     27 C         -25.2588    5.9737   28.3828 C.ar    1  UNL1        0.0577
     28 C         -25.0308    4.6577   28.8908 C.ar    1  UNL1        0.0111
     29 C         -24.5410    3.6584   28.1182 C.ar    1  UNL1       -0.0031
     30 CL        -25.8006    7.2175   29.3697 Cl      1  UNL1       -0.0822
     31 C         -29.6737   -0.3293   25.6657 C.2     1  UNL1        0.3410
     32 O         -30.5616    0.1580   25.1176 O.2     1  UNL1       -0.2449
     33 O         -29.7235   -1.5297   26.0698 O.3     1  UNL1       -0.4413
     34 C         -31.0164   -2.0778   25.8228 C.3     1  UNL1        0.2560
@<TRIPOS>BOND
     1     3     4    1
     2     4     5    2
     3     5     6    1
     4     6     7    2
     5     7    11    1
     6     4    12    1
     7    12    13    2
     8     5    14    1
     9    13    14    1
    10     6    15    1
    11     2    21    1
    12    21    22   ar
    13    21    23   ar
    14    11    24    1
    15    27    30    1
    16    12    31    1
    17    31    32    2
    18    31    33    1
    19    33    34    1
    20    15    16   ar
    21    16    17   ar
    22    17    18   ar
    23    18    19   ar
    24    19    20   ar
    25    20    15   ar
    26     1     2   ar
    27     2     8   ar
    28     8    10   ar
    29    10     9   ar
    30     9     3   ar
    31     3     1   ar
    32    24    25   ar
    33    25    26   ar
    34    26    27   ar
    35    27    28   ar
    36    28    29   ar
    37    29    24   ar
