@<TRIPOS>MOLECULE
outputs/IAG933/test6/raw/output_175_IAG933_linker_design_.xyz
 43 46 0 0 0
SMALL
GASTEIGER

@<TRIPOS>ATOM
      1 C         -24.8550   -1.0120   30.1430 C.3     1  UNL1        0.0516
      2 C         -24.9730   -2.5050   29.7880 C.2     1  UNL1       -0.0202
      3 C         -23.9060   -3.1730   29.1460 C.2     1  UNL1       -0.0042
      4 C         -23.9890   -4.5490   28.8530 C.2     1  UNL1       -0.0003
      5 C         -25.1370   -5.2800   29.2050 C.2     1  UNL1       -0.0000
      6 C         -26.2320   -4.6110   29.7840 C.2     1  UNL1       -0.0003
      7 C         -26.1550   -3.2320   30.0650 C.2     1  UNL1       -0.0042
      8 C         -25.3870   -0.6790   31.5710 C.3     1  UNL1        0.0777
      9 C         -25.1890    0.7730   32.0280 C.3     1  UNL1        0.0192
     10 C         -25.3360    0.6840   33.5440 C.3     1  UNL1        0.0202
     11 C         -24.8290   -0.7150   33.9050 C.3     1  UNL1        0.0887
     12 N         -24.7580   -1.4810   32.6460 N.3     1  UNL1       -0.2191
     13 C         -25.6880    1.6140   26.4610 C.2     1  UNL1        0.0407
     14 C         -26.2500    2.9200   26.3950 C.2     1  UNL1        0.0748
     15 C         -25.6420    4.0930   27.1230 C.2     1  UNL1        0.2284
     16 N         -25.6140    5.2520   26.4490 N.2     1  UNL1       -0.2353
     17 C         -25.0260    6.4790   26.9630 C.3     1  UNL1        0.1550
     18 O         -25.1430    3.9660   28.2430 O.2     1  UNL1       -0.4231
     19 C         -27.4380    3.0910   25.6450 C.2     1  UNL1        0.1068
     20 N         -28.0750    2.0890   25.0030 N.2     1  UNL1       -0.2081
     21 C         -27.5430    0.8490   25.0790 C.2     1  UNL1        0.2533
     22 O         -28.1930   -0.2080   24.4770 O.2     1  UNL1       -0.4558
     23 C         -29.4600    0.0050   23.8660 C.3     1  UNL1        0.2426
     24 C         -30.0650   -1.3770   23.5730 C.3     1  UNL1        0.2292
     25 O         -30.7290   -1.8780   24.7210 O.3     1  UNL1       -0.2162
     26 C         -26.3540    0.5760   25.7770 C.2     1  UNL1        0.1931
     27 F         -25.8600   -0.6810   25.7950 F       1  UNL1       -0.1992
     28 N         -23.6268    0.4094   28.1672 N.3     1  UNL1       -0.1838
     29 C         -29.3373    4.2088   31.2461 C.3     1  UNL1        0.1422
     30 C         -25.5951    3.1336   29.2121 C.2     1  UNL1        0.2069
     31 S         -27.2681    0.0445   29.2862 S.3     1  UNL1       -0.1347
     32 C         -27.9871    1.4918   29.9309 C.3     1  UNL1        0.0876
     33 N         -24.9290    1.9697   29.3159 N.2     1  UNL1       -0.2242
     34 O         -28.6757    3.0894   31.5137 O.3     1  UNL1       -0.3548
     35 C         -21.5862    1.2804   27.7448 C.2     1  UNL1        0.3823
     36 O         -20.6622    2.0892   27.9738 O.co2   1  UNL1       -0.2440
     37 C         -27.6799    2.8078   30.6556 C.3     1  UNL1        0.1352
     38 O         -22.0937    1.4367   26.5992 O.co2   1  UNL1       -0.2440
     39 C         -25.6077   -0.3530   28.9346 C.3     1  UNL1        0.0922
     40 C         -30.1315    4.7868   32.3745 C.3     1  UNL1        0.0346
     41 C         -24.6254    0.8215   28.8145 C.3     1  UNL1        0.1894
     42 C         -26.6710    3.7465   30.0918 C.3     1  UNL1        0.1154
     43 C         -22.1836    0.3914   28.6271 C.3     1  UNL1        0.2045
@<TRIPOS>BOND
     1     1     2    1
     2     2     7    1
     3     3     2    2
     4     4     3    1
     5     4     5    2
     6     5     6    1
     7     6     7    2
     8     8     1    1
     9     8     9    1
    10     8    12    1
    11     9    10    1
    12    10    11    1
    13    12    11    1
    14    14    13    1
    15    14    15    1
    16    15    18    1
    17    16    17    1
    18    16    15    2
    19    18    30    1
    20    19    14    2
    21    20    21    2
    22    20    19    1
    23    21    26    1
    24    22    21    1
    25    23    22    1
    26    24    23    1
    27    24    25    1
    28    26    27    1
    29    26    13    2
    30    28    43    1
    31    29    34    1
    32    29    40    1
    33    30    33    2
    34    30    42    1
    35    31    32    1
    36    32    37    1
    37    35    36   ar
    38    35    43    1
    39    37    34    1
    40    38    35   ar
    41    39    31    1
    42    39     1    1
    43    41    28    1
    44    41    39    1
    45    41    33    1
    46    42    37    1
