@<TRIPOS>MOLECULE
outputs/IAG933/test6/raw/output_1750_IAG933_linker_design_.xyz
 45 48 0 0 0
SMALL
GASTEIGER

@<TRIPOS>ATOM
      1 C         -24.8550   -1.0120   30.1430 C.3     1  UNL1        0.0587
      2 C         -24.9730   -2.5050   29.7880 C.2     1  UNL1       -0.0173
      3 C         -23.9060   -3.1730   29.1460 C.2     1  UNL1       -0.0039
      4 C         -23.9890   -4.5490   28.8530 C.2     1  UNL1       -0.0003
      5 C         -25.1370   -5.2800   29.2050 C.2     1  UNL1       -0.0000
      6 C         -26.2320   -4.6110   29.7840 C.2     1  UNL1       -0.0003
      7 C         -26.1550   -3.2320   30.0650 C.2     1  UNL1       -0.0039
      8 C         -25.3870   -0.6790   31.5710 C.3     1  UNL1        0.0806
      9 C         -25.1890    0.7730   32.0280 C.3     1  UNL1        0.0195
     10 C         -25.3360    0.6840   33.5440 C.3     1  UNL1        0.0203
     11 C         -24.8290   -0.7150   33.9050 C.3     1  UNL1        0.0887
     12 N         -24.7580   -1.4810   32.6460 N.3     1  UNL1       -0.2188
     13 C         -25.6880    1.6140   26.4610 C.3     1  UNL1        0.1304
     14 C         -26.2500    2.9200   26.3950 C.2     1  UNL1        0.0697
     15 C         -25.6420    4.0930   27.1230 C.2     1  UNL1        0.2637
     16 N         -25.6140    5.2520   26.4490 N.am    1  UNL1       -0.2000
     17 C         -25.0260    6.4790   26.9630 C.3     1  UNL1        0.1388
     18 O         -25.1430    3.9660   28.2430 O.2     1  UNL1       -0.2686
     19 C         -27.4380    3.0910   25.6450 C.2     1  UNL1        0.1035
     20 N         -28.0750    2.0890   25.0030 N.2     1  UNL1       -0.2118
     21 C         -27.5430    0.8490   25.0790 C.2     1  UNL1        0.2355
     22 O         -28.1930   -0.2080   24.4770 O.2     1  UNL1       -0.4585
     23 C         -29.4600    0.0050   23.8660 C.3     1  UNL1        0.2423
     24 C         -30.0650   -1.3770   23.5730 C.3     1  UNL1        0.2292
     25 O         -30.7290   -1.8780   24.7210 O.3     1  UNL1       -0.2162
     26 C         -26.3540    0.5760   25.7770 C.3     1  UNL1        0.2547
     27 F         -25.8600   -0.6810   25.7950 F       1  UNL1       -0.2254
     28 C         -23.0037    2.8963   25.3971 C.3     1  UNL1        0.0219
     29 C         -28.6006   -1.3177   29.2433 C.3     1  UNL1        0.2203
     30 C         -23.2384    1.1235   27.4914 C.3     1  UNL1        0.2062
     31 O         -21.7294    1.3596   27.7004 O.3     1  UNL1       -0.2029
     32 C         -30.8647   -1.7563   29.0733 C.3     1  UNL1        0.0771
     33 C         -23.5289    1.7683   26.2631 C.3     1  UNL1        0.1066
     34 O         -28.3460   -2.7976   31.9269 O.3     1  UNL1       -0.2176
     35 C         -31.3176   -3.0693   29.7641 C.3     1  UNL1        0.0530
     36 C         -30.2661   -3.7789   30.6617 C.3     1  UNL1        0.1862
     37 O         -29.2642   -4.2509   29.7888 O.3     1  UNL1       -0.2203
     38 C         -23.6335    0.1924   28.4921 C.2     1  UNL1        0.0145
     39 N         -29.8795   -0.8588   29.7662 N.3     1  UNL1       -0.2462
     40 C         -26.6747    0.5468   29.1925 C.3     1  UNL1        0.1663
     41 O         -27.8185   -0.3643   28.6770 O.3     1  UNL1       -0.3328
     42 C         -25.1154    0.0359   29.0592 C.2     1  UNL1       -0.0103
     43 N         -24.3946    1.3459   26.7519 N.3     1  UNL1       -0.2388
     44 C         -30.2027    0.5209   29.3831 C.3     1  UNL1        0.0917
     45 C         -29.7293   -2.8970   31.7820 C.3     1  UNL1        0.2148
@<TRIPOS>BOND
     1     1    42    1
     2     2     7    1
     3     2     1    1
     4     3     2    2
     5     4     3    1
     6     4     5    2
     7     5     6    1
     8     6     7    2
     9     8     1    1
    10     8     9    1
    11     8    12    1
    12     9    10    1
    13    10    11    1
    14    12    11    1
    15    13    14    1
    16    14    15    1
    17    15    18    2
    18    16    17    1
    19    16    15    1
    20    19    14    2
    21    20    21    2
    22    20    19    1
    23    21    26    1
    24    22    21    1
    25    23    22    1
    26    24    23    1
    27    24    25    1
    28    26    27    1
    29    26    13    1
    30    29    39    1
    31    30    31    1
    32    30    38    1
    33    32    35    1
    34    32    39    1
    35    33    28    1
    36    33    43    1
    37    33    30    1
    38    35    36    1
    39    36    37    1
    40    36    45    1
    41    38    42    2
    42    41    40    1
    43    41    29    1
    44    42    40    1
    45    43    13    1
    46    43    30    1
    47    44    39    1
    48    45    34    1
