@<TRIPOS>MOLECULE
No_1752-gen_results/8p0m/2024-11-27-11-27-31/
 25 27 0 0 0
SMALL
GASTEIGER

@<TRIPOS>ATOM
      1 C         -28.0162   -0.8135   28.8779 C.ar    1  UNL1        0.0111
      2 C         -27.0636   -0.1190   28.6079 C.ar    1  UNL1        0.0577
      3 C         -26.9287    1.1713   29.0083 C.ar    1  UNL1        0.0111
      4 C         -27.9560    1.7411   29.7840 C.ar    1  UNL1       -0.0014
      5 C         -29.0569   -0.3271   29.7466 C.ar    1  UNL1       -0.0031
      6 C         -28.9828    0.9722   30.1516 C.ar    1  UNL1       -0.0177
      7 CL        -25.7352   -0.7297   27.6631 Cl      1  UNL1       -0.0822
      8 C         -30.0810    1.5109   31.0108 C.3     1  UNL1        0.0523
      9 C         -29.7604    2.4457   31.8403 C.ar    1  UNL1       -0.0217
     10 C         -30.7132    3.0329   32.7662 C.ar    1  UNL1       -0.0042
     11 C         -30.3345    4.0275   33.6818 C.ar    1  UNL1       -0.0003
     12 C         -29.0029    4.4970   33.6761 C.ar    1  UNL1       -0.0003
     13 C         -28.0405    3.9493   32.8067 C.ar    1  UNL1       -0.0045
     14 C         -28.3992    2.9539   31.9491 C.ar    1  UNL1       -0.0235
     15 C         -27.4079    2.5688   30.9239 C.3     1  UNL1        0.0568
     16 C         -26.5799    3.8204   30.4020 C.3     1  UNL1        0.2054
     17 C         -28.6186    2.8572   28.7608 C.2     1  UNL1        0.0188
     18 C         -26.4028    1.6022   31.7863 C.3     1  UNL1        0.0074
     19 C         -27.0264    3.4879   30.6417 C.3     1  UNL1        0.2694
     20 N         -28.2235    4.5062   30.8138 N.3     1  UNL1       -0.1539
     21 O         -25.9409    3.4823   30.4542 O.3     1  UNL1       -0.2182
     22 N         -27.9127    4.0088   30.5221 N.pl3   1  UNL1       -0.1602
     23 C         -28.7205    3.5304   29.3717 C.2     1  UNL1        0.1002
     24 F         -26.8621    3.7054   31.6308 F       1  UNL1       -0.2146
     25 C         -27.6676    5.1160   29.4678 C.3     1  UNL1        0.1159
@<TRIPOS>BOND
     1     2     7    1
     2     6     8    1
     3    14    15    1
     4    15    16    1
     5     4    17    1
     6    15    18    1
     7    16    19    1
     8    19    20    1
     9    16    21    1
    10    20    22    1
    11    17    23    2
    12    22    23    1
    13    19    24    1
    14    20    25    1
    15     8     9    1
    16     1     2   ar
    17     2     3   ar
    18     3     4   ar
    19     4     6   ar
    20     6     5   ar
    21     5     1   ar
    22     9    10   ar
    23    10    11   ar
    24    11    12   ar
    25    12    13   ar
    26    13    14   ar
    27    14     9   ar
