@<TRIPOS>MOLECULE
No_1753-gen_results/8p0m/2024-11-27-11-27-31/
 18 19 0 0 0
SMALL
GASTEIGER

@<TRIPOS>ATOM
      1 C         -28.0162   -0.8135   28.8779 C.ar    1  UNL1        0.0300
      2 C         -27.0636   -0.1189   28.6079 C.ar    1  UNL1        0.0126
      3 C         -25.7923   -0.4302   29.0761 C.ar    1  UNL1        0.0118
      4 C         -25.5756   -1.5654   29.9363 C.ar    1  UNL1        0.0032
      5 C         -26.7354   -2.3004   30.2173 C.ar    1  UNL1        0.0297
      6 C         -27.9184   -1.9537   29.7629 C.ar    1  UNL1        0.1401
      7 C         -27.1057    1.1023   27.7593 C.ar    1  UNL1        0.1194
      8 C         -26.1219    1.4820   27.0232 C.ar    1  UNL1        0.2123
      9 C         -24.7142    1.1299   27.4889 C.ar    1  UNL1        0.1180
     10 C         -24.5718    0.0966   28.4066 C.ar    1  UNL1        0.0704
     11 C         -23.5495    1.7790   26.9027 C.1     1  UNL1        0.1045
     12 N         -22.7570    2.5404   26.9975 N.1     1  UNL1       -0.1907
     13 F         -28.9634   -2.6627   30.1722 F       1  UNL1       -0.2042
     14 CL        -23.0251   -0.3563   28.8577 Cl      1  UNL1       -0.0814
     15 C         -28.4864    1.5755   27.3871 C.2     1  UNL1        0.3909
     16 O         -28.9476    2.4054   28.1170 O.co2   1  UNL1       -0.2404
     17 O         -29.0733    1.0216   26.4205 O.co2   1  UNL1       -0.2404
     18 O         -26.1987    2.4937   26.2283 O.3     1  UNL1       -0.2856
@<TRIPOS>BOND
     1     9    11    1
     2    11    12    3
     3     6    13    1
     4    10    14    1
     5     7    15    1
     6    15    16   ar
     7    15    17   ar
     8     8    18    1
     9     1     2   ar
    10     3     4   ar
    11     4     5   ar
    12     5     6   ar
    13     6     1   ar
    14     2     3   ar
    15     3    10   ar
    16    10     9   ar
    17     9     8   ar
    18     8     7   ar
    19     7     2   ar
