@<TRIPOS>MOLECULE
outputs/IAG933/test6/raw/output_1754_IAG933_linker_design_.xyz
 43 47 0 0 0
SMALL
GASTEIGER

@<TRIPOS>ATOM
      1 C         -24.8550   -1.0120   30.1430 C.3     1  UNL1        0.1114
      2 C         -24.9730   -2.5050   29.7880 C.2     1  UNL1       -0.0030
      3 C         -23.9060   -3.1730   29.1460 C.2     1  UNL1       -0.0026
      4 C         -23.9890   -4.5490   28.8530 C.2     1  UNL1       -0.0003
      5 C         -25.1370   -5.2800   29.2050 C.2     1  UNL1       -0.0000
      6 C         -26.2320   -4.6110   29.7840 C.2     1  UNL1       -0.0003
      7 C         -26.1550   -3.2320   30.0650 C.2     1  UNL1       -0.0026
      8 C         -25.3870   -0.6790   31.5710 C.3     1  UNL1        0.0950
      9 C         -25.1890    0.7730   32.0280 C.3     1  UNL1        0.0209
     10 C         -25.3360    0.6840   33.5440 C.3     1  UNL1        0.0203
     11 C         -24.8290   -0.7150   33.9050 C.3     1  UNL1        0.0888
     12 N         -24.7580   -1.4810   32.6460 N.3     1  UNL1       -0.2174
     13 C         -25.6880    1.6140   26.4610 C.2     1  UNL1        0.0356
     14 C         -26.2500    2.9200   26.3950 C.2     1  UNL1        0.0763
     15 C         -25.6420    4.0930   27.1230 C.2     1  UNL1        0.2664
     16 N         -25.6140    5.2520   26.4490 N.am    1  UNL1       -0.1997
     17 C         -25.0260    6.4790   26.9630 C.3     1  UNL1        0.1388
     18 O         -25.1430    3.9660   28.2430 O.2     1  UNL1       -0.2683
     19 C         -27.4380    3.0910   25.6450 C.2     1  UNL1        0.1067
     20 N         -28.0750    2.0890   25.0030 N.2     1  UNL1       -0.2081
     21 C         -27.5430    0.8490   25.0790 C.2     1  UNL1        0.2533
     22 O         -28.1930   -0.2080   24.4770 O.2     1  UNL1       -0.4558
     23 C         -29.4600    0.0050   23.8660 C.3     1  UNL1        0.2426
     24 C         -30.0650   -1.3770   23.5730 C.3     1  UNL1        0.2292
     25 O         -30.7290   -1.8780   24.7210 O.3     1  UNL1       -0.2162
     26 C         -26.3540    0.5760   25.7770 C.2     1  UNL1        0.1928
     27 F         -25.8600   -0.6810   25.7950 F       1  UNL1       -0.1992
     28 N         -26.3421   -0.2827   29.3132 N.pl3   1  UNL1       -0.3011
     29 C         -28.7360   -0.7717   28.7178 C.2     1  UNL1        0.2089
     30 C         -27.7364    0.1089   29.1177 C.2     1  UNL1        0.0875
     31 F         -22.2939   -0.0403   29.9059 F       1  UNL1       -0.2245
     32 C         -28.1394    1.4470   29.3098 C.2     1  UNL1        0.0178
     33 C         -24.3195    0.8937   28.4975 C.3     1  UNL1        0.0869
     34 C         -29.4217    1.8447   28.8955 C.2     1  UNL1        0.0015
     35 S         -21.9040    1.4381   27.7902 S.3     1  UNL1       -0.0681
     36 C         -23.1676    1.7616   26.6619 C.2     1  UNL1        0.0815
     37 C         -24.4296    1.3592   27.2006 C.2     1  UNL1        0.0017
     38 C         -30.2948    0.9417   28.2993 C.2     1  UNL1        0.0034
     39 C         -29.9679   -0.4194   28.2346 C.2     1  UNL1        0.0433
     40 C         -25.6754    1.1081   29.0305 C.3     1  UNL1        0.0992
     41 CL        -22.7370    2.6604   25.1893 Cl      1  UNL1       -0.0757
     42 O         -28.3704   -2.1011   28.8419 O.2     1  UNL1       -0.2852
     43 C         -22.8639    0.6660   28.9740 C.3     1  UNL1        0.2188
@<TRIPOS>BOND
     1     1    28    1
     2     2     7    1
     3     2     1    1
     4     3     2    2
     5     4     3    1
     6     4     5    2
     7     5     6    1
     8     6     7    2
     9     8     1    1
    10     8     9    1
    11     8    12    1
    12     9    10    1
    13    10    11    1
    14    12    11    1
    15    13    37    1
    16    14    13    1
    17    14    15    1
    18    15    18    2
    19    16    17    1
    20    16    15    1
    21    19    14    2
    22    20    21    2
    23    20    19    1
    24    21    26    1
    25    22    21    1
    26    23    22    1
    27    24    23    1
    28    24    25    1
    29    26    27    1
    30    26    13    2
    31    29    42    1
    32    29    30    1
    33    30    32    2
    34    30    28    1
    35    33    43    1
    36    33    40    1
    37    34    32    1
    38    35    43    1
    39    36    37    2
    40    36    35    1
    41    37    33    1
    42    38    34    2
    43    39    38    1
    44    39    29    2
    45    40    28    1
    46    41    36    1
    47    43    31    1
