@<TRIPOS>MOLECULE
No_1755-gen_results/8p0m/2024-11-27-11-27-31/
 24 25 0 0 0
SMALL
GASTEIGER

@<TRIPOS>ATOM
      1 C         -28.0162   -0.8135   28.8779 C.ar    1  UNL1        0.0046
      2 C         -28.4690   -0.7850   29.8287 C.ar    1  UNL1        0.0554
      3 C         -26.5042   -0.7777   28.8766 C.ar    1  UNL1        0.0001
      4 C         -25.8103   -0.8531   30.1028 C.ar    1  UNL1        0.0000
      5 C         -27.9906   -0.8916   31.2257 C.ar    1  UNL1        0.0046
      6 C         -26.6042   -0.8676   31.2652 C.ar    1  UNL1        0.0001
      7 C         -30.0739   -0.8360   29.8615 C.2     1  UNL1        0.2690
      8 O         -30.5608   -0.4418   28.9417 O.2     1  UNL1       -0.2680
      9 N         -30.7486   -1.4028   30.9474 N.am    1  UNL1       -0.1754
     10 C         -32.1749   -1.4682   30.8889 C.ar    1  UNL1        0.0738
     11 C         -32.6810   -2.3081   31.6134 C.ar    1  UNL1        0.0166
     12 C         -34.0954   -2.5687   31.5966 C.ar    1  UNL1        0.0015
     13 C         -34.8542   -1.7456   30.7034 C.ar    1  UNL1        0.0047
     14 C         -34.2006   -0.8452   29.9005 C.ar    1  UNL1        0.0567
     15 C         -32.8365   -0.6633   29.9584 C.ar    1  UNL1        0.0212
     16 C         -34.9971    0.0030   28.9745 C.2     1  UNL1        0.2691
     17 O         -36.0535    0.1445   28.9583 O.2     1  UNL1       -0.2680
     18 N         -34.1434    0.9295   28.2558 N.am    1  UNL1       -0.1741
     19 C         -34.6855    1.9955   27.5357 C.2     1  UNL1        0.0889
     20 C         -33.8808    2.4657   26.6767 C.2     1  UNL1        0.0179
     21 C         -34.1973    3.5457   25.8317 C.2     1  UNL1        0.0014
     22 C         -33.2788    4.1118   24.8840 C.2     1  UNL1        0.0000
     23 C         -31.9839    3.4996   24.7619 C.2     1  UNL1        0.0000
     24 C         -31.6320    2.4551   25.5755 C.2     1  UNL1        0.0000
@<TRIPOS>BOND
     1     2     7    1
     2     7     8    2
     3     7     9   am
     4     9    10    1
     5    14    16    1
     6    16    17    2
     7    16    18   am
     8    18    19    1
     9    19    20    2
    10    20    21    1
    11    21    22    2
    12    22    23    1
    13    23    24    2
    14     1     2   ar
    15     2     5   ar
    16     5     6   ar
    17     6     4   ar
    18     4     3   ar
    19     3     1   ar
    20    10    11   ar
    21    11    12   ar
    22    12    13   ar
    23    13    14   ar
    24    14    15   ar
    25    15    10   ar
