@<TRIPOS>MOLECULE
outputs/IAG933/test6/raw/output_1757_IAG933_linker_design_.xyz
 41 46 0 0 0
SMALL
GASTEIGER

@<TRIPOS>ATOM
      1 C         -24.8550   -1.0120   30.1430 C.3     1  UNL1        0.1177
      2 C         -24.9730   -2.5050   29.7880 C.2     1  UNL1       -0.0026
      3 C         -23.9060   -3.1730   29.1460 C.2     1  UNL1       -0.0026
      4 C         -23.9890   -4.5490   28.8530 C.2     1  UNL1       -0.0003
      5 C         -25.1370   -5.2800   29.2050 C.2     1  UNL1       -0.0000
      6 C         -26.2320   -4.6110   29.7840 C.2     1  UNL1       -0.0003
      7 C         -26.1550   -3.2320   30.0650 C.2     1  UNL1       -0.0026
      8 C         -25.3870   -0.6790   31.5710 C.3     1  UNL1        0.0954
      9 C         -25.1890    0.7730   32.0280 C.3     1  UNL1        0.0209
     10 C         -25.3360    0.6840   33.5440 C.3     1  UNL1        0.0203
     11 C         -24.8290   -0.7150   33.9050 C.3     1  UNL1        0.0888
     12 N         -24.7580   -1.4810   32.6460 N.3     1  UNL1       -0.2174
     13 C         -25.6880    1.6140   26.4610 C.2     1  UNL1        0.0247
     14 C         -26.2500    2.9200   26.3950 C.2     1  UNL1        0.0730
     15 C         -25.6420    4.0930   27.1230 C.2     1  UNL1        0.2661
     16 N         -25.6140    5.2520   26.4490 N.am    1  UNL1       -0.1997
     17 C         -25.0260    6.4790   26.9630 C.3     1  UNL1        0.1388
     18 O         -25.1430    3.9660   28.2430 O.2     1  UNL1       -0.2683
     19 C         -27.4380    3.0910   25.6450 C.2     1  UNL1        0.1064
     20 N         -28.0750    2.0890   25.0030 N.2     1  UNL1       -0.2081
     21 C         -27.5430    0.8490   25.0790 C.2     1  UNL1        0.2530
     22 O         -28.1930   -0.2080   24.4770 O.2     1  UNL1       -0.4558
     23 C         -29.4600    0.0050   23.8660 C.3     1  UNL1        0.2426
     24 C         -30.0650   -1.3770   23.5730 C.3     1  UNL1        0.2292
     25 O         -30.7290   -1.8780   24.7210 O.3     1  UNL1       -0.2162
     26 C         -26.3540    0.5760   25.7770 C.2     1  UNL1        0.1896
     27 F         -25.8600   -0.6810   25.7950 F       1  UNL1       -0.1996
     28 C         -20.2137    0.2913   28.5080 C.3     1  UNL1        0.1511
     29 O         -21.7237    2.3044   25.6641 O.3     1  UNL1       -0.3000
     30 N         -24.2351   -0.1009   29.1965 N.am    1  UNL1       -0.2587
     31 O         -20.4183    1.4748   27.6417 O.3     1  UNL1       -0.3269
     32 C         -24.6904    1.1298   27.2600 C.3     1  UNL1        0.1106
     33 O         -23.6875    3.3001   25.3281 O.3     1  UNL1       -0.1895
     34 C         -25.0694    0.5331   28.3837 C.2     1  UNL1        0.2335
     35 C         -23.0953    1.9700   25.4868 C.3     1  UNL1        0.2755
     36 C         -23.5515    1.4773   26.7964 C.3     1  UNL1        0.0961
     37 O         -26.3370    0.5835   28.6556 O.2     1  UNL1       -0.2742
     38 C         -22.5818    1.1404   27.5531 C.2     1  UNL1        0.0266
     39 C         -22.7173    0.3499   28.6926 C.2     1  UNL1        0.0309
     40 C         -21.4849    1.7549   26.9686 C.3     1  UNL1        0.2588
     41 C         -21.4677   -0.0028   29.2342 C.3     1  UNL1        0.0731
@<TRIPOS>BOND
     1     1     2    1
     2     2     7    1
     3     3     2    2
     4     4     3    1
     5     4     5    2
     6     5     6    1
     7     6     7    2
     8     8     1    1
     9     8     9    1
    10     8    12    1
    11     9    10    1
    12    10    11    1
    13    12    11    1
    14    14    13    1
    15    14    15    1
    16    15    18    2
    17    16    17    1
    18    16    15    1
    19    19    14    2
    20    20    21    2
    21    20    19    1
    22    21    26    1
    23    22    21    1
    24    23    22    1
    25    24    23    1
    26    24    25    1
    27    26    27    1
    28    26    13    2
    29    28    41    1
    30    30     1    1
    31    31    28    1
    32    32    13    1
    33    32    34    1
    34    34    37    2
    35    34    30   am
    36    35    33    1
    37    35    29    1
    38    35    36    1
    39    36    32    1
    40    36    38    1
    41    38    39    2
    42    39    30    1
    43    39    41    1
    44    40    29    1
    45    40    38    1
    46    40    31    1
