@<TRIPOS>MOLECULE
outputs/IAG933/test6/raw/output_1758_IAG933_linker_design_.xyz
 48 52 0 0 0
SMALL
GASTEIGER

@<TRIPOS>ATOM
      1 C         -24.8550   -1.0120   30.1430 C.3     1  UNL1        0.0661
      2 C         -24.9730   -2.5050   29.7880 C.2     1  UNL1       -0.0188
      3 C         -23.9060   -3.1730   29.1460 C.2     1  UNL1       -0.0042
      4 C         -23.9890   -4.5490   28.8530 C.2     1  UNL1       -0.0003
      5 C         -25.1370   -5.2800   29.2050 C.2     1  UNL1       -0.0000
      6 C         -26.2320   -4.6110   29.7840 C.2     1  UNL1       -0.0003
      7 C         -26.1550   -3.2320   30.0650 C.2     1  UNL1       -0.0042
      8 C         -25.3870   -0.6790   31.5710 C.3     1  UNL1        0.0792
      9 C         -25.1890    0.7730   32.0280 C.3     1  UNL1        0.0193
     10 C         -25.3360    0.6840   33.5440 C.3     1  UNL1        0.0202
     11 C         -24.8290   -0.7150   33.9050 C.3     1  UNL1        0.0887
     12 N         -24.7580   -1.4810   32.6460 N.3     1  UNL1       -0.2190
     13 C         -25.6880    1.6140   26.4610 C.2     1  UNL1        0.0345
     14 C         -26.2500    2.9200   26.3950 C.2     1  UNL1        0.0762
     15 C         -25.6420    4.0930   27.1230 C.2     1  UNL1        0.2664
     16 N         -25.6140    5.2520   26.4490 N.am    1  UNL1       -0.1997
     17 C         -25.0260    6.4790   26.9630 C.3     1  UNL1        0.1388
     18 O         -25.1430    3.9660   28.2430 O.2     1  UNL1       -0.2683
     19 C         -27.4380    3.0910   25.6450 C.2     1  UNL1        0.1067
     20 N         -28.0750    2.0890   25.0030 N.2     1  UNL1       -0.2081
     21 C         -27.5430    0.8490   25.0790 C.2     1  UNL1        0.2533
     22 O         -28.1930   -0.2080   24.4770 O.2     1  UNL1       -0.4558
     23 C         -29.4600    0.0050   23.8660 C.3     1  UNL1        0.2426
     24 C         -30.0650   -1.3770   23.5730 C.3     1  UNL1        0.2292
     25 O         -30.7290   -1.8780   24.7210 O.3     1  UNL1       -0.2162
     26 C         -26.3540    0.5760   25.7770 C.2     1  UNL1        0.1928
     27 F         -25.8600   -0.6810   25.7950 F       1  UNL1       -0.1992
     28 C         -26.4408    4.4078   33.7570 C.2     1  UNL1        0.0575
     29 C         -27.7305    1.7107   29.7571 C.3     1  UNL1        0.1517
     30 O         -29.4503    3.1664   31.3885 O.2     1  UNL1       -0.2729
     31 O         -24.4910    5.7754   33.7713 O.2     1  UNL1       -0.4317
     32 C         -24.4784    5.7450   32.4091 C.2     1  UNL1        0.2498
     33 C         -27.4716    3.1707   30.2339 C.3     1  UNL1        0.1191
     34 C         -24.4247    1.3749   27.0658 C.2     1  UNL1       -0.0135
     35 C         -21.1266    1.5830   27.6133 C.2     1  UNL1       -0.0003
     36 C         -23.2986    1.9961   26.2695 C.2     1  UNL1       -0.0038
     37 N         -28.0414    4.7385   31.9271 N.am    1  UNL1       -0.1789
     38 C         -26.7569    4.8854   32.4304 C.2     1  UNL1        0.0812
     39 C         -25.4585    0.0462   29.0248 C.3     1  UNL1        0.1285
     40 C         -21.6646    0.7575   28.7025 C.2     1  UNL1       -0.0042
     41 C         -28.4593    3.6386   31.2960 C.2     1  UNL1        0.2481
     42 N         -23.3831    5.9757   31.7926 N.2     1  UNL1       -0.1069
     43 C         -25.2776    4.8561   34.4142 C.2     1  UNL1        0.1829
     44 O         -26.7365    1.0551   28.8203 O.3     1  UNL1       -0.3547
     45 C         -24.3099    0.5362   28.1576 C.3     1  UNL1        0.0718
     46 C         -22.9905    0.2600   28.7920 C.2     1  UNL1       -0.0196
     47 C         -21.9330    2.1111   26.5343 C.2     1  UNL1       -0.0003
     48 C         -25.7058    5.4468   31.7099 C.2     1  UNL1        0.0763
@<TRIPOS>BOND
     1     1    39    1
     2     2     7    1
     3     2     1    1
     4     3     2    2
     5     4     3    1
     6     4     5    2
     7     5     6    1
     8     6     7    2
     9     8     1    1
    10     8     9    1
    11     8    12    1
    12     9    10    1
    13    10    11    1
    14    12    11    1
    15    13    34    1
    16    14    13    1
    17    14    15    1
    18    15    18    2
    19    16    17    1
    20    16    15    1
    21    19    14    2
    22    20    21    2
    23    20    19    1
    24    21    26    1
    25    22    21    1
    26    23    22    1
    27    24    23    1
    28    24    25    1
    29    26    27    1
    30    26    13    2
    31    28    43    2
    32    29    33    1
    33    31    43    1
    34    32    31    1
    35    33    41    1
    36    34    45    1
    37    35    40    1
    38    36    47    1
    39    36    34    2
    40    37    38    1
    41    38    28    1
    42    39    44    1
    43    40    46    2
    44    41    30    2
    45    41    37    1
    46    42    32    2
    47    44    29    1
    48    45    46    1
    49    45    39    1
    50    47    35    2
    51    48    32    1
    52    48    38    2
