@<TRIPOS>MOLECULE
No_1759-gen_results/8p0m/2024-11-27-11-27-31/
 35 37 0 0 0
SMALL
GASTEIGER

@<TRIPOS>ATOM
      1 C         -28.0162   -0.8135   28.8779 C.ar    1  UNL1        0.0335
      2 C         -27.0636   -0.1190   28.6079 C.ar    1  UNL1       -0.0083
      3 C         -25.7923   -0.4302   29.0761 C.ar    1  UNL1        0.0539
      4 C         -25.5756   -1.5654   29.9363 C.ar    1  UNL1        0.0142
      5 C         -26.7354   -2.3004   30.2173 C.ar    1  UNL1        0.0377
      6 C         -27.9184   -1.9537   29.7629 C.ar    1  UNL1        0.1386
      7 O         -29.0001   -2.7012   30.1151 O.3     1  UNL1       -0.4690
      8 CL        -24.3499    0.4889   28.7497 Cl      1  UNL1       -0.0826
      9 C         -29.3705   -2.8230   31.4465 C.3     1  UNL1        0.2784
     10 C         -30.7366   -2.7004   31.6213 C.3     1  UNL1        0.3456
     11 P         -31.2261   -2.8444   33.1439 P.3     1  UNL1        0.1828
     12 O         -30.2470   -3.4065   33.9198 O.3     1  UNL1       -0.3535
     13 O         -31.4690   -1.4148   33.6732 O.2     1  UNL1       -0.4545
     14 O         -32.5575   -3.5950   33.1499 O.3     1  UNL1       -0.3535
     15 F         -31.0615   -1.4370   31.1066 F       1  UNL1       -0.1927
     16 F         -31.3939   -3.5964   30.8047 F       1  UNL1       -0.1927
     17 C         -26.9472    1.0413   27.6168 C.3     1  UNL1        0.0313
     18 C         -26.5549    0.8821   26.3527 C.3     1  UNL1        0.0264
     19 C         -26.0909   -0.2442   25.8567 C.2     1  UNL1       -0.0261
     20 C         -25.6397   -0.3391   24.4907 C.2     1  UNL1       -0.0049
     21 C         -26.7284    1.8861   25.4058 C.3     1  UNL1        0.0047
     22 C         -27.2309    3.1932   25.8612 C.3     1  UNL1        0.0007
     23 C         -27.5690    2.2598   28.0675 C.3     1  UNL1        0.0267
     24 C         -27.6607    3.3460   27.1652 C.3     1  UNL1        0.0044
     25 C         -28.0516    2.5041   29.4310 C.ar    1  UNL1       -0.0220
     26 C         -29.3014    2.2183   29.7518 C.ar    1  UNL1       -0.0043
     27 C         -29.7156    2.3579   31.1111 C.ar    1  UNL1       -0.0002
     28 C         -28.7881    2.5191   32.1382 C.ar    1  UNL1        0.0046
     29 C         -27.4452    2.7764   31.7723 C.ar    1  UNL1        0.0563
     30 C         -27.0440    2.7290   30.4648 C.ar    1  UNL1        0.0004
     31 C         -26.4531    3.0611   32.8421 C.2     1  UNL1        0.2842
     32 N         -26.4537    2.7771   33.9191 N.am    1  UNL1       -0.0837
     33 O         -25.3455    3.7225   32.3390 O.2     1  UNL1       -0.2667
     34 C         -28.1699    4.6553   27.6243 C.3     1  UNL1        0.0003
     35 C         -27.3238    5.6299   28.0849 C.3     1  UNL1        0.0000
@<TRIPOS>BOND
     1     6     7    1
     2     3     8    1
     3     7     9    1
     4     9    10    1
     5    10    11    1
     6    11    12    1
     7    11    13    2
     8    11    14    1
     9    10    15    1
    10    10    16    1
    11     2    17    1
    12    17    18    1
    13    18    19    1
    14    19    20    2
    15    18    21    1
    16    21    22    1
    17    17    23    1
    18    22    24    1
    19    23    24    1
    20    23    25    1
    21    29    31    1
    22    31    32   am
    23    31    33    2
    24    24    34    1
    25    34    35    1
    26     1     2   ar
    27     2     3   ar
    28     3     4   ar
    29     4     5   ar
    30     5     6   ar
    31     6     1   ar
    32    25    26   ar
    33    26    27   ar
    34    27    28   ar
    35    28    29   ar
    36    29    30   ar
    37    30    25   ar
