@<TRIPOS>MOLECULE
No_176-gen_results/8p0m/2024-11-27-11-27-31/
 9 9 0 0 0
SMALL
GASTEIGER

@<TRIPOS>ATOM
      1 C         -28.0162   -0.8135   28.8779 C.3     1  UNL1        0.0003
      2 C         -28.4690   -0.7850   29.8287 C.3     1  UNL1        0.0000
      3 C         -28.1816    0.4277   28.1134 C.3     1  UNL1        0.0043
      4 C         -29.3519    0.6041   27.4037 C.3     1  UNL1        0.0220
      5 C         -30.4853    0.3938   28.3041 C.3     1  UNL1        0.0043
      6 C         -29.9642   -1.0433   30.1728 C.3     1  UNL1        0.0000
      7 C         -30.8034   -0.6515   29.0763 C.3     1  UNL1        0.0003
      8 C         -29.3934    0.7984   26.0871 C.2     1  UNL1       -0.0265
      9 C         -28.2381    0.9018   25.3275 C.2     1  UNL1       -0.0049
@<TRIPOS>BOND
     1     1     2    1
     2     1     3    1
     3     3     4    1
     4     4     5    1
     5     2     6    1
     6     5     7    1
     7     6     7    1
     8     4     8    1
     9     8     9    2
