@<TRIPOS>MOLECULE
No_1762-gen_results/8p0m/2024-11-27-11-27-31/
 25 27 0 0 0
SMALL
GASTEIGER

@<TRIPOS>ATOM
      1 C         -28.0162   -0.8135   28.8779 C.ar    1  UNL1        0.0260
      2 C         -28.4690   -0.7850   29.8287 C.ar    1  UNL1        0.1399
      3 C         -27.1356    0.2359   28.5352 C.ar    1  UNL1       -0.0121
      4 C         -26.8745    1.2825   29.3982 C.ar    1  UNL1       -0.0035
      5 C         -27.5070    1.2380   30.6295 C.ar    1  UNL1        0.0020
      6 C         -28.3293    0.1745   30.9350 C.ar    1  UNL1        0.0296
      7 C         -26.4077    0.3070   27.2259 C.3     1  UNL1        0.0664
      8 C         -25.0105    0.3902   27.3228 C.ar    1  UNL1       -0.0141
      9 C         -24.3683    0.2207   28.5237 C.ar    1  UNL1       -0.0004
     10 C         -23.1662    0.6628   28.7374 C.ar    1  UNL1        0.0417
     11 C         -22.4319    1.3029   27.6534 C.ar    1  UNL1        0.1957
     12 C         -23.1111    1.6207   26.5046 C.ar    1  UNL1        0.0417
     13 C         -24.4286    1.2494   26.3309 C.ar    1  UNL1       -0.0004
     14 C         -27.1152    1.1656   26.3023 C.2     1  UNL1       -0.0177
     15 C         -27.3644    1.2115   25.3331 C.2     1  UNL1       -0.0039
     16 C         -27.3038   -0.0288   24.4901 C.2     1  UNL1       -0.0003
     17 C         -28.3083   -0.8922   24.5985 C.2     1  UNL1       -0.0000
     18 C         -29.5993   -0.5205   25.0464 C.ar    1  UNL1       -0.0000
     19 C         -30.7482   -1.3436   24.6809 C.ar    1  UNL1       -0.0000
     20 C         -31.9937   -1.0869   25.0449 C.ar    1  UNL1        0.0000
     21 C         -32.2952    0.0720   25.7755 C.ar    1  UNL1        0.0000
     22 C         -31.2512    0.9077   26.1487 C.ar    1  UNL1        0.0000
     23 C         -29.9834    0.6523   25.8061 C.ar    1  UNL1       -0.0000
     24 O         -21.1889    1.7429   27.8564 O.3     1  UNL1       -0.2866
     25 F         -29.4137   -1.8169   30.1889 F       1  UNL1       -0.2042
@<TRIPOS>BOND
     1     3     7    1
     2     7    14    1
     3    14    15    2
     4    15    16    1
     5    16    17    2
     6    17    18    1
     7    11    24    1
     8     2    25    1
     9     7     8    1
    10    18    19   ar
    11    19    20   ar
    12    20    21   ar
    13    21    22   ar
    14    22    23   ar
    15    23    18   ar
    16     1     2   ar
    17     2     6   ar
    18     6     5   ar
    19     5     4   ar
    20     4     3   ar
    21     3     1   ar
    22     8     9   ar
    23     9    10   ar
    24    10    11   ar
    25    11    12   ar
    26    12    13   ar
    27    13     8   ar
