@<TRIPOS>MOLECULE
outputs/IAG933/test6/raw/output_1763_IAG933_linker_design_.xyz
 44 48 0 0 0
SMALL
GASTEIGER

@<TRIPOS>ATOM
      1 C         -24.8550   -1.0120   30.1430 C.3     1  UNL1        0.0603
      2 C         -24.9730   -2.5050   29.7880 C.2     1  UNL1       -0.0171
      3 C         -23.9060   -3.1730   29.1460 C.2     1  UNL1       -0.0039
      4 C         -23.9890   -4.5490   28.8530 C.2     1  UNL1       -0.0003
      5 C         -25.1370   -5.2800   29.2050 C.2     1  UNL1       -0.0000
      6 C         -26.2320   -4.6110   29.7840 C.2     1  UNL1       -0.0003
      7 C         -26.1550   -3.2320   30.0650 C.2     1  UNL1       -0.0039
      8 C         -25.3870   -0.6790   31.5710 C.3     1  UNL1        0.0808
      9 C         -25.1890    0.7730   32.0280 C.3     1  UNL1        0.0195
     10 C         -25.3360    0.6840   33.5440 C.3     1  UNL1        0.0203
     11 C         -24.8290   -0.7150   33.9050 C.3     1  UNL1        0.0887
     12 N         -24.7580   -1.4810   32.6460 N.3     1  UNL1       -0.2188
     13 C         -25.6880    1.6140   26.4610 C.2     1  UNL1        0.0407
     14 C         -26.2500    2.9200   26.3950 C.2     1  UNL1        0.0745
     15 C         -25.6420    4.0930   27.1230 C.2     1  UNL1        0.2240
     16 N         -25.6140    5.2520   26.4490 N.2     1  UNL1       -0.2356
     17 C         -25.0260    6.4790   26.9630 C.3     1  UNL1        0.1550
     18 O         -25.1430    3.9660   28.2430 O.2     1  UNL1       -0.4361
     19 C         -27.4380    3.0910   25.6450 C.2     1  UNL1        0.1068
     20 N         -28.0750    2.0890   25.0030 N.2     1  UNL1       -0.2081
     21 C         -27.5430    0.8490   25.0790 C.2     1  UNL1        0.2533
     22 O         -28.1930   -0.2080   24.4770 O.2     1  UNL1       -0.4558
     23 C         -29.4600    0.0050   23.8660 C.3     1  UNL1        0.2426
     24 C         -30.0650   -1.3770   23.5730 C.3     1  UNL1        0.2292
     25 O         -30.7290   -1.8780   24.7210 O.3     1  UNL1       -0.2162
     26 C         -26.3540    0.5760   25.7770 C.2     1  UNL1        0.1931
     27 F         -25.8600   -0.6810   25.7950 F       1  UNL1       -0.1992
     28 C         -26.5689    2.0009   29.3964 C.2     1  UNL1       -0.0171
     29 O         -22.7365    2.0103   26.2170 O.2     1  UNL1       -0.2501
     30 C         -25.2743    1.1537   29.1080 C.2     1  UNL1        0.0139
     31 C         -23.6925    0.9785   28.9596 C.3     1  UNL1        0.2344
     32 C         -27.2356   -0.5148   29.0193 C.2     1  UNL1       -0.0041
     33 C         -28.2950    0.3668   29.0336 C.2     1  UNL1       -0.0006
     34 C         -22.2982    1.9877   27.3379 C.2     1  UNL1        0.3179
     35 C         -20.8560    1.8874   27.5783 C.3     1  UNL1        0.1212
     36 C         -26.3935    3.2378   29.9826 C.3     1  UNL1        0.0948
     37 O         -23.0268    2.0134   28.4850 O.3     1  UNL1       -0.4435
     38 C         -28.5392    4.6627   30.3894 C.3     1  UNL1        0.0031
     39 C         -27.4181    3.8420   31.1949 C.3     1  UNL1        0.0399
     40 C         -26.3730    4.9417   31.7857 C.3     1  UNL1        0.1464
     41 C         -27.9514    1.7066   29.2028 C.2     1  UNL1       -0.0043
     42 C         -25.8581   -0.2052   29.3565 C.2     1  UNL1       -0.0179
     43 O         -25.4563    4.9134   30.4382 O.3     1  UNL1       -0.3203
     44 C         -25.6589    4.0844   29.6321 C.3     1  UNL1        0.2930
@<TRIPOS>BOND
     1     1    42    1
     2     2     7    1
     3     2     1    1
     4     3     2    2
     5     4     3    1
     6     4     5    2
     7     5     6    1
     8     6     7    2
     9     8     1    1
    10     8     9    1
    11     8    12    1
    12     9    10    1
    13    10    11    1
    14    12    11    1
    15    14    13    1
    16    14    15    1
    17    15    18    1
    18    16    17    1
    19    16    15    2
    20    19    14    2
    21    20    21    2
    22    20    19    1
    23    21    26    1
    24    22    21    1
    25    23    22    1
    26    24    23    1
    27    24    25    1
    28    26    27    1
    29    26    13    2
    30    29    34    2
    31    30    42    1
    32    30    28    2
    33    31    30    1
    34    32    33    1
    35    32    42    2
    36    33    41    2
    37    34    35    1
    38    34    37    1
    39    36    28    1
    40    36    39    1
    41    37    31    1
    42    39    38    1
    43    39    40    1
    44    41    28    1
    45    43    40    1
    46    44    18    1
    47    44    36    1
    48    44    43    1
