@<TRIPOS>MOLECULE
No_1764-gen_results/8p0m/2024-11-27-11-27-31/
 23 25 0 0 0
SMALL
GASTEIGER

@<TRIPOS>ATOM
      1 C         -28.0162   -0.8135   28.8779 C.3     1  UNL1        0.1198
      2 C         -27.0636   -0.1190   28.6079 C.ar    1  UNL1       -0.0062
      3 C         -25.7923   -0.4302   29.0761 C.ar    1  UNL1       -0.0227
      4 C         -24.5456    0.3494   28.8225 C.ar    1  UNL1        0.0001
      5 C         -24.6586    1.4196   27.8878 C.ar    1  UNL1        0.0563
      6 C         -25.9471    1.6811   27.3792 C.ar    1  UNL1        0.0043
      7 C         -27.0439    0.9739   27.6871 C.ar    1  UNL1       -0.0025
      8 N         -28.6643   -0.5274   30.1017 N.am    1  UNL1       -0.2767
      9 C         -29.6646   -0.3963   30.4406 C.2     1  UNL1        0.2258
     10 O         -30.5800   -0.4891   29.5997 O.2     1  UNL1       -0.2749
     11 C         -30.0636   -0.0013   31.9105 C.3     1  UNL1        0.0853
     12 C         -23.4544    2.1690   27.5969 C.2     1  UNL1        0.2842
     13 N         -22.2554    1.7562   28.0726 N.am    1  UNL1       -0.0837
     14 O         -23.5034    3.0264   26.6737 O.2     1  UNL1       -0.2667
     15 C         -29.5401    0.8914   32.4950 C.3     1  UNL1        0.0096
     16 C         -28.1864    0.6244   32.8272 C.3     1  UNL1        0.0022
     17 C         -27.1496    0.3997   31.7419 C.3     1  UNL1        0.0202
     18 C         -27.3513   -0.1561   30.9230 C.3     1  UNL1        0.0800
     19 C         -26.0284   -0.5538   30.2144 C.3     1  UNL1        0.0459
     20 C         -28.3037    1.3807   27.0547 C.2     1  UNL1       -0.0003
     21 C         -28.8158    1.3723   26.1613 C.2     1  UNL1       -0.0000
     22 C         -27.9983    0.9899   24.9170 C.2     1  UNL1       -0.0000
     23 C         -28.5910    0.7622   23.6536 C.2     1  UNL1       -0.0000
@<TRIPOS>BOND
     1     1     2    1
     2     1     8    1
     3     8     9   am
     4     9    10    2
     5     9    11    1
     6     5    12    1
     7    12    13   am
     8    12    14    2
     9    11    15    1
    10    15    16    1
    11    16    17    1
    12     8    18    1
    13     3    19    1
    14    18    19    1
    15     7    20    1
    16    20    21    2
    17    21    22    1
    18    22    23    2
    19    17    18    1
    20     2     7   ar
    21     7     6   ar
    22     6     5   ar
    23     5     4   ar
    24     4     3   ar
    25     3     2   ar
