@<TRIPOS>MOLECULE
outputs/IAG933/test6/raw/output_1766_IAG933_linker_design_.xyz
 41 43 0 0 0
SMALL
GASTEIGER

@<TRIPOS>ATOM
      1 C         -24.8550   -1.0120   30.1430 C.3     1  UNL1        0.0490
      2 C         -24.9730   -2.5050   29.7880 C.2     1  UNL1       -0.0206
      3 C         -23.9060   -3.1730   29.1460 C.2     1  UNL1       -0.0042
      4 C         -23.9890   -4.5490   28.8530 C.2     1  UNL1       -0.0003
      5 C         -25.1370   -5.2800   29.2050 C.2     1  UNL1       -0.0000
      6 C         -26.2320   -4.6110   29.7840 C.2     1  UNL1       -0.0003
      7 C         -26.1550   -3.2320   30.0650 C.2     1  UNL1       -0.0042
      8 C         -25.3870   -0.6790   31.5710 C.3     1  UNL1        0.0773
      9 C         -25.1890    0.7730   32.0280 C.3     1  UNL1        0.0192
     10 C         -25.3360    0.6840   33.5440 C.3     1  UNL1        0.0202
     11 C         -24.8290   -0.7150   33.9050 C.3     1  UNL1        0.0887
     12 N         -24.7580   -1.4810   32.6460 N.3     1  UNL1       -0.2191
     13 C         -25.6880    1.6140   26.4610 C.3     1  UNL1        0.0702
     14 C         -26.2500    2.9200   26.3950 C.2     1  UNL1        0.0548
     15 C         -25.6420    4.0930   27.1230 C.2     1  UNL1        0.2624
     16 N         -25.6140    5.2520   26.4490 N.am    1  UNL1       -0.2000
     17 C         -25.0260    6.4790   26.9630 C.3     1  UNL1        0.1388
     18 O         -25.1430    3.9660   28.2430 O.2     1  UNL1       -0.2687
     19 C         -27.4380    3.0910   25.6450 C.2     1  UNL1        0.1021
     20 N         -28.0750    2.0890   25.0030 N.2     1  UNL1       -0.2119
     21 C         -27.5430    0.8490   25.0790 C.2     1  UNL1        0.2341
     22 O         -28.1930   -0.2080   24.4770 O.2     1  UNL1       -0.4585
     23 C         -29.4600    0.0050   23.8660 C.3     1  UNL1        0.2423
     24 C         -30.0650   -1.3770   23.5730 C.3     1  UNL1        0.2292
     25 O         -30.7290   -1.8780   24.7210 O.3     1  UNL1       -0.2162
     26 C         -26.3540    0.5760   25.7770 C.3     1  UNL1        0.2400
     27 F         -25.8600   -0.6810   25.7950 F       1  UNL1       -0.2269
     28 O         -27.7348   -0.5968   29.6892 O.co2   1  UNL1       -0.2457
     29 C         -27.0403   -0.4479   28.7211 C.2     1  UNL1        0.3647
     30 C         -25.5415   -0.0995   29.1648 C.3     1  UNL1        0.1088
     31 C         -22.4937    1.7260   26.6445 C.3     1  UNL1        0.0297
     32 O         -20.7657    0.2717   28.2435 O.3     1  UNL1       -0.3354
     33 C         -21.7237   -0.3423   29.0506 C.3     1  UNL1        0.2539
     34 C         -21.1988    1.1224   27.1487 C.3     1  UNL1        0.1439
     35 C         -22.9418    1.9326   25.2196 C.3     1  UNL1        0.0026
     36 C         -23.4474    2.1987   27.1291 C.3     1  UNL1        0.0029
     37 N         -22.9528    0.0619   28.9167 N.3     1  UNL1       -0.0179
     38 O         -27.5492   -0.7394   27.6231 O.co2   1  UNL1       -0.2457
     39 C         -24.6550    1.5455   27.5556 C.3     1  UNL1        0.0080
     40 C         -24.2802    0.4370   28.3382 C.3     1  UNL1        0.0120
     41 N         -22.2650   -0.6744   29.7182 N.3     1  UNL1       -0.0794
@<TRIPOS>BOND
     1     1    30    1
     2     2     7    1
     3     2     1    1
     4     3     2    2
     5     4     3    1
     6     4     5    2
     7     5     6    1
     8     6     7    2
     9     8     1    1
    10     8     9    1
    11     8    12    1
    12     9    10    1
    13    10    11    1
    14    12    11    1
    15    13    39    1
    16    14    13    1
    17    14    15    1
    18    15    18    2
    19    16    17    1
    20    16    15    1
    21    19    14    2
    22    20    21    2
    23    20    19    1
    24    21    26    1
    25    22    21    1
    26    23    22    1
    27    24    23    1
    28    24    25    1
    29    26    27    1
    30    26    13    1
    31    29    30    1
    32    29    28   ar
    33    30    40    1
    34    31    35    1
    35    31    36    1
    36    31    34    1
    37    32    33    1
    38    33    41    1
    39    34    32    1
    40    37    41    1
    41    38    29   ar
    42    39    36    1
    43    39    40    1
