@<TRIPOS>MOLECULE
outputs/IAG933/test6/raw/output_1767_IAG933_linker_design_.xyz
 44 47 0 0 0
SMALL
GASTEIGER

@<TRIPOS>ATOM
      1 C         -24.8550   -1.0120   30.1430 C.3     1  UNL1        0.0383
      2 C         -24.9730   -2.5050   29.7880 C.2     1  UNL1       -0.0212
      3 C         -23.9060   -3.1730   29.1460 C.2     1  UNL1       -0.0042
      4 C         -23.9890   -4.5490   28.8530 C.2     1  UNL1       -0.0003
      5 C         -25.1370   -5.2800   29.2050 C.2     1  UNL1       -0.0000
      6 C         -26.2320   -4.6110   29.7840 C.2     1  UNL1       -0.0003
      7 C         -26.1550   -3.2320   30.0650 C.2     1  UNL1       -0.0042
      8 C         -25.3870   -0.6790   31.5710 C.3     1  UNL1        0.0768
      9 C         -25.1890    0.7730   32.0280 C.3     1  UNL1        0.0192
     10 C         -25.3360    0.6840   33.5440 C.3     1  UNL1        0.0202
     11 C         -24.8290   -0.7150   33.9050 C.3     1  UNL1        0.0887
     12 N         -24.7580   -1.4810   32.6460 N.3     1  UNL1       -0.2191
     13 C         -25.6880    1.6140   26.4610 C.2     1  UNL1        0.0169
     14 C         -26.2500    2.9200   26.3950 C.2     1  UNL1        0.0726
     15 C         -25.6420    4.0930   27.1230 C.2     1  UNL1        0.2661
     16 N         -25.6140    5.2520   26.4490 N.am    1  UNL1       -0.1997
     17 C         -25.0260    6.4790   26.9630 C.3     1  UNL1        0.1388
     18 O         -25.1430    3.9660   28.2430 O.2     1  UNL1       -0.2683
     19 C         -27.4380    3.0910   25.6450 C.2     1  UNL1        0.1064
     20 N         -28.0750    2.0890   25.0030 N.2     1  UNL1       -0.2081
     21 C         -27.5430    0.8490   25.0790 C.2     1  UNL1        0.2530
     22 O         -28.1930   -0.2080   24.4770 O.2     1  UNL1       -0.4558
     23 C         -29.4600    0.0050   23.8660 C.3     1  UNL1        0.2426
     24 C         -30.0650   -1.3770   23.5730 C.3     1  UNL1        0.2292
     25 O         -30.7290   -1.8780   24.7210 O.3     1  UNL1       -0.2162
     26 C         -26.3540    0.5760   25.7770 C.2     1  UNL1        0.1891
     27 F         -25.8600   -0.6810   25.7950 F       1  UNL1       -0.1996
     28 O         -28.8272   -1.8570   30.3244 O.3     1  UNL1       -0.2225
     29 C         -20.8335    1.7177   27.3899 C.3     1  UNL1        0.0896
     30 N         -22.1268    1.3014   27.1293 N.3     1  UNL1       -0.2712
     31 C         -26.3729    1.1370   29.2010 C.3     1  UNL1        0.0005
     32 C         -24.5746    1.3432   27.3516 C.3     1  UNL1        0.0409
     33 C         -28.8217    0.0209   28.8137 C.3     1  UNL1        0.0335
     34 C         -22.8256   -0.2167   28.4051 C.3     1  UNL1        0.0177
     35 O         -31.4720   -0.8559   30.6729 O.co2   1  UNL1       -0.2456
     36 C         -30.7082   -1.5194   28.5032 C.3     1  UNL1        0.1468
     37 C         -29.3065   -1.4042   29.0953 C.3     1  UNL1        0.1633
     38 O         -32.5471   -2.4415   29.6434 O.co2   1  UNL1       -0.2456
     39 C         -22.1099    0.8638   28.1965 C.3     1  UNL1        0.0722
     40 C         -23.2631    1.8031   26.5830 C.3     1  UNL1        0.0765
     41 C         -31.6390   -1.5850   29.6751 C.2     1  UNL1        0.3674
     42 C         -25.4542   -0.0981   29.0886 C.3     1  UNL1        0.0058
     43 C         -24.3412    0.0569   28.0109 C.3     1  UNL1        0.0072
     44 C         -27.7783    0.6999   29.6866 C.3     1  UNL1        0.0026
@<TRIPOS>BOND
     1     1    42    1
     2     2     7    1
     3     2     1    1
     4     3     2    2
     5     4     3    1
     6     4     5    2
     7     5     6    1
     8     6     7    2
     9     8     1    1
    10     8     9    1
    11     8    12    1
    12     9    10    1
    13    10    11    1
    14    12    11    1
    15    14    13    1
    16    14    15    1
    17    15    18    2
    18    16    17    1
    19    16    15    1
    20    19    14    2
    21    20    21    2
    22    20    19    1
    23    21    26    1
    24    22    21    1
    25    23    22    1
    26    24    23    1
    27    24    25    1
    28    26    27    1
    29    26    13    2
    30    30    29    1
    31    30    39    1
    32    31    44    1
    33    32    13    1
    34    32    43    1
    35    33    37    1
    36    33    44    1
    37    36    37    1
    38    36    41    1
    39    37    28    1
    40    38    41   ar
    41    39    34    1
    42    40    30    1
    43    40    32    1
    44    41    35   ar
    45    42    31    1
    46    43    34    1
    47    43    42    1
