@<TRIPOS>MOLECULE
outputs/IAG933/test6/raw/output_1768_IAG933_linker_design_.xyz
 41 44 0 0 0
SMALL
GASTEIGER

@<TRIPOS>ATOM
      1 C         -24.8550   -1.0120   30.1430 C.3     1  UNL1        0.1251
      2 C         -24.9730   -2.5050   29.7880 C.2     1  UNL1       -0.0041
      3 C         -23.9060   -3.1730   29.1460 C.2     1  UNL1       -0.0029
      4 C         -23.9890   -4.5490   28.8530 C.2     1  UNL1       -0.0003
      5 C         -25.1370   -5.2800   29.2050 C.2     1  UNL1       -0.0000
      6 C         -26.2320   -4.6110   29.7840 C.2     1  UNL1       -0.0003
      7 C         -26.1550   -3.2320   30.0650 C.2     1  UNL1       -0.0029
      8 C         -25.3870   -0.6790   31.5710 C.3     1  UNL1        0.0939
      9 C         -25.1890    0.7730   32.0280 C.3     1  UNL1        0.0207
     10 C         -25.3360    0.6840   33.5440 C.3     1  UNL1        0.0203
     11 C         -24.8290   -0.7150   33.9050 C.3     1  UNL1        0.0888
     12 N         -24.7580   -1.4810   32.6460 N.3     1  UNL1       -0.2177
     13 C         -25.6880    1.6140   26.4610 C.2     1  UNL1        0.0331
     14 C         -26.2500    2.9200   26.3950 C.2     1  UNL1        0.0739
     15 C         -25.6420    4.0930   27.1230 C.2     1  UNL1        0.2662
     16 N         -25.6140    5.2520   26.4490 N.am    1  UNL1       -0.1997
     17 C         -25.0260    6.4790   26.9630 C.3     1  UNL1        0.1388
     18 O         -25.1430    3.9660   28.2430 O.2     1  UNL1       -0.2683
     19 C         -27.4380    3.0910   25.6450 C.2     1  UNL1        0.1065
     20 N         -28.0750    2.0890   25.0030 N.2     1  UNL1       -0.2081
     21 C         -27.5430    0.8490   25.0790 C.2     1  UNL1        0.2530
     22 O         -28.1930   -0.2080   24.4770 O.2     1  UNL1       -0.4558
     23 C         -29.4600    0.0050   23.8660 C.3     1  UNL1        0.2426
     24 C         -30.0650   -1.3770   23.5730 C.3     1  UNL1        0.2292
     25 O         -30.7290   -1.8780   24.7210 O.3     1  UNL1       -0.2162
     26 C         -26.3540    0.5760   25.7770 C.2     1  UNL1        0.1905
     27 F         -25.8600   -0.6810   25.7950 F       1  UNL1       -0.1995
     28 C         -26.7925   -0.2376   28.4565 C.3     1  UNL1        0.0218
     29 F         -23.5751    1.0282   24.1487 F       1  UNL1       -0.1979
     30 O         -20.7330    0.6099   27.8729 O.3     1  UNL1       -0.3308
     31 O         -22.0435    1.8571   25.4563 O.3     1  UNL1       -0.3055
     32 N         -24.7540    0.2319   29.4187 N.3     1  UNL1       -0.1286
     33 N         -23.5500    1.4900   27.0775 N.3     1  UNL1       -0.1850
     34 O         -24.3851    1.3546   29.8196 O.3     1  UNL1       -0.1177
     35 C         -22.3064    1.5034   26.7776 C.3     1  UNL1        0.2238
     36 N         -21.8755   -0.4349   29.5641 N.3     1  UNL1       -0.0973
     37 C         -25.3093    0.0390   28.1411 C.3     1  UNL1        0.1077
     38 C         -21.8132    0.4669   28.4744 C.3     1  UNL1        0.2378
     39 C         -23.1258    2.2486   24.5496 C.3     1  UNL1        0.3419
     40 C         -24.7699    1.0923   27.2974 C.3     1  UNL1        0.1169
     41 C         -21.6089    0.7190   27.3540 C.3     1  UNL1        0.2061
@<TRIPOS>BOND
     1     1    32    1
     2     2     7    1
     3     2     1    1
     4     3     2    2
     5     4     3    1
     6     4     5    2
     7     5     6    1
     8     6     7    2
     9     8     1    1
    10     8     9    1
    11     8    12    1
    12     9    10    1
    13    10    11    1
    14    12    11    1
    15    13    40    1
    16    14    13    1
    17    14    15    1
    18    15    18    2
    19    16    17    1
    20    16    15    1
    21    19    14    2
    22    20    21    2
    23    20    19    1
    24    21    26    1
    25    22    21    1
    26    23    22    1
    27    24    23    1
    28    24    25    1
    29    26    27    1
    30    26    13    2
    31    29    39    1
    32    30    38    1
    33    32    34    1
    34    35    31    1
    35    35    33    1
    36    37    28    1
    37    37    32    1
    38    38    36    1
    39    39    31    1
    40    40    33    1
    41    40    37    1
    42    41    35    1
    43    41    30    1
    44    41    38    1
