@<TRIPOS>MOLECULE
outputs/IAG933/test6/raw/output_1769_IAG933_linker_design_.xyz
 49 54 0 0 0
SMALL
GASTEIGER

@<TRIPOS>ATOM
      1 C         -24.8550   -1.0120   30.1430 C.3     1  UNL1        0.0387
      2 C         -24.9730   -2.5050   29.7880 C.2     1  UNL1       -0.0211
      3 C         -23.9060   -3.1730   29.1460 C.2     1  UNL1       -0.0042
      4 C         -23.9890   -4.5490   28.8530 C.2     1  UNL1       -0.0003
      5 C         -25.1370   -5.2800   29.2050 C.2     1  UNL1       -0.0000
      6 C         -26.2320   -4.6110   29.7840 C.2     1  UNL1       -0.0003
      7 C         -26.1550   -3.2320   30.0650 C.2     1  UNL1       -0.0042
      8 C         -25.3870   -0.6790   31.5710 C.3     1  UNL1        0.0768
      9 C         -25.1890    0.7730   32.0280 C.3     1  UNL1        0.0192
     10 C         -25.3360    0.6840   33.5440 C.3     1  UNL1        0.0202
     11 C         -24.8290   -0.7150   33.9050 C.3     1  UNL1        0.0887
     12 N         -24.7580   -1.4810   32.6460 N.3     1  UNL1       -0.2191
     13 C         -25.6880    1.6140   26.4610 C.2     1  UNL1        0.0247
     14 C         -26.2500    2.9200   26.3950 C.2     1  UNL1        0.0712
     15 C         -25.6420    4.0930   27.1230 C.2     1  UNL1        0.2265
     16 N         -25.6140    5.2520   26.4490 N.2     1  UNL1       -0.2353
     17 C         -25.0260    6.4790   26.9630 C.3     1  UNL1        0.1550
     18 O         -25.1430    3.9660   28.2430 O.2     1  UNL1       -0.4367
     19 C         -27.4380    3.0910   25.6450 C.2     1  UNL1        0.1065
     20 N         -28.0750    2.0890   25.0030 N.2     1  UNL1       -0.2081
     21 C         -27.5430    0.8490   25.0790 C.2     1  UNL1        0.2530
     22 O         -28.1930   -0.2080   24.4770 O.2     1  UNL1       -0.4558
     23 C         -29.4600    0.0050   23.8660 C.3     1  UNL1        0.2426
     24 C         -30.0650   -1.3770   23.5730 C.3     1  UNL1        0.2292
     25 O         -30.7290   -1.8780   24.7210 O.3     1  UNL1       -0.2162
     26 C         -26.3540    0.5760   25.7770 C.2     1  UNL1        0.1896
     27 F         -25.8600   -0.6810   25.7950 F       1  UNL1       -0.1996
     28 C         -22.9968    0.6822   29.0782 C.3     1  UNL1        0.0313
     29 C         -25.0880    4.5353   31.7238 C.2     1  UNL1        0.0045
     30 C         -24.3793    0.9809   28.6848 C.3     1  UNL1        0.0360
     31 C         -24.4650    1.3367   27.2565 C.3     1  UNL1        0.1043
     32 C         -22.1211    2.3065   24.5958 C.3     1  UNL1        0.2539
     33 C         -27.0839    5.2576   32.8609 C.2     1  UNL1        0.1061
     34 C         -24.7446    1.9746   29.6583 C.2     1  UNL1        0.0116
     35 O         -23.2639    1.7471   25.1573 O.2     1  UNL1       -0.4592
     36 C         -25.3490   -0.1338   29.0535 C.3     1  UNL1        0.0107
     37 N         -22.0731    1.4922   27.0310 N.2     1  UNL1       -0.2414
     38 C         -25.0721    3.4515   29.4970 C.2     1  UNL1        0.1429
     39 C         -25.7113    5.2630   32.7239 C.2     1  UNL1        0.0195
     40 C         -21.9460    1.1142   28.3445 C.3     1  UNL1        0.1287
     41 N         -27.7373    6.3717   33.3832 N.pl3   1  UNL1       -0.1267
     42 C         -25.8230    3.7964   30.7917 C.2     1  UNL1        0.0357
     43 O         -30.1635    4.4619   32.9768 O.2     1  UNL1       -0.1685
     44 C         -23.2809    1.5932   26.4872 C.2     1  UNL1        0.1999
     45 C         -27.1460    3.4381   31.1476 C.2     1  UNL1        0.0227
     46 O         -29.4227    2.1157   32.6494 O.2     1  UNL1       -0.1685
     47 C         -27.6907    4.0685   32.3107 C.2     1  UNL1        0.1225
     48 C         -28.2900    3.3170   34.7921 C.3     1  UNL1        0.1816
     49 S         -29.0145    3.4365   33.1723 S.O2    1  UNL1        0.0117
@<TRIPOS>BOND
     1     1    36    1
     2     2     7    1
     3     2     1    1
     4     3     2    2
     5     4     3    1
     6     4     5    2
     7     5     6    1
     8     6     7    2
     9     8     1    1
    10     8     9    1
    11     8    12    1
    12     9    10    1
    13    10    11    1
    14    12    11    1
    15    14    13    1
    16    14    15    1
    17    15    18    1
    18    16    17    1
    19    16    15    2
    20    18    38    1
    21    19    14    2
    22    20    21    2
    23    20    19    1
    24    21    26    1
    25    22    21    1
    26    23    22    1
    27    24    23    1
    28    24    25    1
    29    26    27    1
    30    26    13    2
    31    29    39    1
    32    30    36    1
    33    30    28    1
    34    30    34    1
    35    31    13    1
    36    31    30    1
    37    32    35    1
    38    33    41    1
    39    35    44    1
    40    37    40    1
    41    38    34    2
    42    38    42    1
    43    39    33    2
    44    40    28    1
    45    42    45    1
    46    42    29    2
    47    43    49    2
    48    44    37    2
    49    44    31    1
    50    45    47    2
    51    46    49    2
    52    47    33    1
    53    47    49    1
    54    49    48    1
