@<TRIPOS>MOLECULE
outputs/IAG933/test6/raw/output_1772_IAG933_linker_design_.xyz
 45 48 0 0 0
SMALL
GASTEIGER

@<TRIPOS>ATOM
      1 C         -24.8550   -1.0120   30.1430 C.3     1  UNL1        0.0966
      2 C         -24.9730   -2.5050   29.7880 C.2     1  UNL1       -0.0064
      3 C         -23.9060   -3.1730   29.1460 C.2     1  UNL1       -0.0029
      4 C         -23.9890   -4.5490   28.8530 C.2     1  UNL1       -0.0003
      5 C         -25.1370   -5.2800   29.2050 C.2     1  UNL1       -0.0000
      6 C         -26.2320   -4.6110   29.7840 C.2     1  UNL1       -0.0003
      7 C         -26.1550   -3.2320   30.0650 C.2     1  UNL1       -0.0029
      8 C         -25.3870   -0.6790   31.5710 C.3     1  UNL1        0.0916
      9 C         -25.1890    0.7730   32.0280 C.3     1  UNL1        0.0206
     10 C         -25.3360    0.6840   33.5440 C.3     1  UNL1        0.0203
     11 C         -24.8290   -0.7150   33.9050 C.3     1  UNL1        0.0888
     12 N         -24.7580   -1.4810   32.6460 N.3     1  UNL1       -0.2178
     13 C         -25.6880    1.6140   26.4610 C.3     1  UNL1        0.0936
     14 C         -26.2500    2.9200   26.3950 C.2     1  UNL1        0.0566
     15 C         -25.6420    4.0930   27.1230 C.2     1  UNL1        0.2625
     16 N         -25.6140    5.2520   26.4490 N.am    1  UNL1       -0.2000
     17 C         -25.0260    6.4790   26.9630 C.3     1  UNL1        0.1388
     18 O         -25.1430    3.9660   28.2430 O.2     1  UNL1       -0.2687
     19 C         -27.4380    3.0910   25.6450 C.2     1  UNL1        0.1022
     20 N         -28.0750    2.0890   25.0030 N.2     1  UNL1       -0.2119
     21 C         -27.5430    0.8490   25.0790 C.2     1  UNL1        0.2341
     22 O         -28.1930   -0.2080   24.4770 O.2     1  UNL1       -0.4585
     23 C         -29.4600    0.0050   23.8660 C.3     1  UNL1        0.2423
     24 C         -30.0650   -1.3770   23.5730 C.3     1  UNL1        0.2292
     25 O         -30.7290   -1.8780   24.7210 O.3     1  UNL1       -0.2162
     26 C         -26.3540    0.5760   25.7770 C.3     1  UNL1        0.2418
     27 F         -25.8600   -0.6810   25.7950 F       1  UNL1       -0.2268
     28 C         -29.2009   -1.9700   33.2230 C.3     1  UNL1        0.1424
     29 O         -30.1363   -2.0011   29.7334 O.3     1  UNL1       -0.3537
     30 C         -25.0255    1.1967   27.6441 C.3     1  UNL1        0.1426
     31 N         -25.3688    0.0563   28.8456 N.3     1  UNL1       -0.2627
     32 C         -29.2826   -0.2280   28.3717 C.3     1  UNL1        0.0335
     33 C         -22.4615    0.0316   29.0692 C.3     1  UNL1        0.1149
     34 C         -31.2260   -1.9000   31.9105 C.3     1  UNL1        0.0347
     35 C         -29.4728   -3.5186   31.3982 C.3     1  UNL1        0.1715
     36 O         -28.7457   -3.0540   32.5006 O.3     1  UNL1       -0.3512
     37 C         -30.4047   -2.5477   30.9597 C.3     1  UNL1        0.1448
     38 C         -23.5493    1.4063   27.1101 C.2     1  UNL1        0.2407
     39 C         -27.8044    0.1376   28.1171 C.3     1  UNL1        0.0199
     40 C         -26.8211    0.3718   29.3475 C.3     1  UNL1        0.0728
     41 O         -23.3514    1.8817   26.0055 O.2     1  UNL1       -0.2734
     42 C         -30.5587   -1.5548   33.0865 C.3     1  UNL1        0.0346
     43 C         -29.2735   -0.8142   29.7976 C.3     1  UNL1        0.1422
     44 N         -22.5702    0.9926   27.8953 N.am    1  UNL1       -0.2749
     45 C         -21.2036    1.3554   27.5996 C.3     1  UNL1        0.1149
@<TRIPOS>BOND
     1     1    31    1
     2     2     7    1
     3     2     1    1
     4     3     2    2
     5     4     3    1
     6     4     5    2
     7     5     6    1
     8     6     7    2
     9     8     1    1
    10     8     9    1
    11     8    12    1
    12     9    10    1
    13    10    11    1
    14    12    11    1
    15    13    30    1
    16    14    13    1
    17    14    15    1
    18    15    18    2
    19    16    17    1
    20    16    15    1
    21    19    14    2
    22    20    21    2
    23    20    19    1
    24    21    26    1
    25    22    21    1
    26    23    22    1
    27    24    23    1
    28    24    25    1
    29    26    27    1
    30    26    13    1
    31    29    43    1
    32    30    38    1
    33    30    31    1
    34    31    40    1
    35    32    43    1
    36    34    42    1
    37    35    36    1
    38    36    28    1
    39    37    29    1
    40    37    35    1
    41    37    34    1
    42    38    44   am
    43    39    32    1
    44    39    40    1
    45    41    38    2
    46    42    28    1
    47    44    33    1
    48    45    44    1
