@<TRIPOS>MOLECULE
outputs/IAG933/test6/raw/output_1774_IAG933_linker_design_.xyz
 43 47 0 0 0
SMALL
GASTEIGER

@<TRIPOS>ATOM
      1 C         -24.8550   -1.0120   30.1430 C.3     1  UNL1        0.0551
      2 C         -24.9730   -2.5050   29.7880 C.2     1  UNL1       -0.0198
      3 C         -23.9060   -3.1730   29.1460 C.2     1  UNL1       -0.0042
      4 C         -23.9890   -4.5490   28.8530 C.2     1  UNL1       -0.0003
      5 C         -25.1370   -5.2800   29.2050 C.2     1  UNL1       -0.0000
      6 C         -26.2320   -4.6110   29.7840 C.2     1  UNL1       -0.0003
      7 C         -26.1550   -3.2320   30.0650 C.2     1  UNL1       -0.0042
      8 C         -25.3870   -0.6790   31.5710 C.3     1  UNL1        0.0782
      9 C         -25.1890    0.7730   32.0280 C.3     1  UNL1        0.0192
     10 C         -25.3360    0.6840   33.5440 C.3     1  UNL1        0.0202
     11 C         -24.8290   -0.7150   33.9050 C.3     1  UNL1        0.0887
     12 N         -24.7580   -1.4810   32.6460 N.3     1  UNL1       -0.2191
     13 C         -25.6880    1.6140   26.4610 C.2     1  UNL1        0.0374
     14 C         -26.2500    2.9200   26.3950 C.2     1  UNL1        0.0763
     15 C         -25.6420    4.0930   27.1230 C.2     1  UNL1        0.2664
     16 N         -25.6140    5.2520   26.4490 N.am    1  UNL1       -0.1997
     17 C         -25.0260    6.4790   26.9630 C.3     1  UNL1        0.1388
     18 O         -25.1430    3.9660   28.2430 O.2     1  UNL1       -0.2683
     19 C         -27.4380    3.0910   25.6450 C.2     1  UNL1        0.1067
     20 N         -28.0750    2.0890   25.0030 N.2     1  UNL1       -0.2081
     21 C         -27.5430    0.8490   25.0790 C.2     1  UNL1        0.2533
     22 O         -28.1930   -0.2080   24.4770 O.2     1  UNL1       -0.4558
     23 C         -29.4600    0.0050   23.8660 C.3     1  UNL1        0.2426
     24 C         -30.0650   -1.3770   23.5730 C.3     1  UNL1        0.2292
     25 O         -30.7290   -1.8780   24.7210 O.3     1  UNL1       -0.2162
     26 C         -26.3540    0.5760   25.7770 C.2     1  UNL1        0.1928
     27 F         -25.8600   -0.6810   25.7950 F       1  UNL1       -0.1992
     28 C         -25.3441    0.0383   29.1363 C.3     1  UNL1        0.0892
     29 F         -20.9912    1.4996   27.4238 F       1  UNL1       -0.2208
     30 N         -26.7232   -0.2945   28.6952 N.3     1  UNL1       -0.2194
     31 C         -22.3388    1.3292   27.5495 C.3     1  UNL1        0.2781
     32 O         -23.0281    2.3279   25.5178 O.2     1  UNL1       -0.2883
     33 C         -24.4460    0.7278   28.2988 C.3     1  UNL1        0.1023
     34 O         -22.6287    0.5866   29.7717 O.2     1  UNL1       -0.2923
     35 C         -28.5010   -0.0092   30.2996 C.3     1  UNL1        0.0841
     36 C         -29.5891    0.3594   29.6437 C.3     1  UNL1        0.2666
     37 C         -27.8529    0.4965   29.0054 C.3     1  UNL1        0.0836
     38 F         -30.4714    0.4905   30.4675 F       1  UNL1       -0.2042
     39 C         -29.1531    0.9626   28.5539 C.3     1  UNL1        0.0841
     40 C         -24.5525    1.3335   27.0697 C.2     1  UNL1        0.0263
     41 C         -23.0563    0.8310   28.6488 C.2     1  UNL1        0.1957
     42 C         -23.3326    1.6728   26.5963 C.2     1  UNL1        0.2092
     43 F         -29.8977   -0.8617   28.8418 F       1  UNL1       -0.2042
@<TRIPOS>BOND
     1     1    28    1
     2     2     7    1
     3     2     1    1
     4     3     2    2
     5     4     3    1
     6     4     5    2
     7     5     6    1
     8     6     7    2
     9     8     1    1
    10     8     9    1
    11     8    12    1
    12     9    10    1
    13    10    11    1
    14    12    11    1
    15    13    40    1
    16    14    13    1
    17    14    15    1
    18    15    18    2
    19    16    17    1
    20    16    15    1
    21    19    14    2
    22    20    21    2
    23    20    19    1
    24    21    26    1
    25    22    21    1
    26    23    22    1
    27    24    23    1
    28    24    25    1
    29    26    27    1
    30    26    13    2
    31    28    30    1
    32    30    37    1
    33    31    29    1
    34    31    41    1
    35    32    42    1
    36    33    41    1
    37    33    28    1
    38    36    35    1
    39    36    38    1
    40    37    35    1
    41    39    37    1
    42    39    36    1
    43    40    33    1
    44    41    34    2
    45    42    40    2
    46    42    31    1
    47    43    36    1
