@<TRIPOS>MOLECULE
No_1775-gen_results/8p0m/2024-11-27-11-27-31/
 17 18 0 0 0
SMALL
GASTEIGER

@<TRIPOS>ATOM
      1 C         -28.0162   -0.8135   28.8779 C.ar    1  UNL1        0.0167
      2 C         -27.0636   -0.1189   28.6079 C.ar    1  UNL1       -0.0114
      3 C         -26.9716    0.7139   27.5060 C.3     1  UNL1        0.1260
      4 C         -25.8206    1.4910   27.1160 C.3     1  UNL1        0.0272
      5 C         -24.6562    1.4242   27.9180 C.3     1  UNL1        0.1087
      6 C         -24.6847    0.5901   29.0659 C.3     1  UNL1        0.0402
      7 C         -25.8099   -0.1265   29.3338 C.ar    1  UNL1        0.0098
      8 C         -28.0540   -1.5468   30.1892 C.ar    1  UNL1        0.1001
      9 N         -26.8785   -1.7467   30.8493 N.ar    1  UNL1       -0.2262
     10 C         -25.8061   -0.9985   30.5502 C.ar    1  UNL1        0.1654
     11 C         -23.4516    2.2263   27.5883 C.2     1  UNL1        0.3647
     12 O         -22.5845    2.3138   28.4968 O.co2   1  UNL1       -0.2457
     13 O         -23.3265    2.7440   26.4505 O.co2   1  UNL1       -0.2457
     14 C         -28.0912    0.7913   26.5386 C.2     1  UNL1        0.3683
     15 O         -29.0884    1.2084   26.7554 O.co2   1  UNL1       -0.2453
     16 O         -27.7782    0.4931   25.2975 O.co2   1  UNL1       -0.2453
     17 N         -24.7054   -1.0780   31.2788 N.pl3   1  UNL1       -0.1076
@<TRIPOS>BOND
     1     2     3    1
     2     3     4    1
     3     4     5    1
     4     5     6    1
     5     6     7    1
     6     5    11    1
     7    11    12   ar
     8    11    13   ar
     9     3    14    1
    10    14    15   ar
    11    14    16   ar
    12    10    17    1
    13     1     2   ar
    14     2     7   ar
    15     7    10   ar
    16    10     9   ar
    17     9     8   ar
    18     8     1   ar
