@<TRIPOS>MOLECULE
outputs/IAG933/test6/raw/output_1777_IAG933_linker_design_.xyz
 46 49 0 0 0
SMALL
GASTEIGER

@<TRIPOS>ATOM
      1 C         -24.8550   -1.0120   30.1430 C.3     1  UNL1        0.1163
      2 C         -24.9730   -2.5050   29.7880 C.2     1  UNL1       -0.0125
      3 C         -23.9060   -3.1730   29.1460 C.2     1  UNL1       -0.0038
      4 C         -23.9890   -4.5490   28.8530 C.2     1  UNL1       -0.0003
      5 C         -25.1370   -5.2800   29.2050 C.2     1  UNL1       -0.0000
      6 C         -26.2320   -4.6110   29.7840 C.2     1  UNL1       -0.0003
      7 C         -26.1550   -3.2320   30.0650 C.2     1  UNL1       -0.0038
      8 C         -25.3870   -0.6790   31.5710 C.3     1  UNL1        0.0855
      9 C         -25.1890    0.7730   32.0280 C.3     1  UNL1        0.0197
     10 C         -25.3360    0.6840   33.5440 C.3     1  UNL1        0.0203
     11 C         -24.8290   -0.7150   33.9050 C.3     1  UNL1        0.0887
     12 N         -24.7580   -1.4810   32.6460 N.3     1  UNL1       -0.2186
     13 C         -25.6880    1.6140   26.4610 C.2     1  UNL1        0.0407
     14 C         -26.2500    2.9200   26.3950 C.2     1  UNL1        0.0744
     15 C         -25.6420    4.0930   27.1230 C.2     1  UNL1        0.2227
     16 N         -25.6140    5.2520   26.4490 N.2     1  UNL1       -0.2356
     17 C         -25.0260    6.4790   26.9630 C.3     1  UNL1        0.1550
     18 O         -25.1430    3.9660   28.2430 O.2     1  UNL1       -0.4512
     19 C         -27.4380    3.0910   25.6450 C.2     1  UNL1        0.1068
     20 N         -28.0750    2.0890   25.0030 N.2     1  UNL1       -0.2081
     21 C         -27.5430    0.8490   25.0790 C.2     1  UNL1        0.2533
     22 O         -28.1930   -0.2080   24.4770 O.2     1  UNL1       -0.4558
     23 C         -29.4600    0.0050   23.8660 C.3     1  UNL1        0.2426
     24 C         -30.0650   -1.3770   23.5730 C.3     1  UNL1        0.2292
     25 O         -30.7290   -1.8780   24.7210 O.3     1  UNL1       -0.2162
     26 C         -26.3540    0.5760   25.7770 C.2     1  UNL1        0.1931
     27 F         -25.8600   -0.6810   25.7950 F       1  UNL1       -0.1992
     28 O         -22.5519   -0.3603   30.5556 O.2     1  UNL1       -0.2729
     29 O         -22.6674    2.6568   26.5273 O.co2   1  UNL1       -0.2437
     30 C         -22.3436    1.9149   27.4671 C.2     1  UNL1        0.3844
     31 C         -25.1960    3.5882   29.6611 C.3     1  UNL1        0.2360
     32 N         -23.5777    0.3919   28.7412 N.am    1  UNL1       -0.1951
     33 C         -24.3458    2.1877   29.6645 C.3     1  UNL1        0.0901
     34 S         -25.2201    4.5081   31.1671 S.3     1  UNL1        0.0191
     35 N         -25.0541    4.9477   32.9529 N.am    1  UNL1       -0.1408
     36 C         -23.3858    6.3161   33.7820 C.3     1  UNL1        0.2230
     37 O         -22.8870    6.1224   32.5199 O.3     1  UNL1       -0.3420
     38 C         -24.6191    6.0309   33.8655 C.2     1  UNL1        0.2813
     39 OXT       -21.3979    1.0195   27.3723 O.co2   1  UNL1       -0.2437
     40 C         -23.5582   -0.2939   29.7705 C.2     1  UNL1        0.2468
     41 C         -22.0928    7.1406   34.5462 C.3     1  UNL1        0.1812
     42 O         -25.7321    6.4515   34.6816 O.2     1  UNL1       -0.2697
     43 CA        -23.0965    1.9317   28.8525 C.3     1  UNL1        0.2023
     44 C         -21.3958    7.9041   32.4036 C.3     1  UNL1        0.1742
     45 C         -22.4824    7.1101   31.6042 C.3     1  UNL1        0.1748
     46 O         -20.9395    7.2362   33.7112 O.3     1  UNL1       -0.3480
@<TRIPOS>BOND
     1     1    40    1
     2     2     7    1
     3     2     1    1
     4     3     2    2
     5     4     3    1
     6     4     5    2
     7     5     6    1
     8     6     7    2
     9     8     1    1
    10     8     9    1
    11     8    12    1
    12     9    10    1
    13    10    11    1
    14    12    11    1
    15    14    13    1
    16    14    15    1
    17    15    18    1
    18    16    17    1
    19    16    15    2
    20    18    31    1
    21    19    14    2
    22    20    21    2
    23    20    19    1
    24    21    26    1
    25    22    21    1
    26    23    22    1
    27    24    23    1
    28    24    25    1
    29    26    27    1
    30    26    13    2
    31    29    30   ar
    32    30    43    1
    33    31    33    1
    34    31    34    1
    35    32    43    1
    36    32    40    1
    37    34    35    1
    38    35    38    1
    39    36    38    1
    40    36    41    1
    41    37    36    1
    42    38    42    2
    43    39    30   ar
    44    40    28    2
    45    43    33    1
    46    44    46    1
    47    45    44    1
    48    45    37    1
    49    46    41    1
