@<TRIPOS>MOLECULE
No_1778-gen_results/8p0m/2024-11-27-11-27-31/
 25 27 0 0 0
SMALL
GASTEIGER

@<TRIPOS>ATOM
      1 C         -28.0162   -0.8135   28.8779 C.ar    1  UNL1        0.0306
      2 C         -27.0636   -0.1190   28.6079 C.ar    1  UNL1        0.0026
      3 C         -26.8756    1.1325   28.9134 C.ar    1  UNL1        0.0002
      4 C         -25.6883    1.9515   28.5672 C.ar    1  UNL1        0.0046
      5 C         -24.6394    1.2834   27.8753 C.ar    1  UNL1        0.0550
      6 C         -24.8068   -0.0513   27.6040 C.ar    1  UNL1        0.0046
      7 C         -25.9019   -0.7670   27.9511 C.ar    1  UNL1        0.0002
      8 C         -28.0678   -1.4475   30.2707 C.ar    1  UNL1       -0.0189
      9 C         -27.0358   -1.6665   30.8241 C.3     1  UNL1        0.0311
     10 C         -29.3991   -1.9123   30.7190 C.ar    1  UNL1       -0.0041
     11 C         -30.5107   -1.5398   30.1973 C.ar    1  UNL1        0.0028
     12 C         -30.4466   -0.7592   29.0588 C.ar    1  UNL1        0.0375
     13 C         -29.3186   -0.2900   28.4968 C.ar    1  UNL1        0.1449
     14 C         -23.4057    1.9374   27.4953 C.2     1  UNL1        0.2648
     15 N         -22.2198    1.5704   27.7152 N.am    1  UNL1       -0.2017
     16 O         -23.5820    2.9993   26.7060 O.2     1  UNL1       -0.2684
     17 O         -29.3316    0.4042   27.3801 O.3     1  UNL1       -0.4535
     18 C         -30.0332    0.0888   26.3016 C.ar    1  UNL1        0.1453
     19 C         -31.2483    0.2282   26.2050 C.ar    1  UNL1        0.0375
     20 C         -31.9573   -0.3073   25.1512 C.ar    1  UNL1        0.0031
     21 C         -29.2696   -0.2054   25.1355 C.ar    1  UNL1        0.0375
     22 C         -29.8438   -0.6258   23.9764 C.ar    1  UNL1        0.0031
     23 C         -31.2342   -0.6553   23.9341 C.ar    1  UNL1        0.0002
     24 C         -21.8368    0.6343   28.7042 C.3     1  UNL1        0.1155
     25 C         -21.7481   -0.6459   28.5051 C.3     1  UNL1        0.0253
@<TRIPOS>BOND
     1     5    14    1
     2    14    15   am
     3    14    16    2
     4    13    17    1
     5    17    18    1
     6    15    24    1
     7    24    25    1
     8     9     8    1
     9     2     1    1
    10     2     3   ar
    11     3     4   ar
    12     4     5   ar
    13     5     6   ar
    14     6     7   ar
    15     7     2   ar
    16     1     8   ar
    17     8    10   ar
    18    10    11   ar
    19    11    12   ar
    20    12    13   ar
    21    13     1   ar
    22    18    19   ar
    23    19    20   ar
    24    20    23   ar
    25    23    22   ar
    26    22    21   ar
    27    21    18   ar
