@<TRIPOS>MOLECULE
outputs/IAG933/test6/raw/output_178_IAG933_linker_design_.xyz
 45 49 0 0 0
SMALL
GASTEIGER

@<TRIPOS>ATOM
      1 C         -24.8550   -1.0120   30.1430 C.3     1  UNL1        0.0428
      2 C         -24.9730   -2.5050   29.7880 C.2     1  UNL1       -0.0208
      3 C         -23.9060   -3.1730   29.1460 C.2     1  UNL1       -0.0042
      4 C         -23.9890   -4.5490   28.8530 C.2     1  UNL1       -0.0003
      5 C         -25.1370   -5.2800   29.2050 C.2     1  UNL1       -0.0000
      6 C         -26.2320   -4.6110   29.7840 C.2     1  UNL1       -0.0003
      7 C         -26.1550   -3.2320   30.0650 C.2     1  UNL1       -0.0042
      8 C         -25.3870   -0.6790   31.5710 C.3     1  UNL1        0.0771
      9 C         -25.1890    0.7730   32.0280 C.3     1  UNL1        0.0192
     10 C         -25.3360    0.6840   33.5440 C.3     1  UNL1        0.0202
     11 C         -24.8290   -0.7150   33.9050 C.3     1  UNL1        0.0887
     12 N         -24.7580   -1.4810   32.6460 N.3     1  UNL1       -0.2191
     13 C         -25.6880    1.6140   26.4610 C.2     1  UNL1        0.0379
     14 C         -26.2500    2.9200   26.3950 C.2     1  UNL1        0.0765
     15 C         -25.6420    4.0930   27.1230 C.2     1  UNL1        0.2664
     16 N         -25.6140    5.2520   26.4490 N.am    1  UNL1       -0.1997
     17 C         -25.0260    6.4790   26.9630 C.3     1  UNL1        0.1388
     18 O         -25.1430    3.9660   28.2430 O.2     1  UNL1       -0.2683
     19 C         -27.4380    3.0910   25.6450 C.2     1  UNL1        0.1067
     20 N         -28.0750    2.0890   25.0030 N.2     1  UNL1       -0.2081
     21 C         -27.5430    0.8490   25.0790 C.2     1  UNL1        0.2533
     22 O         -28.1930   -0.2080   24.4770 O.2     1  UNL1       -0.4558
     23 C         -29.4600    0.0050   23.8660 C.3     1  UNL1        0.2426
     24 C         -30.0650   -1.3770   23.5730 C.3     1  UNL1        0.2292
     25 O         -30.7290   -1.8780   24.7210 O.3     1  UNL1       -0.2162
     26 C         -26.3540    0.5760   25.7770 C.2     1  UNL1        0.1930
     27 F         -25.8600   -0.6810   25.7950 F       1  UNL1       -0.1992
     28 C         -24.3580    1.3584   27.0259 C.2     1  UNL1        0.0016
     29 C         -27.8294    1.6700   29.0575 C.2     1  UNL1       -0.0188
     30 C         -22.8455    0.6146   28.8010 C.2     1  UNL1        0.1917
     31 C         -28.7430    3.7083   30.2349 C.2     1  UNL1        0.1382
     32 C         -29.7971    3.7854   29.2847 C.2     1  UNL1        0.0369
     33 C         -29.8832    2.8354   28.2403 C.2     1  UNL1        0.0028
     34 C         -26.9160    0.3787   28.9725 C.3     1  UNL1        0.0313
     35 C         -23.2822    1.8313   26.2790 C.2     1  UNL1       -0.0000
     36 C         -27.8591    5.1676   32.1287 C.3     1  UNL1        0.2055
     37 C         -21.9973    1.7346   26.7854 C.2     1  UNL1        0.0033
     38 O         -22.4688    0.0824   30.0531 O.2     1  UNL1       -0.2869
     39 C         -28.7591    5.7298   33.2588 C.3     1  UNL1        0.0512
     40 C         -27.6576    2.7405   30.0324 C.2     1  UNL1        0.0326
     41 O         -28.8148    4.4831   31.3418 O.2     1  UNL1       -0.4755
     42 C         -25.3914    0.0790   29.0926 C.3     1  UNL1        0.0352
     43 C         -21.7812    1.1744   28.0407 C.2     1  UNL1        0.0417
     44 C         -24.2975    0.6502   28.3067 C.2     1  UNL1        0.0172
     45 C         -28.9232    1.7543   28.1427 C.2     1  UNL1       -0.0041
@<TRIPOS>BOND
     1     1    42    1
     2     2     7    1
     3     2     1    1
     4     3     2    2
     5     4     3    1
     6     4     5    2
     7     5     6    1
     8     6     7    2
     9     8     1    1
    10     8     9    1
    11     8    12    1
    12     9    10    1
    13    10    11    1
    14    12    11    1
    15    13    28    1
    16    14    13    1
    17    14    15    1
    18    15    18    2
    19    16    17    1
    20    16    15    1
    21    19    14    2
    22    20    21    2
    23    20    19    1
    24    21    26    1
    25    22    21    1
    26    23    22    1
    27    24    23    1
    28    24    25    1
    29    26    27    1
    30    26    13    2
    31    28    44    1
    32    29    40    1
    33    30    38    1
    34    31    41    1
    35    32    31    1
    36    33    32    2
    37    34    29    1
    38    35    37    1
    39    35    28    2
    40    36    39    1
    41    37    43    2
    42    40    31    2
    43    41    36    1
    44    42    34    1
    45    43    30    1
    46    44    30    2
    47    44    42    1
    48    45    33    1
    49    45    29    2
