@<TRIPOS>MOLECULE
outputs/IAG933/test6/raw/output_1781_IAG933_linker_design_.xyz
 45 50 0 0 0
SMALL
GASTEIGER

@<TRIPOS>ATOM
      1 C         -24.8550   -1.0120   30.1430 C.3     1  UNL1        0.0560
      2 C         -24.9730   -2.5050   29.7880 C.2     1  UNL1       -0.0197
      3 C         -23.9060   -3.1730   29.1460 C.2     1  UNL1       -0.0042
      4 C         -23.9890   -4.5490   28.8530 C.2     1  UNL1       -0.0003
      5 C         -25.1370   -5.2800   29.2050 C.2     1  UNL1       -0.0000
      6 C         -26.2320   -4.6110   29.7840 C.2     1  UNL1       -0.0003
      7 C         -26.1550   -3.2320   30.0650 C.2     1  UNL1       -0.0042
      8 C         -25.3870   -0.6790   31.5710 C.3     1  UNL1        0.0782
      9 C         -25.1890    0.7730   32.0280 C.3     1  UNL1        0.0192
     10 C         -25.3360    0.6840   33.5440 C.3     1  UNL1        0.0202
     11 C         -24.8290   -0.7150   33.9050 C.3     1  UNL1        0.0887
     12 N         -24.7580   -1.4810   32.6460 N.3     1  UNL1       -0.2191
     13 C         -25.6880    1.6140   26.4610 C.2     1  UNL1        0.0863
     14 C         -26.2500    2.9200   26.3950 C.2     1  UNL1        0.0899
     15 C         -25.6420    4.0930   27.1230 C.2     1  UNL1        0.2676
     16 N         -25.6140    5.2520   26.4490 N.am    1  UNL1       -0.1997
     17 C         -25.0260    6.4790   26.9630 C.3     1  UNL1        0.1388
     18 O         -25.1430    3.9660   28.2430 O.2     1  UNL1       -0.2683
     19 C         -27.4380    3.0910   25.6450 C.2     1  UNL1        0.1080
     20 N         -28.0750    2.0890   25.0030 N.2     1  UNL1       -0.2080
     21 C         -27.5430    0.8490   25.0790 C.2     1  UNL1        0.2546
     22 O         -28.1930   -0.2080   24.4770 O.2     1  UNL1       -0.4558
     23 C         -29.4600    0.0050   23.8660 C.3     1  UNL1        0.2426
     24 C         -30.0650   -1.3770   23.5730 C.3     1  UNL1        0.2292
     25 O         -30.7290   -1.8780   24.7210 O.3     1  UNL1       -0.2162
     26 C         -26.3540    0.5760   25.7770 C.2     1  UNL1        0.2062
     27 F         -25.8600   -0.6810   25.7950 F       1  UNL1       -0.1979
     28 C         -32.3256   -0.0261   30.9188 C.2     1  UNL1        0.2652
     29 C         -28.8752   -1.1814   30.2594 C.3     1  UNL1        0.1611
     30 C         -21.9752    1.4967   27.2373 C.3     1  UNL1        0.0232
     31 N         -26.7656   -0.5209   28.4770 N.3     1  UNL1       -0.2137
     32 O         -29.9125   -0.5916   28.0516 O.3     1  UNL1       -0.3516
     33 N         -24.4501    1.4104   26.9105 N.pl3   1  UNL1       -0.3057
     34 C         -28.0322   -0.2812   29.4999 C.3     1  UNL1        0.1318
     35 C         -30.0714   -1.2970   30.7943 C.3     1  UNL1        0.1548
     36 O         -29.6795   -2.5749   30.4167 O.3     1  UNL1       -0.3516
     37 C         -22.3624    0.3539   28.1461 C.3     1  UNL1        0.0229
     38 C         -29.0290    0.3890   28.6128 C.3     1  UNL1        0.1620
     39 C         -31.3988   -0.9628   30.0284 C.3     1  UNL1        0.1388
     40 C         -23.1500    1.7948   26.2798 C.3     1  UNL1        0.0909
     41 C         -31.2762   -0.3732   28.5575 C.3     1  UNL1        0.1539
     42 C         -23.9461    0.4425   28.2324 C.3     1  UNL1        0.0892
     43 N         -32.2166   -0.0235   32.2688 N.am    1  UNL1       -0.0877
     44 O         -33.0393    0.8105   30.3377 O.2     1  UNL1       -0.2715
     45 C         -25.3187    0.0322   29.0306 C.3     1  UNL1        0.0962
@<TRIPOS>BOND
     1     1    45    1
     2     2     7    1
     3     2     1    1
     4     3     2    2
     5     4     3    1
     6     4     5    2
     7     5     6    1
     8     6     7    2
     9     8     1    1
    10     8     9    1
    11     8    12    1
    12     9    10    1
    13    10    11    1
    14    12    11    1
    15    13    33    1
    16    14    13    1
    17    14    15    1
    18    15    18    2
    19    16    17    1
    20    16    15    1
    21    19    14    2
    22    20    21    2
    23    20    19    1
    24    21    26    1
    25    22    21    1
    26    23    22    1
    27    24    23    1
    28    24    25    1
    29    26    27    1
    30    26    13    2
    31    28    43    1
    32    29    36    1
    33    29    35    1
    34    30    37    1
    35    32    41    1
    36    32    38    1
    37    33    42    1
    38    34    31    1
    39    34    29    1
    40    35    36    1
    41    37    42    1
    42    38    34    1
    43    39    35    1
    44    39    28    1
    45    40    33    1
    46    40    30    1
    47    41    39    1
    48    42    45    1
    49    44    28    2
    50    45    31    1
