@<TRIPOS>MOLECULE
No_1782-gen_results/8p0m/2024-11-27-11-27-31/
 28 30 0 0 0
SMALL
GASTEIGER

@<TRIPOS>ATOM
      1 N         -28.0544   -1.0498   28.7246 N.pl3   1  UNL1       -0.2373
      2 C         -26.9659   -0.4722   28.7709 C.3     1  UNL1        0.1043
      3 C         -26.5486    0.3876   27.8310 C.3     1  UNL1        0.0986
      4 C         -25.2662    1.0684   27.8062 C.3     1  UNL1        0.0203
      5 C         -24.3565    0.7761   28.8458 C.3     1  UNL1        0.0833
      6 C         -23.0593    1.3379   28.9493 C.2     1  UNL1        0.2733
      7 C         -25.9871   -0.8200   29.8602 C.3     1  UNL1        0.0591
      8 C         -24.7019   -0.1930   29.8977 C.3     1  UNL1        0.0145
      9 N         -22.5927    2.0312   27.8367 N.2     1  UNL1       -0.1072
     10 C         -28.9850   -0.6133   29.6975 C.ar    1  UNL1        0.0854
     11 CA        -30.1840   -1.4235   29.7932 C.ar    1  UNL1        0.1752
     12 C         -31.3021   -0.9110   28.9819 C.2     1  UNL1        0.4063
     13 O         -31.0800   -0.2308   28.1646 O.co2   1  UNL1       -0.2388
     14 N         -30.4622   -1.5746   31.2487 N.ar    1  UNL1       -0.2360
     15 OXT       -32.4789   -1.3866   29.2222 O.co2   1  UNL1       -0.2388
     16 O         -22.1356    0.8857   29.6715 O.2     1  UNL1       -0.2686
     17 C         -30.1144   -0.8645   32.1196 C.ar    1  UNL1        0.0988
     18 C         -28.7597   -0.3223   31.9852 C.ar    1  UNL1        0.0177
     19 C         -28.1094   -0.5059   31.0379 C.ar    1  UNL1       -0.0040
     20 C         -26.8228   -0.3272   31.2350 C.3     1  UNL1        0.0325
     21 C         -25.7624   -2.3445   29.8231 C.3     1  UNL1        0.2053
     22 C         -27.3885    0.7727   26.6787 C.2     1  UNL1        0.2426
     23 N         -26.9940    1.0693   25.6036 N.am    1  UNL1       -0.2035
     24 O         -28.6147    0.9891   26.9352 O.2     1  UNL1       -0.2733
     25 C         -27.7895    1.3049   24.4210 C.3     1  UNL1        0.1385
     26 F         -26.4696   -2.8841   30.6069 F       1  UNL1       -0.2306
     27 C         -24.8543   -2.9012   29.0184 C.2     1  UNL1        0.1307
     28 N         -23.9529   -3.6009   29.0956 N.2     1  UNL1       -0.1485
@<TRIPOS>BOND
     1     1     2    1
     2     3     4    1
     3     5     6    1
     4     2     7    1
     5     5     8    1
     6     7     8    1
     7     6     9    2
     8     1    10    1
     9    11    12    1
    10    12    13   ar
    11    12    15   ar
    12     6    16    1
    13     7    20    1
    14    19    20    1
    15     7    21    1
    16     3    22    1
    17    22    23   am
    18    22    24    2
    19    23    25    1
    20    21    26    1
    21    21    27    1
    22    27    28    2
    23     2     3    1
    24     4     5    1
    25    10    11   ar
    26    11    14   ar
    27    14    17   ar
    28    17    18   ar
    29    18    19   ar
    30    19    10   ar
