@<TRIPOS>MOLECULE
outputs/IAG933/test6/raw/output_1784_IAG933_linker_design_.xyz
 45 49 0 0 0
SMALL
GASTEIGER

@<TRIPOS>ATOM
      1 C         -24.8550   -1.0120   30.1430 C.3     1  UNL1        0.0604
      2 C         -24.9730   -2.5050   29.7880 C.2     1  UNL1       -0.0171
      3 C         -23.9060   -3.1730   29.1460 C.2     1  UNL1       -0.0039
      4 C         -23.9890   -4.5490   28.8530 C.2     1  UNL1       -0.0003
      5 C         -25.1370   -5.2800   29.2050 C.2     1  UNL1       -0.0000
      6 C         -26.2320   -4.6110   29.7840 C.2     1  UNL1       -0.0003
      7 C         -26.1550   -3.2320   30.0650 C.2     1  UNL1       -0.0039
      8 C         -25.3870   -0.6790   31.5710 C.3     1  UNL1        0.0808
      9 C         -25.1890    0.7730   32.0280 C.3     1  UNL1        0.0195
     10 C         -25.3360    0.6840   33.5440 C.3     1  UNL1        0.0203
     11 C         -24.8290   -0.7150   33.9050 C.3     1  UNL1        0.0887
     12 N         -24.7580   -1.4810   32.6460 N.3     1  UNL1       -0.2188
     13 C         -25.6880    1.6140   26.4610 C.2     1  UNL1        0.0378
     14 C         -26.2500    2.9200   26.3950 C.2     1  UNL1        0.0765
     15 C         -25.6420    4.0930   27.1230 C.2     1  UNL1        0.2664
     16 N         -25.6140    5.2520   26.4490 N.am    1  UNL1       -0.1997
     17 C         -25.0260    6.4790   26.9630 C.3     1  UNL1        0.1388
     18 O         -25.1430    3.9660   28.2430 O.2     1  UNL1       -0.2683
     19 C         -27.4380    3.0910   25.6450 C.2     1  UNL1        0.1067
     20 N         -28.0750    2.0890   25.0030 N.2     1  UNL1       -0.2081
     21 C         -27.5430    0.8490   25.0790 C.2     1  UNL1        0.2533
     22 O         -28.1930   -0.2080   24.4770 O.2     1  UNL1       -0.4558
     23 C         -29.4600    0.0050   23.8660 C.3     1  UNL1        0.2426
     24 C         -30.0650   -1.3770   23.5730 C.3     1  UNL1        0.2292
     25 O         -30.7290   -1.8780   24.7210 O.3     1  UNL1       -0.2162
     26 C         -26.3540    0.5760   25.7770 C.2     1  UNL1        0.1930
     27 F         -25.8600   -0.6810   25.7950 F       1  UNL1       -0.1992
     28 C         -24.6120    1.2509   27.2021 C.2     1  UNL1        0.0041
     29 C         -27.6268    1.6383   29.3056 C.3     1  UNL1        0.0347
     30 C         -27.8749    1.6471   30.7901 C.3     1  UNL1        0.0029
     31 C         -22.8312    2.2279   25.7968 C.3     1  UNL1        0.3431
     32 F         -23.5860    2.5797   24.9205 F       1  UNL1       -0.1932
     33 C         -28.8908    3.7280   29.9344 C.3     1  UNL1        0.0000
     34 F         -21.0835    1.7451   28.0981 F       1  UNL1       -0.2043
     35 C         -22.7610    0.4324   29.2219 C.2     1  UNL1        0.0253
     36 C         -26.5467    0.6738   28.5445 C.3     1  UNL1        0.1739
     37 C         -28.8453    1.5809   28.5052 C.3     1  UNL1        0.0029
     38 C         -28.9383    2.7111   31.0764 C.3     1  UNL1        0.0001
     39 O         -27.2048   -0.5977   28.7459 O.3     1  UNL1       -0.2183
     40 C         -24.1592    0.0175   29.2317 C.2     1  UNL1       -0.0164
     41 F         -21.6493    1.9345   25.4129 F       1  UNL1       -0.1932
     42 C         -22.3859    1.2619   28.1195 C.2     1  UNL1        0.1411
     43 C         -24.9659    0.5821   28.2370 C.2     1  UNL1        0.0042
     44 C         -29.2907    3.0193   28.6574 C.3     1  UNL1        0.0001
     45 C         -23.2895    1.6173   27.0586 C.2     1  UNL1        0.0708
@<TRIPOS>BOND
     1     1    40    1
     2     2     7    1
     3     2     1    1
     4     3     2    2
     5     4     3    1
     6     4     5    2
     7     5     6    1
     8     6     7    2
     9     8     1    1
    10     8     9    1
    11     8    12    1
    12     9    10    1
    13    10    11    1
    14    12    11    1
    15    13    28    1
    16    14    13    1
    17    14    15    1
    18    15    18    2
    19    16    17    1
    20    16    15    1
    21    19    14    2
    22    20    21    2
    23    20    19    1
    24    21    26    1
    25    22    21    1
    26    23    22    1
    27    24    23    1
    28    24    25    1
    29    26    27    1
    30    26    13    2
    31    28    43    1
    32    29    30    1
    33    30    38    1
    34    31    45    1
    35    32    31    1
    36    33    38    1
    37    34    42    1
    38    35    40    1
    39    36    39    1
    40    36    29    1
    41    37    44    1
    42    37    29    1
    43    41    31    1
    44    42    35    2
    45    43    36    1
    46    43    40    2
    47    44    33    1
    48    45    28    2
    49    45    42    1
