@<TRIPOS>MOLECULE
outputs/IAG933/test6/raw/output_1789_IAG933_linker_design_.xyz
 43 46 0 0 0
SMALL
GASTEIGER

@<TRIPOS>ATOM
      1 C         -24.8550   -1.0120   30.1430 C.3     1  UNL1        0.1130
      2 C         -24.9730   -2.5050   29.7880 C.2     1  UNL1       -0.0030
      3 C         -23.9060   -3.1730   29.1460 C.2     1  UNL1       -0.0026
      4 C         -23.9890   -4.5490   28.8530 C.2     1  UNL1       -0.0003
      5 C         -25.1370   -5.2800   29.2050 C.2     1  UNL1       -0.0000
      6 C         -26.2320   -4.6110   29.7840 C.2     1  UNL1       -0.0003
      7 C         -26.1550   -3.2320   30.0650 C.2     1  UNL1       -0.0026
      8 C         -25.3870   -0.6790   31.5710 C.3     1  UNL1        0.0951
      9 C         -25.1890    0.7730   32.0280 C.3     1  UNL1        0.0209
     10 C         -25.3360    0.6840   33.5440 C.3     1  UNL1        0.0203
     11 C         -24.8290   -0.7150   33.9050 C.3     1  UNL1        0.0888
     12 N         -24.7580   -1.4810   32.6460 N.3     1  UNL1       -0.2174
     13 C         -25.6880    1.6140   26.4610 C.2     1  UNL1        0.0396
     14 C         -26.2500    2.9200   26.3950 C.2     1  UNL1        0.0766
     15 C         -25.6420    4.0930   27.1230 C.2     1  UNL1        0.2664
     16 N         -25.6140    5.2520   26.4490 N.am    1  UNL1       -0.1997
     17 C         -25.0260    6.4790   26.9630 C.3     1  UNL1        0.1388
     18 O         -25.1430    3.9660   28.2430 O.2     1  UNL1       -0.2683
     19 C         -27.4380    3.0910   25.6450 C.2     1  UNL1        0.1067
     20 N         -28.0750    2.0890   25.0030 N.2     1  UNL1       -0.2081
     21 C         -27.5430    0.8490   25.0790 C.2     1  UNL1        0.2533
     22 O         -28.1930   -0.2080   24.4770 O.2     1  UNL1       -0.4558
     23 C         -29.4600    0.0050   23.8660 C.3     1  UNL1        0.2426
     24 C         -30.0650   -1.3770   23.5730 C.3     1  UNL1        0.2292
     25 O         -30.7290   -1.8780   24.7210 O.3     1  UNL1       -0.2162
     26 C         -26.3540    0.5760   25.7770 C.2     1  UNL1        0.1931
     27 F         -25.8600   -0.6810   25.7950 F       1  UNL1       -0.1992
     28 N         -26.7215    1.2545   29.0581 N.am    1  UNL1       -0.1830
     29 C         -28.0952    2.6819   30.5124 C.3     1  UNL1        0.0896
     30 C         -29.3363    2.5225   31.4258 C.3     1  UNL1        0.0452
     31 O         -28.5466    0.3775   29.8872 O.2     1  UNL1       -0.2733
     32 C         -26.3388   -0.1316   28.4840 C.3     1  UNL1        0.2097
     33 C         -29.8182    3.9676   31.7542 C.3     1  UNL1        0.1826
     34 O         -28.7036    4.5968   32.4008 O.3     1  UNL1       -0.2204
     35 N         -21.4635    1.3693   27.9894 N.2     1  UNL1       -0.0276
     36 C         -21.7731    2.0843   26.8759 C.2     1  UNL1        0.2361
     37 N         -21.9738   -0.3416   29.4880 N.pl3   1  UNL1        0.2178
     38 N         -24.9812   -0.0755   29.0392 N.pl3   1  UNL1       -0.2798
     39 C         -22.4175    0.5700   28.6084 C.2     1  UNL1        0.4287
     40 C         -24.2756    1.4318   27.1045 C.2     1  UNL1        0.0273
     41 C         -23.1146    2.1598   26.4079 C.2     1  UNL1        0.0520
     42 C         -23.9488    0.6558   28.2798 C.2     1  UNL1        0.1414
     43 C         -27.7478    1.3761   29.8000 C.2     1  UNL1        0.2430
@<TRIPOS>BOND
     1     1    38    1
     2     2     7    1
     3     2     1    1
     4     3     2    2
     5     4     3    1
     6     4     5    2
     7     5     6    1
     8     6     7    2
     9     8     1    1
    10     8     9    1
    11     8    12    1
    12     9    10    1
    13    10    11    1
    14    12    11    1
    15    13    40    1
    16    14    13    1
    17    14    15    1
    18    15    18    2
    19    16    17    1
    20    16    15    1
    21    19    14    2
    22    20    21    2
    23    20    19    1
    24    21    26    1
    25    22    21    1
    26    23    22    1
    27    24    23    1
    28    24    25    1
    29    26    27    1
    30    26    13    2
    31    28    43    1
    32    29    30    1
    33    30    33    1
    34    32    38    1
    35    32    28    1
    36    33    34    1
    37    35    39    1
    38    36    35    2
    39    39    37    1
    40    40    42    1
    41    41    36    1
    42    41    40    2
    43    42    39    2
    44    42    38    1
    45    43    31    2
    46    43    29    1
