@<TRIPOS>MOLECULE
No_179-gen_results/8p0m/2024-11-27-11-27-31/
 20 21 0 0 0
SMALL
GASTEIGER

@<TRIPOS>ATOM
      1 C         -28.0162   -0.8135   28.8779 C.ar    1  UNL1       -0.0040
      2 C         -27.0636   -0.1189   28.6079 C.ar    1  UNL1       -0.0187
      3 C         -26.9287    1.1713   29.0083 C.ar    1  UNL1       -0.0077
      4 C         -27.9560    1.7411   29.7840 C.ar    1  UNL1       -0.0121
      5 C         -29.0569   -0.3271   29.7466 C.ar    1  UNL1       -0.0006
      6 C         -28.9828    0.9722   30.1516 C.ar    1  UNL1       -0.0038
      7 C         -25.8815   -0.6260   27.7945 C.3     1  UNL1        0.0439
      8 C         -25.4215    0.1302   26.7096 C.3     1  UNL1        0.0087
      9 C         -25.0332   -1.6821   28.2396 C.2     1  UNL1       -0.0266
     10 C         -23.8635   -1.4377   29.0263 C.2     1  UNL1       -0.0304
     11 C         -23.2724   -0.1521   29.1376 C.3     1  UNL1        0.0257
     12 C         -23.9064    0.9816   28.8971 C.3     1  UNL1        0.0047
     13 C         -24.3016    1.2462   27.4374 C.3     1  UNL1        0.0010
     14 C         -23.8198    2.2774   26.6038 C.3     1  UNL1        0.0000
     15 C         -27.8333    3.1879   30.2243 C.3     1  UNL1        0.1256
     16 C         -27.2893    3.4506   31.2889 C.2     1  UNL1        0.3683
     17 C         -28.2140    4.1665   29.2548 C.3     1  UNL1        0.0157
     18 O         -27.0207    2.7070   32.1996 O.co2   1  UNL1       -0.2453
     19 O         -27.0552    4.7673   31.6424 O.co2   1  UNL1       -0.2453
     20 C         -29.3587    4.6239   29.1967 C.3     1  UNL1        0.0009
@<TRIPOS>BOND
     1     2     7    1
     2     7     8    1
     3     7     9    1
     4     9    10    2
     5    10    11    1
     6    11    12    1
     7     8    13    1
     8    12    13    1
     9    13    14    1
    10     4    15    1
    11    15    16    1
    12    15    17    1
    13    16    18   ar
    14    16    19   ar
    15    17    20    1
    16     1     2   ar
    17     2     3   ar
    18     3     4   ar
    19     4     6   ar
    20     6     5   ar
    21     5     1   ar
