@<TRIPOS>MOLECULE
outputs/IAG933/test6/raw/output_1790_IAG933_linker_design_.xyz
 45 49 0 0 0
SMALL
GASTEIGER

@<TRIPOS>ATOM
      1 C         -24.8550   -1.0120   30.1430 C.3     1  UNL1        0.0437
      2 C         -24.9730   -2.5050   29.7880 C.2     1  UNL1       -0.0208
      3 C         -23.9060   -3.1730   29.1460 C.2     1  UNL1       -0.0042
      4 C         -23.9890   -4.5490   28.8530 C.2     1  UNL1       -0.0003
      5 C         -25.1370   -5.2800   29.2050 C.2     1  UNL1       -0.0000
      6 C         -26.2320   -4.6110   29.7840 C.2     1  UNL1       -0.0003
      7 C         -26.1550   -3.2320   30.0650 C.2     1  UNL1       -0.0042
      8 C         -25.3870   -0.6790   31.5710 C.3     1  UNL1        0.0776
      9 C         -25.1890    0.7730   32.0280 C.3     1  UNL1        0.0258
     10 C         -25.3360    0.6840   33.5440 C.3     1  UNL1        0.0207
     11 C         -24.8290   -0.7150   33.9050 C.3     1  UNL1        0.0887
     12 N         -24.7580   -1.4810   32.6460 N.3     1  UNL1       -0.2191
     13 C         -25.6880    1.6140   26.4610 C.3     1  UNL1        0.1455
     14 C         -26.2500    2.9200   26.3950 C.2     1  UNL1        0.0731
     15 C         -25.6420    4.0930   27.1230 C.2     1  UNL1        0.2640
     16 N         -25.6140    5.2520   26.4490 N.am    1  UNL1       -0.1999
     17 C         -25.0260    6.4790   26.9630 C.3     1  UNL1        0.1388
     18 O         -25.1430    3.9660   28.2430 O.2     1  UNL1       -0.2686
     19 C         -27.4380    3.0910   25.6450 C.2     1  UNL1        0.1038
     20 N         -28.0750    2.0890   25.0030 N.2     1  UNL1       -0.2118
     21 C         -27.5430    0.8490   25.0790 C.2     1  UNL1        0.2358
     22 O         -28.1930   -0.2080   24.4770 O.2     1  UNL1       -0.4585
     23 C         -29.4600    0.0050   23.8660 C.3     1  UNL1        0.2423
     24 C         -30.0650   -1.3770   23.5730 C.3     1  UNL1        0.2292
     25 O         -30.7290   -1.8780   24.7210 O.3     1  UNL1       -0.2162
     26 C         -26.3540    0.5760   25.7770 C.3     1  UNL1        0.2581
     27 F         -25.8600   -0.6810   25.7950 F       1  UNL1       -0.2251
     28 O         -23.9176   -0.2340   27.3428 O.2     1  UNL1       -0.2718
     29 C         -25.3870    3.6745   32.0434 C.3     1  UNL1        0.1391
     30 O         -27.8957    5.5955   31.9543 O.3     1  UNL1       -0.2793
     31 C         -24.8329    6.0269   31.0926 C.3     1  UNL1        0.1619
     32 C         -23.1608    2.5261   26.3163 C.3     1  UNL1        0.1055
     33 C         -25.0952    2.2545   31.6141 C.3     1  UNL1        0.0711
     34 C         -23.7155    2.1086   30.8963 C.2     1  UNL1        0.0704
     35 C         -28.9897    6.5025   32.1737 C.3     1  UNL1        0.2007
     36 N         -26.6290    5.7802   32.4148 N.3     1  UNL1       -0.1607
     37 S         -21.3027    1.6076   27.5353 S.3     1  UNL1       -0.1063
     38 C         -22.7159    1.2480   28.4818 C.3     1  UNL1        0.2261
     39 N         -23.6996    1.4494   29.5711 N.2     1  UNL1       -0.2550
     40 C         -25.8895    6.7512   31.7847 C.3     1  UNL1        0.1330
     41 N         -24.2853    1.6094   26.8813 N.am    1  UNL1       -0.2708
     42 O         -25.0049    4.6599   30.8753 O.3     1  UNL1       -0.3528
     43 C         -26.0603    4.5341   32.9663 C.3     1  UNL1        0.1308
     44 C         -21.9022    2.1829   26.0867 C.3     1  UNL1        0.0813
     45 C         -23.7927    0.8085   27.4417 C.2     1  UNL1        0.2588
@<TRIPOS>BOND
     1     2     7    1
     2     2     1    1
     3     3     2    2
     4     4     3    1
     5     4     5    2
     6     5     6    1
     7     6     7    2
     8     8     1    1
     9     8     9    1
    10     8    12    1
    11     9    33    1
    12     9    10    1
    13    10    11    1
    14    12    11    1
    15    13    41    1
    16    14    13    1
    17    14    15    1
    18    15    18    2
    19    16    17    1
    20    16    15    1
    21    19    14    2
    22    20    21    2
    23    20    19    1
    24    21    26    1
    25    22    21    1
    26    23    22    1
    27    24    23    1
    28    24    25    1
    29    26    27    1
    30    26    13    1
    31    28    45    2
    32    29    33    1
    33    29    43    1
    34    30    35    1
    35    30    36    1
    36    31    40    1
    37    32    41    1
    38    33    34    1
    39    36    43    1
    40    37    38    1
    41    38    39    1
    42    39    34    2
    43    40    36    1
    44    41    45   am
    45    42    31    1
    46    42    29    1
    47    44    32    1
    48    44    37    1
    49    45    38    1
