@<TRIPOS>MOLECULE
outputs/IAG933/test6/raw/output_1793_IAG933_linker_design_.xyz
 43 47 0 0 0
SMALL
GASTEIGER

@<TRIPOS>ATOM
      1 C         -24.8550   -1.0120   30.1430 C.3     1  UNL1        0.0671
      2 C         -24.9730   -2.5050   29.7880 C.2     1  UNL1       -0.0190
      3 C         -23.9060   -3.1730   29.1460 C.2     1  UNL1       -0.0042
      4 C         -23.9890   -4.5490   28.8530 C.2     1  UNL1       -0.0003
      5 C         -25.1370   -5.2800   29.2050 C.2     1  UNL1       -0.0000
      6 C         -26.2320   -4.6110   29.7840 C.2     1  UNL1       -0.0003
      7 C         -26.1550   -3.2320   30.0650 C.2     1  UNL1       -0.0042
      8 C         -25.3870   -0.6790   31.5710 C.3     1  UNL1        0.0790
      9 C         -25.1890    0.7730   32.0280 C.3     1  UNL1        0.0193
     10 C         -25.3360    0.6840   33.5440 C.3     1  UNL1        0.0202
     11 C         -24.8290   -0.7150   33.9050 C.3     1  UNL1        0.0887
     12 N         -24.7580   -1.4810   32.6460 N.3     1  UNL1       -0.2191
     13 C         -25.6880    1.6140   26.4610 C.3     1  UNL1        0.0936
     14 C         -26.2500    2.9200   26.3950 C.2     1  UNL1        0.0589
     15 C         -25.6420    4.0930   27.1230 C.2     1  UNL1        0.2628
     16 N         -25.6140    5.2520   26.4490 N.am    1  UNL1       -0.2000
     17 C         -25.0260    6.4790   26.9630 C.3     1  UNL1        0.1388
     18 O         -25.1430    3.9660   28.2430 O.2     1  UNL1       -0.2686
     19 C         -27.4380    3.0910   25.6450 C.2     1  UNL1        0.1025
     20 N         -28.0750    2.0890   25.0030 N.2     1  UNL1       -0.2118
     21 C         -27.5430    0.8490   25.0790 C.2     1  UNL1        0.2344
     22 O         -28.1930   -0.2080   24.4770 O.2     1  UNL1       -0.4585
     23 C         -29.4600    0.0050   23.8660 C.3     1  UNL1        0.2423
     24 C         -30.0650   -1.3770   23.5730 C.3     1  UNL1        0.2292
     25 O         -30.7290   -1.8780   24.7210 O.3     1  UNL1       -0.2162
     26 C         -26.3540    0.5760   25.7770 C.3     1  UNL1        0.2440
     27 F         -25.8600   -0.6810   25.7950 F       1  UNL1       -0.2265
     28 C         -23.4413    2.0178   25.9132 C.2     1  UNL1       -0.0026
     29 C         -22.7663    1.3119   28.5939 C.2     1  UNL1        0.0158
     30 C         -28.4525    2.1454   30.6762 C.3     1  UNL1        0.1274
     31 C         -22.1102    2.0755   26.3576 C.2     1  UNL1       -0.0002
     32 C         -27.1639    4.2366   30.9577 C.3     1  UNL1        0.1441
     33 C         -28.0406    3.4477   29.9306 C.3     1  UNL1        0.0563
     34 C         -24.3828    1.5775   26.8806 C.2     1  UNL1       -0.0002
     35 O         -27.5798    3.5997   32.1928 O.3     1  UNL1       -0.3519
     36 N         -27.7087    0.9476   30.2741 N.am    1  UNL1       -0.2031
     37 C         -24.1169    1.1472   28.1437 C.2     1  UNL1        0.0622
     38 C         -27.3318    0.0105   29.3179 C.2     1  UNL1        0.2615
     39 N         -25.1698    0.8940   28.7984 N.pl3   1  UNL1       -0.2300
     40 C         -25.8439   -0.3060   29.2042 C.3     1  UNL1        0.1751
     41 C         -28.4644    2.4712   32.0355 C.3     1  UNL1        0.1637
     42 O         -28.1029   -0.6836   28.6342 O.2     1  UNL1       -0.2715
     43 C         -21.7710    1.7684   27.6790 C.2     1  UNL1        0.0013
@<TRIPOS>BOND
     1     1    40    1
     2     2     7    1
     3     2     1    1
     4     3     2    2
     5     4     3    1
     6     4     5    2
     7     5     6    1
     8     6     7    2
     9     8     1    1
    10     8     9    1
    11     8    12    1
    12     9    10    1
    13    10    11    1
    14    12    11    1
    15    13    34    1
    16    14    13    1
    17    14    15    1
    18    15    18    2
    19    16    17    1
    20    16    15    1
    21    19    14    2
    22    20    21    2
    23    20    19    1
    24    21    26    1
    25    22    21    1
    26    23    22    1
    27    24    23    1
    28    24    25    1
    29    26    27    1
    30    26    13    1
    31    28    31    2
    32    28    34    1
    33    30    36    1
    34    30    41    1
    35    31    43    1
    36    32    35    1
    37    33    30    1
    38    33    32    1
    39    34    37    2
    40    37    29    1
    41    37    39    1
    42    38    36    1
    43    40    39    1
    44    40    38    1
    45    41    35    1
    46    42    38    2
    47    43    29    2
