@<TRIPOS>MOLECULE
outputs/IAG933/test6/raw/output_180_IAG933_linker_design_.xyz
 42 46 0 0 0
SMALL
GASTEIGER

@<TRIPOS>ATOM
      1 C         -24.8550   -1.0120   30.1430 C.3     1  UNL1        0.2032
      2 C         -24.9730   -2.5050   29.7880 C.2     1  UNL1        0.0217
      3 C         -23.9060   -3.1730   29.1460 C.2     1  UNL1       -0.0004
      4 C         -23.9890   -4.5490   28.8530 C.2     1  UNL1       -0.0002
      5 C         -25.1370   -5.2800   29.2050 C.2     1  UNL1       -0.0000
      6 C         -26.2320   -4.6110   29.7840 C.2     1  UNL1       -0.0002
      7 C         -26.1550   -3.2320   30.0650 C.2     1  UNL1       -0.0004
      8 C         -25.3870   -0.6790   31.5710 C.3     1  UNL1        0.1201
      9 C         -25.1890    0.7730   32.0280 C.3     1  UNL1        0.0233
     10 C         -25.3360    0.6840   33.5440 C.3     1  UNL1        0.0204
     11 C         -24.8290   -0.7150   33.9050 C.3     1  UNL1        0.0889
     12 N         -24.7580   -1.4810   32.6460 N.3     1  UNL1       -0.2150
     13 C         -25.6880    1.6140   26.4610 C.2     1  UNL1        0.0524
     14 C         -26.2500    2.9200   26.3950 C.2     1  UNL1        0.0774
     15 C         -25.6420    4.0930   27.1230 C.2     1  UNL1        0.2664
     16 N         -25.6140    5.2520   26.4490 N.am    1  UNL1       -0.1997
     17 C         -25.0260    6.4790   26.9630 C.3     1  UNL1        0.1388
     18 O         -25.1430    3.9660   28.2430 O.2     1  UNL1       -0.2683
     19 C         -27.4380    3.0910   25.6450 C.2     1  UNL1        0.1068
     20 N         -28.0750    2.0890   25.0030 N.2     1  UNL1       -0.2081
     21 C         -27.5430    0.8490   25.0790 C.2     1  UNL1        0.2533
     22 O         -28.1930   -0.2080   24.4770 O.2     1  UNL1       -0.4558
     23 C         -29.4600    0.0050   23.8660 C.3     1  UNL1        0.2426
     24 C         -30.0650   -1.3770   23.5730 C.3     1  UNL1        0.2292
     25 O         -30.7290   -1.8780   24.7210 O.3     1  UNL1       -0.2162
     26 C         -26.3540    0.5760   25.7770 C.2     1  UNL1        0.1939
     27 F         -25.8600   -0.6810   25.7950 F       1  UNL1       -0.1992
     28 N         -25.4992   -0.0776   29.2096 N.pl3   1  UNL1       -0.1685
     29 C         -27.7529    1.3951   29.5035 C.2     1  UNL1        0.0188
     30 C         -24.5150    0.4904   28.4771 C.2     1  UNL1        0.3381
     31 C         -24.6940    1.1682   27.2488 C.2     1  UNL1        0.1193
     32 C         -29.1391    1.0967   29.4546 C.3     1  UNL1        0.0557
     33 C         -27.0879    0.1320   29.0172 C.2     1  UNL1        0.1347
     34 C         -22.5683    2.5134   24.8196 C.3     1  UNL1        0.0396
     35 C         -22.7090    1.8459   26.2543 C.2     1  UNL1        0.0188
     36 C         -23.7284    1.5306   26.6972 C.1     1  UNL1       -0.0985
     37 N         -23.2126    0.3980   28.8693 N.2     1  UNL1       -0.0086
     38 C         -29.3058   -0.2501   29.0947 C.2     1  UNL1       -0.0178
     39 C         -22.0340    1.4701   27.0984 C.2     1  UNL1        0.0812
     40 C         -22.0686    0.9079   28.3094 C.2     1  UNL1        0.3308
     41 F         -20.9224    0.9398   28.9593 F       1  UNL1       -0.1540
     42 C         -28.0505   -0.7424   28.8876 C.2     1  UNL1        0.0357
@<TRIPOS>BOND
     1     1    28    1
     2     2     7    1
     3     2     1    1
     4     3     2    2
     5     4     3    1
     6     4     5    2
     7     5     6    1
     8     6     7    2
     9     8     1    1
    10     8     9    1
    11     8    12    1
    12     9    10    1
    13    10    11    1
    14    12    11    1
    15    13    31    1
    16    14    13    1
    17    14    15    1
    18    15    18    2
    19    16    17    1
    20    16    15    1
    21    19    14    2
    22    20    21    2
    23    20    19    1
    24    21    26    1
    25    22    21    1
    26    23    22    1
    27    24    23    1
    28    24    25    1
    29    26    27    1
    30    26    13    2
    31    30    37    2
    32    30    28    1
    33    31    30    1
    34    32    29    1
    35    33    28    1
    36    33    29    2
    37    34    35    1
    38    35    36    2
    39    35    39    1
    40    36    31    2
    41    38    32    1
    42    39    40    2
    43    40    37    1
    44    40    41    1
    45    42    33    1
    46    42    38    2
