@<TRIPOS>MOLECULE
No_1802-gen_results/8p0m/2024-11-27-11-27-31/
 18 18 0 0 0
SMALL
GASTEIGER

@<TRIPOS>ATOM
      1 F         -28.0727   -1.2542   28.5316 F       1  UNL1       -0.2016
      2 C         -27.3591   -0.3792   28.7224 C.ar    1  UNL1        0.1720
      3 C         -26.3323   -0.6441   29.4520 C.ar    1  UNL1        0.1707
      4 C         -25.2562    0.3203   29.7818 C.ar    1  UNL1        0.0740
      5 C         -25.4242    1.6275   29.2026 C.ar    1  UNL1        0.1983
      6 C         -26.5263    1.8254   28.4032 C.ar    1  UNL1        0.0490
      7 C         -27.4513    0.8601   28.1355 C.ar    1  UNL1        0.0882
      8 C         -28.5399    1.2022   27.2448 C.2     1  UNL1        0.2714
      9 N         -28.4879    1.9424   26.2706 N.am    1  UNL1       -0.1741
     10 O         -29.4719    0.3114   27.1627 O.2     1  UNL1       -0.2679
     11 C         -29.5169    2.1858   25.2470 C.2     1  UNL1        0.0889
     12 O         -24.5244    2.5680   29.5074 O.3     1  UNL1       -0.2865
     13 F         -26.0481   -1.8159   30.0650 F       1  UNL1       -0.2017
     14 C         -29.8614    3.0931   24.9883 C.2     1  UNL1        0.0179
     15 C         -30.9408    3.4055   23.9305 C.2     1  UNL1        0.0014
     16 C         -31.5866    4.5562   23.6717 C.2     1  UNL1        0.0000
     17 C         -32.7349    4.4762   22.8844 C.2     1  UNL1        0.0000
     18 C         -32.9479    3.2776   22.0918 C.2     1  UNL1        0.0000
@<TRIPOS>BOND
     1     1     2    1
     2     7     8    1
     3     8     9   am
     4     8    10    2
     5     9    11    1
     6     5    12    1
     7     3    13    1
     8    11    14    2
     9    14    15    1
    10    15    16    2
    11    16    17    1
    12    17    18    2
    13     2     3   ar
    14     3     4   ar
    15     4     5   ar
    16     5     6   ar
    17     6     7   ar
    18     7     2   ar
