@<TRIPOS>MOLECULE
No_1805-gen_results/8p0m/2024-11-27-11-27-31/
 10 11 0 0 0
SMALL
GASTEIGER

@<TRIPOS>ATOM
      1 N         -28.0544   -1.0498   28.7246 N.pl3   1  UNL1       -0.2344
      2 C         -26.9659   -0.4722   28.7709 C.ar    1  UNL1        0.0801
      3 C         -25.9289   -1.0196   29.5059 C.ar    1  UNL1        0.0801
      4 C         -24.6309   -0.4459   29.5994 C.ar    1  UNL1        0.0174
      5 C         -24.4031    0.7890   28.9309 C.ar    1  UNL1        0.0014
      6 C         -25.4769    1.3309   28.1733 C.ar    1  UNL1        0.0014
      7 C         -26.6735    0.7165   28.0807 C.ar    1  UNL1        0.0174
      8 C         -28.6048   -1.5255   29.9160 C.3     1  UNL1        0.1355
      9 C         -27.7455   -2.4643   30.6164 C.3     1  UNL1        0.1355
     10 N         -26.3514   -1.9343   30.6528 N.pl3   1  UNL1       -0.2344
@<TRIPOS>BOND
     1     1     2    1
     2     1     8    1
     3     8     9    1
     4     3    10    1
     5     9    10    1
     6     2     3   ar
     7     3     4   ar
     8     4     5   ar
     9     5     6   ar
    10     6     7   ar
    11     7     2   ar
