@<TRIPOS>MOLECULE
No_1807-gen_results/8p0m/2024-11-27-11-27-31/
 13 14 0 0 0
SMALL
GASTEIGER

@<TRIPOS>ATOM
      1 C         -28.0162   -0.8135   28.8779 C.ar    1  UNL1       -0.0039
      2 C         -27.0636   -0.1189   28.6079 C.ar    1  UNL1       -0.0178
      3 C         -25.7923   -0.4302   29.0761 C.ar    1  UNL1       -0.0039
      4 C         -25.5756   -1.5654   29.9363 C.ar    1  UNL1       -0.0003
      5 C         -26.7354   -2.3004   30.2173 C.ar    1  UNL1       -0.0000
      6 C         -27.9184   -1.9537   29.7629 C.ar    1  UNL1       -0.0003
      7 C         -27.1057    1.1023   27.7593 C.3     1  UNL1        0.0526
      8 C         -26.7157    2.2350   27.9945 C.ar    1  UNL1       -0.0178
      9 C         -26.0688    2.4770   29.3567 C.ar    1  UNL1       -0.0039
     10 C         -25.4404    3.7637   29.5604 C.ar    1  UNL1       -0.0003
     11 C         -25.5222    4.7219   28.6223 C.ar    1  UNL1       -0.0000
     12 C         -26.0121    4.4991   27.3532 C.ar    1  UNL1       -0.0003
     13 C         -26.5922    3.2654   27.0520 C.ar    1  UNL1       -0.0039
@<TRIPOS>BOND
     1     2     7    1
     2     7     8    1
     3     1     2   ar
     4     2     3   ar
     5     3     4   ar
     6     4     5   ar
     7     5     6   ar
     8     6     1   ar
     9     8     9   ar
    10     9    10   ar
    11    10    11   ar
    12    11    12   ar
    13    12    13   ar
    14    13     8   ar
