@<TRIPOS>MOLECULE
No_1808-gen_results/8p0m/2024-11-27-11-27-31/
 23 26 0 0 0
SMALL
GASTEIGER

@<TRIPOS>ATOM
      1 N         -28.0544   -1.0498   28.7246 N.ar    1  UNL1       -0.2438
      2 C         -27.7460   -0.0733   29.0098 C.ar    1  UNL1        0.0813
      3 C         -27.1737    0.7565   28.1070 C.ar    1  UNL1        0.0179
      4 C         -26.5770    2.0960   28.3920 C.ar    1  UNL1        0.0077
      5 C         -26.5762    2.4337   29.7569 C.ar    1  UNL1        0.0761
      6 C         -27.0953    1.5387   30.7175 C.ar    1  UNL1        0.0079
      7 C         -27.5988    0.3077   30.4002 C.ar    1  UNL1        0.0179
      8 C         -27.7930   -2.1260   29.6217 C.ar    1  UNL1        0.0988
      9 C         -27.8751   -1.9304   31.0336 C.ar    1  UNL1        0.0207
     10 C         -27.9395   -0.7141   31.4350 C.ar    1  UNL1        0.0031
     11 C         -27.1468    0.5281   26.6447 C.ar    1  UNL1        0.0015
     12 C         -26.1532    0.9938   25.8121 C.ar    1  UNL1        0.0000
     13 C         -25.6069    2.2698   26.1243 C.ar    1  UNL1        0.0000
     14 C         -25.6521    2.7415   27.5181 C.ar    1  UNL1        0.0003
     15 C         -25.9682    3.7388   30.1463 C.2     1  UNL1        0.3457
     16 O         -25.0934    3.7824   30.9333 O.2     1  UNL1       -0.2445
     17 O         -26.4033    4.7813   29.5213 O.3     1  UNL1       -0.4210
     18 C         -27.1066    5.6839   30.2545 C.ar    1  UNL1        0.1488
     19 C         -27.8458    6.3535   29.5599 C.ar    1  UNL1        0.0376
     20 C         -28.6878    7.3745   30.2374 C.ar    1  UNL1        0.0031
     21 C         -28.5444    7.5692   31.6208 C.ar    1  UNL1        0.0002
     22 C         -27.6288    6.7457   32.2737 C.ar    1  UNL1        0.0031
     23 C         -26.8687    5.8461   31.6417 C.ar    1  UNL1        0.0376
@<TRIPOS>BOND
     1     5    15    1
     2    15    16    2
     3    15    17    1
     4    17    18    1
     5    18    19   ar
     6    19    20   ar
     7    20    21   ar
     8    21    22   ar
     9    22    23   ar
    10    23    18   ar
    11     2     3   ar
    12     4     5   ar
    13     5     6   ar
    14     6     7   ar
    15     3     4   ar
    16     4    14   ar
    17    14    13   ar
    18    13    12   ar
    19    12    11   ar
    20    11     3   ar
    21     1     2   ar
    22     2     7   ar
    23     7    10   ar
    24    10     9   ar
    25     9     8   ar
    26     8     1   ar
