@<TRIPOS>MOLECULE
outputs/IAG933/test6/raw/output_181_IAG933_linker_design_.xyz
 40 44 0 0 0
SMALL
GASTEIGER

@<TRIPOS>ATOM
      1 C         -24.8550   -1.0120   30.1430 C.3     1  UNL1        0.1152
      2 C         -24.9730   -2.5050   29.7880 C.2     1  UNL1       -0.0125
      3 C         -23.9060   -3.1730   29.1460 C.2     1  UNL1       -0.0038
      4 C         -23.9890   -4.5490   28.8530 C.2     1  UNL1       -0.0003
      5 C         -25.1370   -5.2800   29.2050 C.2     1  UNL1       -0.0000
      6 C         -26.2320   -4.6110   29.7840 C.2     1  UNL1       -0.0003
      7 C         -26.1550   -3.2320   30.0650 C.2     1  UNL1       -0.0038
      8 C         -25.3870   -0.6790   31.5710 C.3     1  UNL1        0.0855
      9 C         -25.1890    0.7730   32.0280 C.3     1  UNL1        0.0197
     10 C         -25.3360    0.6840   33.5440 C.3     1  UNL1        0.0203
     11 C         -24.8290   -0.7150   33.9050 C.3     1  UNL1        0.0887
     12 N         -24.7580   -1.4810   32.6460 N.3     1  UNL1       -0.2186
     13 C         -25.6880    1.6140   26.4610 C.2     1  UNL1        0.0544
     14 C         -26.2500    2.9200   26.3950 C.2     1  UNL1        0.0778
     15 C         -25.6420    4.0930   27.1230 C.2     1  UNL1        0.2665
     16 N         -25.6140    5.2520   26.4490 N.am    1  UNL1       -0.1997
     17 C         -25.0260    6.4790   26.9630 C.3     1  UNL1        0.1388
     18 O         -25.1430    3.9660   28.2430 O.2     1  UNL1       -0.2683
     19 C         -27.4380    3.0910   25.6450 C.2     1  UNL1        0.1068
     20 N         -28.0750    2.0890   25.0030 N.2     1  UNL1       -0.2081
     21 C         -27.5430    0.8490   25.0790 C.2     1  UNL1        0.2533
     22 O         -28.1930   -0.2080   24.4770 O.2     1  UNL1       -0.4558
     23 C         -29.4600    0.0050   23.8660 C.3     1  UNL1        0.2426
     24 C         -30.0650   -1.3770   23.5730 C.3     1  UNL1        0.2292
     25 O         -30.7290   -1.8780   24.7210 O.3     1  UNL1       -0.2162
     26 C         -26.3540    0.5760   25.7770 C.2     1  UNL1        0.1943
     27 F         -25.8600   -0.6810   25.7950 F       1  UNL1       -0.1992
     28 N         -24.5393    0.5775   28.3509 N.am    1  UNL1       -0.2544
     29 C         -24.4928    1.2956   27.1619 C.2     1  UNL1        0.0863
     30 O         -23.5087    2.4586   25.4927 O.2     1  UNL1       -0.4744
     31 O         -26.5778   -0.0493   28.8521 O.2     1  UNL1       -0.2741
     32 C         -25.4183   -0.1108   29.0904 C.2     1  UNL1        0.2344
     33 C         -22.1583    0.3760   28.9524 C.3     1  UNL1        0.1088
     34 C         -23.3324    1.8645   26.6016 C.2     1  UNL1        0.1298
     35 N         -21.3010   -0.5333   29.0025 N.3     1  UNL1       -0.2162
     36 C         -20.9043    1.5526   27.5785 C.3     1  UNL1        0.0268
     37 C         -23.4359    0.6305   28.8312 C.3     1  UNL1        0.1170
     38 C         -21.9716    1.8560   26.9459 C.3     1  UNL1        0.0667
     39 C         -21.1636    0.5502   28.7843 C.3     1  UNL1        0.0909
     40 C         -22.3708    2.6048   24.6993 C.3     1  UNL1        0.2520
@<TRIPOS>BOND
     1     1    32    1
     2     2     7    1
     3     2     1    1
     4     3     2    2
     5     4     3    1
     6     4     5    2
     7     5     6    1
     8     6     7    2
     9     8     1    1
    10     8     9    1
    11     8    12    1
    12     9    10    1
    13    10    11    1
    14    12    11    1
    15    13    29    1
    16    14    13    1
    17    14    15    1
    18    15    18    2
    19    16    17    1
    20    16    15    1
    21    19    14    2
    22    20    21    2
    23    20    19    1
    24    21    26    1
    25    22    21    1
    26    23    22    1
    27    24    23    1
    28    24    25    1
    29    26    27    1
    30    26    13    2
    31    28    37    1
    32    28    32   am
    33    29    28    1
    34    30    34    1
    35    31    32    2
    36    33    37    1
    37    33    35    1
    38    34    38    1
    39    34    29    2
    40    38    36    1
    41    39    36    1
    42    39    33    1
    43    39    35    1
    44    40    30    1
