@<TRIPOS>MOLECULE
outputs/IAG933/test6/raw/output_1811_IAG933_linker_design_.xyz
 41 45 0 0 0
SMALL
GASTEIGER

@<TRIPOS>ATOM
      1 C         -24.8550   -1.0120   30.1430 C.3     1  UNL1        0.0601
      2 C         -24.9730   -2.5050   29.7880 C.2     1  UNL1       -0.0194
      3 C         -23.9060   -3.1730   29.1460 C.2     1  UNL1       -0.0042
      4 C         -23.9890   -4.5490   28.8530 C.2     1  UNL1       -0.0003
      5 C         -25.1370   -5.2800   29.2050 C.2     1  UNL1       -0.0000
      6 C         -26.2320   -4.6110   29.7840 C.2     1  UNL1       -0.0003
      7 C         -26.1550   -3.2320   30.0650 C.2     1  UNL1       -0.0042
      8 C         -25.3870   -0.6790   31.5710 C.3     1  UNL1        0.0790
      9 C         -25.1890    0.7730   32.0280 C.3     1  UNL1        0.0289
     10 C         -25.3360    0.6840   33.5440 C.3     1  UNL1        0.0208
     11 C         -24.8290   -0.7150   33.9050 C.3     1  UNL1        0.0887
     12 N         -24.7580   -1.4810   32.6460 N.3     1  UNL1       -0.2191
     13 C         -25.6880    1.6140   26.4610 C.3     1  UNL1        0.0929
     14 C         -26.2500    2.9200   26.3950 C.2     1  UNL1        0.0589
     15 C         -25.6420    4.0930   27.1230 C.2     1  UNL1        0.2628
     16 N         -25.6140    5.2520   26.4490 N.am    1  UNL1       -0.2000
     17 C         -25.0260    6.4790   26.9630 C.3     1  UNL1        0.1388
     18 O         -25.1430    3.9660   28.2430 O.2     1  UNL1       -0.2686
     19 C         -27.4380    3.0910   25.6450 C.2     1  UNL1        0.1025
     20 N         -28.0750    2.0890   25.0030 N.2     1  UNL1       -0.2118
     21 C         -27.5430    0.8490   25.0790 C.2     1  UNL1        0.2344
     22 O         -28.1930   -0.2080   24.4770 O.2     1  UNL1       -0.4585
     23 C         -29.4600    0.0050   23.8660 C.3     1  UNL1        0.2423
     24 C         -30.0650   -1.3770   23.5730 C.3     1  UNL1        0.2292
     25 O         -30.7290   -1.8780   24.7210 O.3     1  UNL1       -0.2162
     26 C         -26.3540    0.5760   25.7770 C.3     1  UNL1        0.2440
     27 F         -25.8600   -0.6810   25.7950 F       1  UNL1       -0.2265
     28 C         -24.9924   -0.2244   28.8323 C.3     1  UNL1        0.1187
     29 C         -24.7712    1.7178   30.7761 C.3     1  UNL1        0.1091
     30 C         -23.0931    1.3815   28.7292 C.2     1  UNL1       -0.0245
     31 C         -23.2910    1.5106   25.9490 C.2     1  UNL1        0.0538
     32 C         -24.3084    1.3021   26.8299 C.2     1  UNL1       -0.0074
     33 C         -24.1291    0.7821   28.0884 C.2     1  UNL1       -0.0113
     34 O         -24.7731    4.0618   31.0445 O.co2   1  UNL1       -0.2457
     35 C         -22.0085    1.7584   26.5360 C.2     1  UNL1        0.0107
     36 C         -23.2887    1.7108   30.2356 C.3     1  UNL1        0.0373
     37 N         -26.5115   -0.1328   28.6052 N.3     1  UNL1       -0.1277
     38 C         -25.3865    3.0525   31.2225 C.2     1  UNL1        0.3647
     39 O         -26.4646    3.0994   31.8206 O.co2   1  UNL1       -0.2457
     40 CL        -23.4027    1.0901   24.2365 Cl      1  UNL1       -0.0826
     41 C         -21.9328    1.7223   27.9424 C.2     1  UNL1       -0.0037
@<TRIPOS>BOND
     1     1     2    1
     2     1     8    1
     3     2     7    1
     4     3     2    2
     5     4     3    1
     6     4     5    2
     7     5     6    1
     8     6     7    2
     9     8     9    1
    10     8    12    1
    11     9    10    1
    12    10    11    1
    13    12    11    1
    14    13    32    1
    15    14    13    1
    16    14    15    1
    17    15    18    2
    18    16    17    1
    19    16    15    1
    20    19    14    2
    21    20    21    2
    22    20    19    1
    23    21    26    1
    24    22    21    1
    25    23    22    1
    26    24    23    1
    27    24    25    1
    28    26    27    1
    29    26    13    1
    30    28    37    1
    31    28     1    1
    32    29    38    1
    33    29     9    1
    34    30    36    1
    35    31    35    2
    36    31    32    1
    37    32    33    2
    38    33    30    1
    39    33    28    1
    40    34    38   ar
    41    35    41    1
    42    36    29    1
    43    38    39   ar
    44    40    31    1
    45    41    30    2
