@<TRIPOS>MOLECULE
outputs/IAG933/test6/raw/output_1812_IAG933_linker_design_.xyz
 50 54 0 0 0
SMALL
GASTEIGER

@<TRIPOS>ATOM
      1 C         -24.8550   -1.0120   30.1430 C.3     1  UNL1        0.0425
      2 C         -24.9730   -2.5050   29.7880 C.2     1  UNL1       -0.0208
      3 C         -23.9060   -3.1730   29.1460 C.2     1  UNL1       -0.0042
      4 C         -23.9890   -4.5490   28.8530 C.2     1  UNL1       -0.0003
      5 C         -25.1370   -5.2800   29.2050 C.2     1  UNL1       -0.0000
      6 C         -26.2320   -4.6110   29.7840 C.2     1  UNL1       -0.0003
      7 C         -26.1550   -3.2320   30.0650 C.2     1  UNL1       -0.0042
      8 C         -25.3870   -0.6790   31.5710 C.3     1  UNL1        0.0771
      9 C         -25.1890    0.7730   32.0280 C.3     1  UNL1        0.0192
     10 C         -25.3360    0.6840   33.5440 C.3     1  UNL1        0.0202
     11 C         -24.8290   -0.7150   33.9050 C.3     1  UNL1        0.0887
     12 N         -24.7580   -1.4810   32.6460 N.3     1  UNL1       -0.2191
     13 C         -25.6880    1.6140   26.4610 C.2     1  UNL1        0.0378
     14 C         -26.2500    2.9200   26.3950 C.2     1  UNL1        0.0765
     15 C         -25.6420    4.0930   27.1230 C.2     1  UNL1        0.2664
     16 N         -25.6140    5.2520   26.4490 N.am    1  UNL1       -0.1997
     17 C         -25.0260    6.4790   26.9630 C.3     1  UNL1        0.1388
     18 O         -25.1430    3.9660   28.2430 O.2     1  UNL1       -0.2683
     19 C         -27.4380    3.0910   25.6450 C.2     1  UNL1        0.1067
     20 N         -28.0750    2.0890   25.0030 N.2     1  UNL1       -0.2081
     21 C         -27.5430    0.8490   25.0790 C.2     1  UNL1        0.2533
     22 O         -28.1930   -0.2080   24.4770 O.2     1  UNL1       -0.4558
     23 C         -29.4600    0.0050   23.8660 C.3     1  UNL1        0.2426
     24 C         -30.0650   -1.3770   23.5730 C.3     1  UNL1        0.2292
     25 O         -30.7290   -1.8780   24.7210 O.3     1  UNL1       -0.2162
     26 C         -26.3540    0.5760   25.7770 C.2     1  UNL1        0.1930
     27 F         -25.8600   -0.6810   25.7950 F       1  UNL1       -0.1992
     28 O         -30.6408   -0.2715   27.4285 O.2     1  UNL1       -0.2745
     29 C         -29.1393    3.1649   29.3615 C.2     1  UNL1       -0.0204
     30 C         -21.9500    1.0433   28.5704 C.2     1  UNL1       -0.0003
     31 C         -29.6497    3.4356   28.9436 C.3     1  UNL1        0.0461
     32 C         -30.2500    0.7552   27.9080 C.2     1  UNL1        0.2309
     33 C         -28.6038    1.5947   29.8336 C.3     1  UNL1        0.1185
     34 C         -30.3678    4.5793   27.1719 C.2     1  UNL1       -0.0077
     35 C         -28.1655   -0.3820   29.0474 C.3     1  UNL1        0.2307
     36 C         -29.5223    5.6087   27.5202 C.2     1  UNL1       -0.0006
     37 C         -29.0437    4.3172   29.4255 C.2     1  UNL1       -0.0071
     38 C         -23.0469    2.0804   26.6302 C.2     1  UNL1       -0.0002
     39 O         -28.3090   -0.6893   30.4305 O.3     1  UNL1       -0.2006
     40 C         -30.4627    3.3124   27.7590 C.2     1  UNL1       -0.0319
     41 C         -31.0728    2.0155   27.4644 C.3     1  UNL1        0.0954
     42 C         -24.3772    0.6875   28.2555 C.2     1  UNL1       -0.0219
     43 C         -21.8979    1.8671   27.4063 C.2     1  UNL1       -0.0000
     44 N         -29.1371    0.7071   28.8029 N.am    1  UNL1       -0.2511
     45 C         -24.3462    1.4576   27.0974 C.2     1  UNL1       -0.0014
     46 C         -26.7396   -0.3659   28.8280 C.3     1  UNL1        0.0589
     47 C         -31.6922    1.9495   26.0275 C.3     1  UNL1        0.0140
     48 C         -28.8979    5.6364   28.7378 C.2     1  UNL1       -0.0000
     49 C         -23.1659    0.5425   28.9934 C.2     1  UNL1       -0.0043
     50 C         -25.3732   -0.1424   28.9301 C.3     1  UNL1        0.0320
@<TRIPOS>BOND
     1     1    50    1
     2     2     7    1
     3     2     1    1
     4     3     2    2
     5     4     3    1
     6     4     5    2
     7     5     6    1
     8     6     7    2
     9     8     1    1
    10     8     9    1
    11     8    12    1
    12     9    10    1
    13    10    11    1
    14    12    11    1
    15    13    45    1
    16    14    13    1
    17    14    15    1
    18    15    18    2
    19    16    17    1
    20    16    15    1
    21    19    14    2
    22    20    21    2
    23    20    19    1
    24    21    26    1
    25    22    21    1
    26    23    22    1
    27    24    23    1
    28    24    25    1
    29    26    27    1
    30    26    13    2
    31    28    32    2
    32    29    37    2
    33    29    33    1
    34    30    49    1
    35    31    29    1
    36    32    44   am
    37    34    36    1
    38    34    40    2
    39    35    39    1
    40    36    48    2
    41    38    45    2
    42    38    43    1
    43    40    31    1
    44    41    47    1
    45    41    40    1
    46    41    32    1
    47    42    50    1
    48    42    49    2
    49    43    30    2
    50    44    35    1
    51    44    33    1
    52    45    42    1
    53    46    35    1
    54    50    46    1
