@<TRIPOS>MOLECULE
outputs/IAG933/test6/raw/output_1813_IAG933_linker_design_.xyz
 44 49 0 0 0
SMALL
GASTEIGER

@<TRIPOS>ATOM
      1 C         -24.8550   -1.0120   30.1430 C.3     1  UNL1        0.0622
      2 C         -24.9730   -2.5050   29.7880 C.2     1  UNL1       -0.0192
      3 C         -23.9060   -3.1730   29.1460 C.2     1  UNL1       -0.0042
      4 C         -23.9890   -4.5490   28.8530 C.2     1  UNL1       -0.0003
      5 C         -25.1370   -5.2800   29.2050 C.2     1  UNL1       -0.0000
      6 C         -26.2320   -4.6110   29.7840 C.2     1  UNL1       -0.0003
      7 C         -26.1550   -3.2320   30.0650 C.2     1  UNL1       -0.0042
      8 C         -25.3870   -0.6790   31.5710 C.3     1  UNL1        0.0788
      9 C         -25.1890    0.7730   32.0280 C.3     1  UNL1        0.0193
     10 C         -25.3360    0.6840   33.5440 C.3     1  UNL1        0.0202
     11 C         -24.8290   -0.7150   33.9050 C.3     1  UNL1        0.0887
     12 N         -24.7580   -1.4810   32.6460 N.3     1  UNL1       -0.2191
     13 C         -25.6880    1.6140   26.4610 C.2     1  UNL1        0.0381
     14 C         -26.2500    2.9200   26.3950 C.2     1  UNL1        0.0744
     15 C         -25.6420    4.0930   27.1230 C.2     1  UNL1        0.2662
     16 N         -25.6140    5.2520   26.4490 N.am    1  UNL1       -0.1997
     17 C         -25.0260    6.4790   26.9630 C.3     1  UNL1        0.1388
     18 O         -25.1430    3.9660   28.2430 O.2     1  UNL1       -0.2683
     19 C         -27.4380    3.0910   25.6450 C.2     1  UNL1        0.1065
     20 N         -28.0750    2.0890   25.0030 N.2     1  UNL1       -0.2081
     21 C         -27.5430    0.8490   25.0790 C.2     1  UNL1        0.2530
     22 O         -28.1930   -0.2080   24.4770 O.2     1  UNL1       -0.4558
     23 C         -29.4600    0.0050   23.8660 C.3     1  UNL1        0.2426
     24 C         -30.0650   -1.3770   23.5730 C.3     1  UNL1        0.2292
     25 O         -30.7290   -1.8780   24.7210 O.3     1  UNL1       -0.2162
     26 C         -26.3540    0.5760   25.7770 C.2     1  UNL1        0.1910
     27 F         -25.8600   -0.6810   25.7950 F       1  UNL1       -0.1995
     28 C         -21.1288    1.8053   26.6785 C.2     1  UNL1        0.0203
     29 C         -23.3337    1.1820   27.1933 C.2     1  UNL1        0.0519
     30 O         -23.1533    2.8283   25.4924 O.2     1  UNL1       -0.2871
     31 C         -23.0329    0.4580   28.1528 C.2     1  UNL1        0.0491
     32 N         -26.6644    1.9878   29.1050 N.2     1  UNL1       -0.2465
     33 C         -20.3936    1.0868   27.5207 C.3     1  UNL1        0.0554
     34 C         -22.5221    1.9999   26.3558 C.2     1  UNL1        0.1909
     35 C         -26.5574    0.6139   29.0262 C.2     1  UNL1        0.0773
     36 C         -27.6188   -0.1930   28.8444 C.2     1  UNL1        0.0164
     37 C         -25.2620   -0.0166   29.1058 C.3     1  UNL1        0.1188
     38 C         -21.9942   -0.1477   28.8588 C.2     1  UNL1        0.0102
     39 C         -24.4980    1.1719   27.2282 C.3     1  UNL1        0.1252
     40 N         -24.4655    0.6366   28.1811 N.pl3   1  UNL1       -0.2977
     41 C         -28.9041    0.2819   29.3202 C.2     1  UNL1        0.0029
     42 C         -28.9402    1.5447   30.1248 C.2     1  UNL1        0.0207
     43 C         -27.6818    2.4628   29.9722 C.2     1  UNL1        0.0985
     44 C         -20.6759    0.0536   28.4744 C.2     1  UNL1       -0.0201
@<TRIPOS>BOND
     1     1    37    1
     2     2     7    1
     3     2     1    1
     4     3     2    2
     5     4     3    1
     6     4     5    2
     7     5     6    1
     8     6     7    2
     9     8     1    1
    10     8     9    1
    11     8    12    1
    12     9    10    1
    13    10    11    1
    14    12    11    1
    15    14    13    1
    16    14    15    1
    17    15    18    2
    18    16    17    1
    19    16    15    1
    20    19    14    2
    21    20    21    2
    22    20    19    1
    23    21    26    1
    24    22    21    1
    25    23    22    1
    26    24    23    1
    27    24    25    1
    28    26    27    1
    29    26    13    2
    30    28    33    1
    31    29    39    1
    32    29    31    2
    33    30    34    1
    34    31    40    1
    35    31    38    1
    36    32    43    1
    37    33    44    1
    38    34    28    2
    39    34    29    1
    40    35    32    2
    41    36    35    1
    42    36    41    2
    43    37    35    1
    44    39    13    1
    45    39    40    1
    46    40    37    1
    47    41    42    1
    48    43    42    2
    49    44    38    2
