@<TRIPOS>MOLECULE
outputs/IAG933/test6/raw/output_1814_IAG933_linker_design_.xyz
 42 45 0 0 0
SMALL
GASTEIGER

@<TRIPOS>ATOM
      1 C         -24.8550   -1.0120   30.1430 C.3     1  UNL1        0.0547
      2 C         -24.9730   -2.5050   29.7880 C.2     1  UNL1       -0.0202
      3 C         -23.9060   -3.1730   29.1460 C.2     1  UNL1       -0.0042
      4 C         -23.9890   -4.5490   28.8530 C.2     1  UNL1       -0.0003
      5 C         -25.1370   -5.2800   29.2050 C.2     1  UNL1       -0.0000
      6 C         -26.2320   -4.6110   29.7840 C.2     1  UNL1       -0.0003
      7 C         -26.1550   -3.2320   30.0650 C.2     1  UNL1       -0.0042
      8 C         -25.3870   -0.6790   31.5710 C.3     1  UNL1        0.0777
      9 C         -25.1890    0.7730   32.0280 C.3     1  UNL1        0.0192
     10 C         -25.3360    0.6840   33.5440 C.3     1  UNL1        0.0202
     11 C         -24.8290   -0.7150   33.9050 C.3     1  UNL1        0.0887
     12 N         -24.7580   -1.4810   32.6460 N.3     1  UNL1       -0.2191
     13 C         -25.6880    1.6140   26.4610 C.2     1  UNL1        0.0394
     14 C         -26.2500    2.9200   26.3950 C.2     1  UNL1        0.0766
     15 C         -25.6420    4.0930   27.1230 C.2     1  UNL1        0.2664
     16 N         -25.6140    5.2520   26.4490 N.am    1  UNL1       -0.1997
     17 C         -25.0260    6.4790   26.9630 C.3     1  UNL1        0.1388
     18 O         -25.1430    3.9660   28.2430 O.2     1  UNL1       -0.2683
     19 C         -27.4380    3.0910   25.6450 C.2     1  UNL1        0.1067
     20 N         -28.0750    2.0890   25.0030 N.2     1  UNL1       -0.2081
     21 C         -27.5430    0.8490   25.0790 C.2     1  UNL1        0.2533
     22 O         -28.1930   -0.2080   24.4770 O.2     1  UNL1       -0.4558
     23 C         -29.4600    0.0050   23.8660 C.3     1  UNL1        0.2426
     24 C         -30.0650   -1.3770   23.5730 C.3     1  UNL1        0.2292
     25 O         -30.7290   -1.8780   24.7210 O.3     1  UNL1       -0.2162
     26 C         -26.3540    0.5760   25.7770 C.2     1  UNL1        0.1931
     27 F         -25.8600   -0.6810   25.7950 F       1  UNL1       -0.1992
     28 C         -22.9625    2.4951   25.4662 C.2     1  UNL1        0.3876
     29 C         -25.4858   -0.0399   29.1197 C.3     1  UNL1        0.1486
     30 O         -19.8914    2.0983   28.1659 O.3     1  UNL1       -0.2151
     31 O         -26.9448    1.7035   29.2141 O.co2   1  UNL1       -0.2452
     32 O         -21.9373    2.2903   24.8560 O.co2   1  UNL1       -0.2406
     33 O         -23.9097    3.1632   25.0218 O.co2   1  UNL1       -0.2406
     34 O         -27.8094   -0.3236   29.0678 O.co2   1  UNL1       -0.2452
     35 C         -21.9862    0.7206   28.6570 C.2     1  UNL1        0.0969
     36 C         -24.3699    0.5308   28.3494 C.2     1  UNL1        0.0700
     37 C         -26.8529    0.4159   29.1239 C.2     1  UNL1        0.3703
     38 C         -20.5117    1.3485   27.2486 C.3     1  UNL1        0.2103
     39 C         -21.9203    1.2642   27.4506 C.2     1  UNL1        0.0361
     40 C         -24.4757    1.3073   27.1661 C.2     1  UNL1        0.0228
     41 C         -23.0650    1.6867   26.7274 C.2     1  UNL1        0.0810
     42 N         -23.1546    0.2801   29.0289 N.2     1  UNL1       -0.2478
@<TRIPOS>BOND
     1     1    29    1
     2     2     7    1
     3     2     1    1
     4     3     2    2
     5     4     3    1
     6     4     5    2
     7     5     6    1
     8     6     7    2
     9     8     1    1
    10     8     9    1
    11     8    12    1
    12     9    10    1
    13    10    11    1
    14    12    11    1
    15    13    40    1
    16    14    13    1
    17    14    15    1
    18    15    18    2
    19    16    17    1
    20    16    15    1
    21    19    14    2
    22    20    21    2
    23    20    19    1
    24    21    26    1
    25    22    21    1
    26    23    22    1
    27    24    23    1
    28    24    25    1
    29    26    27    1
    30    26    13    2
    31    28    41    1
    32    29    37    1
    33    32    28   ar
    34    33    28   ar
    35    34    37   ar
    36    35    42    1
    37    36    42    2
    38    36    29    1
    39    37    31   ar
    40    38    39    1
    41    38    30    1
    42    39    35    2
    43    40    36    1
    44    41    40    2
    45    41    39    1
