@<TRIPOS>MOLECULE
No_1818-gen_results/8p0m/2024-11-27-11-27-31/
 24 26 0 0 0
SMALL
GASTEIGER

@<TRIPOS>ATOM
      1 C         -28.0162   -0.8135   28.8779 C.ar    1  UNL1        0.0003
      2 C         -28.4690   -0.7850   29.8287 C.ar    1  UNL1        0.0552
      3 C         -26.5455   -0.8762   28.8500 C.ar    1  UNL1       -0.0217
      4 C         -25.8041   -1.0324   30.0571 C.ar    1  UNL1       -0.0039
      5 C         -27.9437   -0.9869   31.2075 C.ar    1  UNL1        0.0046
      6 C         -24.4008   -1.0969   30.0965 C.ar    1  UNL1       -0.0003
      7 C         -26.5612   -1.0746   31.2270 C.ar    1  UNL1       -0.0002
      8 C         -23.7638   -1.1467   30.8905 C.ar    1  UNL1       -0.0000
      9 C         -22.2671   -1.0151   30.9436 C.ar    1  UNL1       -0.0000
     10 C         -21.7442   -0.7947   29.7255 C.ar    1  UNL1       -0.0000
     11 C         -23.7692   -0.8057   28.7649 C.ar    1  UNL1       -0.0000
     12 C         -22.4600   -0.6152   28.6379 C.ar    1  UNL1       -0.0000
     13 C         -30.0767   -0.6704   29.8779 C.2     1  UNL1        0.2715
     14 O         -30.7739   -1.4539   30.3525 O.2     1  UNL1       -0.2679
     15 N         -30.5449    0.4094   29.2245 N.am    1  UNL1       -0.1371
     16 C         -31.9540    0.6256   29.0812 C.2     1  UNL1        0.2716
     17 C         -32.3008    1.6571   28.6198 C.ar    1  UNL1        0.0555
     18 C         -33.5186    2.1575   28.5845 C.ar    1  UNL1        0.0046
     19 C         -33.9220    3.4258   28.0654 C.ar    1  UNL1        0.0001
     20 C         -32.9393    4.2002   27.4134 C.ar    1  UNL1        0.0000
     21 C         -31.6260    3.7326   27.3099 C.ar    1  UNL1        0.0001
     22 C         -31.2953    2.5912   27.8897 C.ar    1  UNL1        0.0046
     23 O         -32.6873   -0.3035   29.3478 O.2     1  UNL1       -0.2679
     24 C         -25.8946   -0.6353   27.6073 C.3     1  UNL1        0.0310
@<TRIPOS>BOND
     1     4     6    1
     2     2    13    1
     3    13    14    2
     4    13    15   am
     5    15    16   am
     6    16    17    1
     7    16    23    2
     8     3    24    1
     9    17    18   ar
    10    18    19   ar
    11    19    20   ar
    12    20    21   ar
    13    21    22   ar
    14    22    17   ar
    15     6     8   ar
    16     8     9   ar
    17     9    10   ar
    18    10    12   ar
    19    12    11   ar
    20    11     6   ar
    21     1     2   ar
    22     2     5   ar
    23     5     7   ar
    24     7     4   ar
    25     4     3   ar
    26     3     1   ar
