@<TRIPOS>MOLECULE
outputs/IAG933/test6/raw/output_1820_IAG933_linker_design_.xyz
 48 51 0 0 0
SMALL
GASTEIGER

@<TRIPOS>ATOM
      1 C         -24.8550   -1.0120   30.1430 C.3     1  UNL1        0.0669
      2 C         -24.9730   -2.5050   29.7880 C.2     1  UNL1       -0.0187
      3 C         -23.9060   -3.1730   29.1460 C.2     1  UNL1       -0.0042
      4 C         -23.9890   -4.5490   28.8530 C.2     1  UNL1       -0.0003
      5 C         -25.1370   -5.2800   29.2050 C.2     1  UNL1       -0.0000
      6 C         -26.2320   -4.6110   29.7840 C.2     1  UNL1       -0.0003
      7 C         -26.1550   -3.2320   30.0650 C.2     1  UNL1       -0.0042
      8 C         -25.3870   -0.6790   31.5710 C.3     1  UNL1        0.0792
      9 C         -25.1890    0.7730   32.0280 C.3     1  UNL1        0.0193
     10 C         -25.3360    0.6840   33.5440 C.3     1  UNL1        0.0202
     11 C         -24.8290   -0.7150   33.9050 C.3     1  UNL1        0.0887
     12 N         -24.7580   -1.4810   32.6460 N.3     1  UNL1       -0.2190
     13 C         -25.6880    1.6140   26.4610 C.2     1  UNL1        0.0195
     14 C         -26.2500    2.9200   26.3950 C.2     1  UNL1        0.0727
     15 C         -25.6420    4.0930   27.1230 C.2     1  UNL1        0.2661
     16 N         -25.6140    5.2520   26.4490 N.am    1  UNL1       -0.1997
     17 C         -25.0260    6.4790   26.9630 C.3     1  UNL1        0.1388
     18 O         -25.1430    3.9660   28.2430 O.2     1  UNL1       -0.2683
     19 C         -27.4380    3.0910   25.6450 C.2     1  UNL1        0.1064
     20 N         -28.0750    2.0890   25.0030 N.2     1  UNL1       -0.2081
     21 C         -27.5430    0.8490   25.0790 C.2     1  UNL1        0.2530
     22 O         -28.1930   -0.2080   24.4770 O.2     1  UNL1       -0.4558
     23 C         -29.4600    0.0050   23.8660 C.3     1  UNL1        0.2426
     24 C         -30.0650   -1.3770   23.5730 C.3     1  UNL1        0.2292
     25 O         -30.7290   -1.8780   24.7210 O.3     1  UNL1       -0.2162
     26 C         -26.3540    0.5760   25.7770 C.2     1  UNL1        0.1892
     27 F         -25.8600   -0.6810   25.7950 F       1  UNL1       -0.1996
     28 C         -29.6647    2.2128   29.9236 C.3     1  UNL1        0.1269
     29 C         -32.5850    1.3213   27.8614 C.3     1  UNL1        0.0001
     30 C         -30.4209    0.0000   28.5492 C.3     1  UNL1        0.1559
     31 CL        -23.1067    2.6970   25.5019 Cl      1  UNL1       -0.0967
     32 C         -32.0290    2.0124   28.7780 C.3     1  UNL1        0.0041
     33 C         -32.6298    2.8061   25.9509 C.3     1  UNL1        0.0000
     34 C         -29.1640   -0.4827   29.3479 C.3     1  UNL1        0.0651
     35 C         -28.2410    1.9918   29.5459 C.3     1  UNL1        0.1964
     36 C         -24.4599    1.3748   27.1662 C.3     1  UNL1        0.0753
     37 CL        -21.3615    1.6553   27.5031 Cl      1  UNL1       -0.0967
     38 C         -23.0921    2.0025   27.0862 C.3     1  UNL1        0.1641
     39 C         -30.4815    1.5711   28.8790 C.3     1  UNL1        0.0507
     40 C         -32.1509    1.4271   26.4513 C.3     1  UNL1        0.0000
     41 N         -22.9147   -0.1414   28.7871 N.3     1  UNL1       -0.1299
     42 C         -27.9725    0.5335   29.2442 C.3     1  UNL1        0.1494
     43 O         -27.3163    2.7735   30.2716 O.3     1  UNL1       -0.2190
     44 C         -25.2190   -0.1791   28.9730 C.3     1  UNL1        0.1384
     45 O         -30.4392   -0.4541   27.2331 O.3     1  UNL1       -0.2230
     46 C         -24.2443    0.1397   28.0932 C.3     1  UNL1        0.1257
     47 O         -26.6248    0.3159   28.8652 O.3     1  UNL1       -0.3541
     48 N         -30.0136    3.6551   30.2278 N.3     1  UNL1       -0.1301
@<TRIPOS>BOND
     1     1    44    1
     2     2     7    1
     3     2     1    1
     4     3     2    2
     5     4     3    1
     6     4     5    2
     7     5     6    1
     8     6     7    2
     9     8     1    1
    10     8     9    1
    11     8    12    1
    12     9    10    1
    13    10    11    1
    14    12    11    1
    15    13    36    1
    16    14    13    1
    17    14    15    1
    18    15    18    2
    19    16    17    1
    20    16    15    1
    21    19    14    2
    22    20    21    2
    23    20    19    1
    24    21    26    1
    25    22    21    1
    26    23    22    1
    27    24    23    1
    28    24    25    1
    29    26    27    1
    30    26    13    2
    31    28    48    1
    32    29    32    1
    33    30    45    1
    34    30    39    1
    35    30    34    1
    36    31    38    1
    37    33    40    1
    38    35    28    1
    39    35    43    1
    40    36    38    1
    41    36    46    1
    42    38    37    1
    43    39    32    1
    44    39    28    1
    45    40    29    1
    46    42    47    1
    47    42    34    1
    48    42    35    1
    49    44    47    1
    50    46    41    1
    51    46    44    1
