@<TRIPOS>MOLECULE
No_1822-gen_results/8p0m/2024-11-27-11-27-31/
 23 23 0 0 0
SMALL
GASTEIGER

@<TRIPOS>ATOM
      1 C         -28.0162   -0.8135   28.8779 C.ar    1  UNL1        0.0441
      2 C         -28.4690   -0.7850   29.8287 C.ar    1  UNL1        0.0788
      3 C         -26.5455   -0.8762   28.8500 C.ar    1  UNL1        0.1519
      4 C         -25.8041   -1.0324   30.0571 C.ar    1  UNL1        0.1142
      5 C         -27.9437   -0.9869   31.2075 C.ar    1  UNL1        0.0069
      6 C         -26.5825   -1.0386   31.2231 C.ar    1  UNL1        0.0099
      7 C         -24.3810   -1.1082   30.0855 C.2     1  UNL1        0.3907
      8 O         -23.8094   -1.5826   29.2252 O.co2   1  UNL1       -0.2404
      9 O         -23.7651   -0.6512   31.1924 O.co2   1  UNL1       -0.2404
     10 C         -30.0765   -0.6275   29.7162 C.2     1  UNL1        0.3450
     11 O         -30.8381   -1.3252   30.2309 O.2     1  UNL1       -0.2448
     12 O         -30.4366    0.3948   29.0578 O.3     1  UNL1       -0.3909
     13 C         -31.5254    0.8853   28.9099 C.3     1  UNL1        0.5020
     14 C         -32.0672    0.7313   27.7419 C.3     1  UNL1        0.4969
     15 F         -33.1761    0.7399   27.6270 F       1  UNL1       -0.1619
     16 F         -31.5177    1.6985   26.8897 F       1  UNL1       -0.1619
     17 F         -31.6694   -0.4221   27.0489 F       1  UNL1       -0.1619
     18 F         -32.2716    0.3013   29.8691 F       1  UNL1       -0.1557
     19 F         -31.4214    2.1963   29.3074 F       1  UNL1       -0.1557
     20 O         -25.8371   -0.8111   27.7311 O.3     1  UNL1       -0.4505
     21 C         -26.1065    0.2318   26.8981 C.2     1  UNL1        0.1750
     22 C         -26.3608    1.2645   27.1502 C.2     1  UNL1        0.0148
     23 C         -26.6428    2.3439   26.1720 C.3     1  UNL1        0.0341
@<TRIPOS>BOND
     1     4     7    1
     2     7     8   ar
     3     7     9   ar
     4     2    10    1
     5    10    11    2
     6    10    12    1
     7    12    13    1
     8    13    14    1
     9    14    15    1
    10    14    16    1
    11    14    17    1
    12    13    18    1
    13    13    19    1
    14     3    20    1
    15    20    21    1
    16    21    22    2
    17    22    23    1
    18     1     2   ar
    19     2     5   ar
    20     5     6   ar
    21     6     4   ar
    22     4     3   ar
    23     3     1   ar
