@<TRIPOS>MOLECULE
outputs/IAG933/test6/raw/output_1826_IAG933_linker_design_.xyz
 42 44 0 0 0
SMALL
GASTEIGER

@<TRIPOS>ATOM
      1 C         -24.8550   -1.0120   30.1430 C.3     1  UNL1        0.0462
      2 C         -24.9730   -2.5050   29.7880 C.2     1  UNL1       -0.0207
      3 C         -23.9060   -3.1730   29.1460 C.2     1  UNL1       -0.0042
      4 C         -23.9890   -4.5490   28.8530 C.2     1  UNL1       -0.0003
      5 C         -25.1370   -5.2800   29.2050 C.2     1  UNL1       -0.0000
      6 C         -26.2320   -4.6110   29.7840 C.2     1  UNL1       -0.0003
      7 C         -26.1550   -3.2320   30.0650 C.2     1  UNL1       -0.0042
      8 C         -25.3870   -0.6790   31.5710 C.3     1  UNL1        0.1043
      9 C         -25.1890    0.7730   32.0280 C.3     1  UNL1        0.1349
     10 C         -25.3360    0.6840   33.5440 C.3     1  UNL1        0.0499
     11 C         -24.8290   -0.7150   33.9050 C.3     1  UNL1        0.0913
     12 N         -24.7580   -1.4810   32.6460 N.3     1  UNL1       -0.2166
     13 C         -25.6880    1.6140   26.4610 C.2     1  UNL1        0.0407
     14 C         -26.2500    2.9200   26.3950 C.2     1  UNL1        0.0745
     15 C         -25.6420    4.0930   27.1230 C.2     1  UNL1        0.2242
     16 N         -25.6140    5.2520   26.4490 N.2     1  UNL1       -0.2356
     17 C         -25.0260    6.4790   26.9630 C.3     1  UNL1        0.1550
     18 O         -25.1430    3.9660   28.2430 O.2     1  UNL1       -0.4319
     19 C         -27.4380    3.0910   25.6450 C.2     1  UNL1        0.1068
     20 N         -28.0750    2.0890   25.0030 N.2     1  UNL1       -0.2081
     21 C         -27.5430    0.8490   25.0790 C.2     1  UNL1        0.2533
     22 O         -28.1930   -0.2080   24.4770 O.2     1  UNL1       -0.4558
     23 C         -29.4600    0.0050   23.8660 C.3     1  UNL1        0.2426
     24 C         -30.0650   -1.3770   23.5730 C.3     1  UNL1        0.2292
     25 O         -30.7290   -1.8780   24.7210 O.3     1  UNL1       -0.2162
     26 C         -26.3540    0.5760   25.7770 C.2     1  UNL1        0.1931
     27 F         -25.8600   -0.6810   25.7950 F       1  UNL1       -0.1992
     28 C         -21.7698    1.9025   27.1359 C.1     1  UNL1        0.0831
     29 C         -21.4177    1.0235   28.2904 C.3     1  UNL1        0.1918
     30 F         -29.2552    3.0402   30.8539 F       1  UNL1       -0.1528
     31 C         -28.4716    3.9578   30.7620 C.3     1  UNL1        0.5007
     32 C         -22.8611    0.6267   28.6890 C.2     1  UNL1        0.2590
     33 N         -23.5782    1.3504   29.7592 N.am    1  UNL1       -0.1710
     34 N         -27.5324    3.7861   29.9831 N.3     1  UNL1        0.0153
     35 O         -23.3693   -0.3561   28.1112 O.2     1  UNL1       -0.2721
     36 N         -22.0991    2.5985   26.2293 N.1     1  UNL1       -0.1954
     37 O         -26.1288    4.1108   30.2796 O.3     1  UNL1       -0.2144
     38 C         -24.9033    2.0650   30.0939 C.3     1  UNL1        0.2848
     39 O         -25.3307    2.0999   31.5283 O.3     1  UNL1       -0.3327
     40 F         -27.9890    4.0772   32.0353 F       1  UNL1       -0.1528
     41 F         -29.0086    5.0620   30.4634 F       1  UNL1       -0.1528
     42 C         -25.2654    3.2951   29.4743 C.3     1  UNL1        0.3567
@<TRIPOS>BOND
     1     2     7    1
     2     2     1    1
     3     3     2    2
     4     4     3    1
     5     4     5    2
     6     5     6    1
     7     6     7    2
     8     8     1    1
     9     8     9    1
    10     8    12    1
    11     9    39    1
    12     9    10    1
    13    10    11    1
    14    12    11    1
    15    14    13    1
    16    14    15    1
    17    15    18    1
    18    16    17    1
    19    16    15    2
    20    19    14    2
    21    20    21    2
    22    20    19    1
    23    21    26    1
    24    22    21    1
    25    23    22    1
    26    24    23    1
    27    24    25    1
    28    26    27    1
    29    26    13    2
    30    28    29    1
    31    29    32    1
    32    31    30    1
    33    31    40    1
    34    32    33    1
    35    34    37    1
    36    34    31    1
    37    35    32    2
    38    36    28    3
    39    38    33    1
    40    38    39    1
    41    41    31    1
    42    42    18    1
    43    42    38    1
    44    42    37    1
