@<TRIPOS>MOLECULE
outputs/IAG933/test6/raw/output_1827_IAG933_linker_design_.xyz
 41 44 0 0 0
SMALL
GASTEIGER

@<TRIPOS>ATOM
      1 C         -24.8550   -1.0120   30.1430 C.3     1  UNL1        0.1108
      2 C         -24.9730   -2.5050   29.7880 C.2     1  UNL1       -0.0051
      3 C         -23.9060   -3.1730   29.1460 C.2     1  UNL1       -0.0029
      4 C         -23.9890   -4.5490   28.8530 C.2     1  UNL1       -0.0003
      5 C         -25.1370   -5.2800   29.2050 C.2     1  UNL1       -0.0000
      6 C         -26.2320   -4.6110   29.7840 C.2     1  UNL1       -0.0003
      7 C         -26.1550   -3.2320   30.0650 C.2     1  UNL1       -0.0029
      8 C         -25.3870   -0.6790   31.5710 C.3     1  UNL1        0.0929
      9 C         -25.1890    0.7730   32.0280 C.3     1  UNL1        0.0206
     10 C         -25.3360    0.6840   33.5440 C.3     1  UNL1        0.0203
     11 C         -24.8290   -0.7150   33.9050 C.3     1  UNL1        0.0888
     12 N         -24.7580   -1.4810   32.6460 N.3     1  UNL1       -0.2177
     13 C         -25.6880    1.6140   26.4610 C.3     1  UNL1        0.0772
     14 C         -26.2500    2.9200   26.3950 C.2     1  UNL1        0.0552
     15 C         -25.6420    4.0930   27.1230 C.2     1  UNL1        0.2625
     16 N         -25.6140    5.2520   26.4490 N.am    1  UNL1       -0.2000
     17 C         -25.0260    6.4790   26.9630 C.3     1  UNL1        0.1388
     18 O         -25.1430    3.9660   28.2430 O.2     1  UNL1       -0.2687
     19 C         -27.4380    3.0910   25.6450 C.2     1  UNL1        0.1022
     20 N         -28.0750    2.0890   25.0030 N.2     1  UNL1       -0.2119
     21 C         -27.5430    0.8490   25.0790 C.2     1  UNL1        0.2341
     22 O         -28.1930   -0.2080   24.4770 O.2     1  UNL1       -0.4585
     23 C         -29.4600    0.0050   23.8660 C.3     1  UNL1        0.2423
     24 C         -30.0650   -1.3770   23.5730 C.3     1  UNL1        0.2292
     25 O         -30.7290   -1.8780   24.7210 O.3     1  UNL1       -0.2162
     26 C         -26.3540    0.5760   25.7770 C.3     1  UNL1        0.2404
     27 F         -25.8600   -0.6810   25.7950 F       1  UNL1       -0.2269
     28 C         -28.3917    0.3927   30.8540 C.3     1  UNL1        0.1761
     29 S         -28.5402    0.8927   29.2862 S.O2    1  UNL1       -0.0068
     30 C         -23.6027    1.1435   27.5042 C.2     1  UNL1        0.1092
     31 N         -22.7206    0.6331   28.3788 N.2     1  UNL1       -0.2077
     32 N         -24.8669   -0.3627   29.0695 N.3     1  UNL1       -0.2129
     33 C         -21.5403    1.0845   28.0166 C.2     1  UNL1        0.2856
     34 O         -29.4845    2.1292   29.6189 O.2     1  UNL1       -0.1729
     35 CL        -23.2623    2.3375   25.0780 Cl      1  UNL1       -0.0413
     36 C         -25.0127    1.0774   27.5414 C.3     1  UNL1        0.0695
     37 C         -25.8716    0.4953   28.6141 C.3     1  UNL1        0.1027
     38 O         -29.1426    0.5276   28.0822 O.2     1  UNL1       -0.1729
     39 C         -22.8466    1.7933   26.5927 C.2     1  UNL1        0.2187
     40 C         -27.1809   -0.3714   28.6488 C.3     1  UNL1        0.1685
     41 O         -21.6320    1.8192   26.8479 O.2     1  UNL1       -0.4199
@<TRIPOS>BOND
     1     1    32    1
     2     2     7    1
     3     2     1    1
     4     3     2    2
     5     4     3    1
     6     4     5    2
     7     5     6    1
     8     6     7    2
     9     8     1    1
    10     8     9    1
    11     8    12    1
    12     9    10    1
    13    10    11    1
    14    12    11    1
    15    13    36    1
    16    14    13    1
    17    14    15    1
    18    15    18    2
    19    16    17    1
    20    16    15    1
    21    19    14    2
    22    20    21    2
    23    20    19    1
    24    21    26    1
    25    22    21    1
    26    23    22    1
    27    24    23    1
    28    24    25    1
    29    26    27    1
    30    26    13    1
    31    29    34    2
    32    29    28    1
    33    30    36    1
    34    30    31    1
    35    33    31    2
    36    35    39    1
    37    36    37    1
    38    37    40    1
    39    37    32    1
    40    38    29    2
    41    39    41    1
    42    39    30    2
    43    40    29    1
    44    41    33    1
