@<TRIPOS>MOLECULE
outputs/IAG933/test6/raw/output_183_IAG933_linker_design_.xyz
 41 45 0 0 0
SMALL
GASTEIGER

@<TRIPOS>ATOM
      1 C         -24.8550   -1.0120   30.1430 C.3     1  UNL1        0.1734
      2 C         -24.9730   -2.5050   29.7880 C.2     1  UNL1        0.0011
      3 C         -23.9060   -3.1730   29.1460 C.2     1  UNL1       -0.0026
      4 C         -23.9890   -4.5490   28.8530 C.2     1  UNL1       -0.0003
      5 C         -25.1370   -5.2800   29.2050 C.2     1  UNL1       -0.0000
      6 C         -26.2320   -4.6110   29.7840 C.2     1  UNL1       -0.0003
      7 C         -26.1550   -3.2320   30.0650 C.2     1  UNL1       -0.0026
      8 C         -25.3870   -0.6790   31.5710 C.3     1  UNL1        0.0993
      9 C         -25.1890    0.7730   32.0280 C.3     1  UNL1        0.0210
     10 C         -25.3360    0.6840   33.5440 C.3     1  UNL1        0.0203
     11 C         -24.8290   -0.7150   33.9050 C.3     1  UNL1        0.0888
     12 N         -24.7580   -1.4810   32.6460 N.3     1  UNL1       -0.2174
     13 C         -25.6880    1.6140   26.4610 C.2     1  UNL1        0.1030
     14 C         -26.2500    2.9200   26.3950 C.2     1  UNL1        0.0927
     15 C         -25.6420    4.0930   27.1230 C.2     1  UNL1        0.2678
     16 N         -25.6140    5.2520   26.4490 N.am    1  UNL1       -0.1997
     17 C         -25.0260    6.4790   26.9630 C.3     1  UNL1        0.1388
     18 O         -25.1430    3.9660   28.2430 O.2     1  UNL1       -0.2683
     19 C         -27.4380    3.0910   25.6450 C.2     1  UNL1        0.1082
     20 N         -28.0750    2.0890   25.0030 N.2     1  UNL1       -0.2080
     21 C         -27.5430    0.8490   25.0790 C.2     1  UNL1        0.2548
     22 O         -28.1930   -0.2080   24.4770 O.2     1  UNL1       -0.4558
     23 C         -29.4600    0.0050   23.8660 C.3     1  UNL1        0.2426
     24 C         -30.0650   -1.3770   23.5730 C.3     1  UNL1        0.2292
     25 O         -30.7290   -1.8780   24.7210 O.3     1  UNL1       -0.2162
     26 C         -26.3540    0.5760   25.7770 C.2     1  UNL1        0.2090
     27 F         -25.8600   -0.6810   25.7950 F       1  UNL1       -0.1977
     28 C         -22.3129   -0.0072   29.5908 C.3     1  UNL1        0.0338
     29 C         -23.5724    1.7046   26.5840 C.ar    1  UNL1        0.1045
     30 C         -21.4960    1.9531   27.0672 C.3     1  UNL1        0.3052
     31 C         -24.5930    0.6983   28.2096 C.ar    1  UNL1        0.1677
     32 C         -23.1248    0.6517   28.5130 C.ar    1  UNL1        0.0142
     33 F         -20.3704    1.8985   27.6013 F       1  UNL1       -0.1987
     34 O         -26.4921    1.3654   29.5631 O.2     1  UNL1       -0.1669
     35 O         -27.0013   -0.6778   28.8321 O.2     1  UNL1       -0.1669
     36 O         -21.7227    2.6802   25.8708 O.3     1  UNL1       -0.2900
     37 C         -22.9345    2.2893   25.5023 C.3     1  UNL1        0.3201
     38 C         -22.5805    1.3638   27.4905 C.ar    1  UNL1        0.0546
     39 F         -23.3891    2.4793   24.3164 F       1  UNL1       -0.1970
     40 S         -25.8309    0.1358   29.0538 S.O2    1  UNL1        0.0270
     41 N         -24.7011    1.3268   27.0824 N.ar    1  UNL1       -0.2889
@<TRIPOS>BOND
     1     1    40    1
     2     2     7    1
     3     2     1    1
     4     3     2    2
     5     4     3    1
     6     4     5    2
     7     5     6    1
     8     6     7    2
     9     8     1    1
    10     8     9    1
    11     8    12    1
    12     9    10    1
    13    10    11    1
    14    12    11    1
    15    13    41    1
    16    14    13    1
    17    14    15    1
    18    15    18    2
    19    16    17    1
    20    16    15    1
    21    19    14    2
    22    20    21    2
    23    20    19    1
    24    21    26    1
    25    22    21    1
    26    23    22    1
    27    24    23    1
    28    24    25    1
    29    26    27    1
    30    26    13    2
    31    29    41   ar
    32    29    38   ar
    33    30    38    1
    34    30    33    1
    35    31    32   ar
    36    31    40    1
    37    32    28    1
    38    35    40    2
    39    36    30    1
    40    37    39    1
    41    37    36    1
    42    37    29    1
    43    38    32   ar
    44    40    34    2
    45    41    31   ar
