@<TRIPOS>MOLECULE
outputs/IAG933/test6/raw/output_1830_IAG933_linker_design_.xyz
 40 43 0 0 0
SMALL
GASTEIGER

@<TRIPOS>ATOM
      1 C         -24.8550   -1.0120   30.1430 C.3     1  UNL1        0.1204
      2 C         -24.9730   -2.5050   29.7880 C.2     1  UNL1       -0.0027
      3 C         -23.9060   -3.1730   29.1460 C.2     1  UNL1       -0.0026
      4 C         -23.9890   -4.5490   28.8530 C.2     1  UNL1       -0.0003
      5 C         -25.1370   -5.2800   29.2050 C.2     1  UNL1       -0.0000
      6 C         -26.2320   -4.6110   29.7840 C.2     1  UNL1       -0.0003
      7 C         -26.1550   -3.2320   30.0650 C.2     1  UNL1       -0.0026
      8 C         -25.3870   -0.6790   31.5710 C.3     1  UNL1        0.0953
      9 C         -25.1890    0.7730   32.0280 C.3     1  UNL1        0.0209
     10 C         -25.3360    0.6840   33.5440 C.3     1  UNL1        0.0203
     11 C         -24.8290   -0.7150   33.9050 C.3     1  UNL1        0.0888
     12 N         -24.7580   -1.4810   32.6460 N.3     1  UNL1       -0.2174
     13 C         -25.6880    1.6140   26.4610 C.3     1  UNL1        0.0946
     14 C         -26.2500    2.9200   26.3950 C.2     1  UNL1        0.0588
     15 C         -25.6420    4.0930   27.1230 C.2     1  UNL1        0.2627
     16 N         -25.6140    5.2520   26.4490 N.am    1  UNL1       -0.2000
     17 C         -25.0260    6.4790   26.9630 C.3     1  UNL1        0.1388
     18 O         -25.1430    3.9660   28.2430 O.2     1  UNL1       -0.2686
     19 C         -27.4380    3.0910   25.6450 C.2     1  UNL1        0.1025
     20 N         -28.0750    2.0890   25.0030 N.2     1  UNL1       -0.2118
     21 C         -27.5430    0.8490   25.0790 C.2     1  UNL1        0.2344
     22 O         -28.1930   -0.2080   24.4770 O.2     1  UNL1       -0.4585
     23 C         -29.4600    0.0050   23.8660 C.3     1  UNL1        0.2423
     24 C         -30.0650   -1.3770   23.5730 C.3     1  UNL1        0.2292
     25 O         -30.7290   -1.8780   24.7210 O.3     1  UNL1       -0.2162
     26 C         -26.3540    0.5760   25.7770 C.3     1  UNL1        0.2439
     27 F         -25.8600   -0.6810   25.7950 F       1  UNL1       -0.2265
     28 C         -23.2736    2.1584   25.8009 C.3     1  UNL1        0.3479
     29 O         -21.9629    2.0056   25.5207 O.2     1  UNL1       -0.4399
     30 O         -21.8393    0.6840   28.8210 O.2     1  UNL1       -0.4517
     31 N         -24.4896   -0.0433   29.1733 N.am    1  UNL1       -0.2020
     32 C         -23.4363    1.0790   27.3045 C.2     1  UNL1        0.0384
     33 F         -23.7048    3.2602   25.1263 F       1  UNL1       -0.1836
     34 O         -26.3828    1.1395   28.9788 O.co2   1  UNL1       -0.2222
     35 C         -22.1866    1.0438   27.6220 C.2     1  UNL1        0.1773
     36 C         -24.2263    1.5569   26.5498 C.2     1  UNL1        0.0400
     37 C         -22.9781   -0.0194   29.4430 C.3     1  UNL1        0.3105
     38 C         -21.3634    1.4826   26.5976 C.2     1  UNL1        0.2123
     39 O         -26.5268   -0.8837   28.2419 O.co2   1  UNL1       -0.2222
     40 C         -25.8578    0.0699   28.6784 C.2     1  UNL1        0.4500
@<TRIPOS>BOND
     1     1    31    1
     2     2     7    1
     3     2     1    1
     4     3     2    2
     5     4     3    1
     6     4     5    2
     7     5     6    1
     8     6     7    2
     9     8     1    1
    10     8     9    1
    11     8    12    1
    12     9    10    1
    13    10    11    1
    14    12    11    1
    15    13    36    1
    16    14    13    1
    17    14    15    1
    18    15    18    2
    19    16    17    1
    20    16    15    1
    21    19    14    2
    22    20    21    2
    23    20    19    1
    24    21    26    1
    25    22    21    1
    26    23    22    1
    27    24    23    1
    28    24    25    1
    29    26    27    1
    30    26    13    1
    31    28    33    1
    32    28    36    1
    33    29    28    1
    34    29    38    1
    35    30    37    1
    36    31    37    1
    37    32    35    1
    38    35    30    1
    39    36    32    2
    40    38    35    2
    41    39    40   ar
    42    40    34   ar
    43    40    31   am
