@<TRIPOS>MOLECULE
outputs/IAG933/test6/raw/output_1832_IAG933_linker_design_.xyz
 40 43 0 0 0
SMALL
GASTEIGER

@<TRIPOS>ATOM
      1 C         -24.8550   -1.0120   30.1430 C.3     1  UNL1        0.1213
      2 C         -24.9730   -2.5050   29.7880 C.2     1  UNL1       -0.0025
      3 C         -23.9060   -3.1730   29.1460 C.2     1  UNL1       -0.0026
      4 C         -23.9890   -4.5490   28.8530 C.2     1  UNL1       -0.0003
      5 C         -25.1370   -5.2800   29.2050 C.2     1  UNL1       -0.0000
      6 C         -26.2320   -4.6110   29.7840 C.2     1  UNL1       -0.0003
      7 C         -26.1550   -3.2320   30.0650 C.2     1  UNL1       -0.0026
      8 C         -25.3870   -0.6790   31.5710 C.3     1  UNL1        0.0956
      9 C         -25.1890    0.7730   32.0280 C.3     1  UNL1        0.0209
     10 C         -25.3360    0.6840   33.5440 C.3     1  UNL1        0.0203
     11 C         -24.8290   -0.7150   33.9050 C.3     1  UNL1        0.0888
     12 N         -24.7580   -1.4810   32.6460 N.3     1  UNL1       -0.2174
     13 C         -25.6880    1.6140   26.4610 C.2     1  UNL1        0.0403
     14 C         -26.2500    2.9200   26.3950 C.2     1  UNL1        0.0766
     15 C         -25.6420    4.0930   27.1230 C.2     1  UNL1        0.2664
     16 N         -25.6140    5.2520   26.4490 N.am    1  UNL1       -0.1997
     17 C         -25.0260    6.4790   26.9630 C.3     1  UNL1        0.1388
     18 O         -25.1430    3.9660   28.2430 O.2     1  UNL1       -0.2683
     19 C         -27.4380    3.0910   25.6450 C.2     1  UNL1        0.1067
     20 N         -28.0750    2.0890   25.0030 N.2     1  UNL1       -0.2081
     21 C         -27.5430    0.8490   25.0790 C.2     1  UNL1        0.2533
     22 O         -28.1930   -0.2080   24.4770 O.2     1  UNL1       -0.4558
     23 C         -29.4600    0.0050   23.8660 C.3     1  UNL1        0.2426
     24 C         -30.0650   -1.3770   23.5730 C.3     1  UNL1        0.2292
     25 O         -30.7290   -1.8780   24.7210 O.3     1  UNL1       -0.2162
     26 C         -26.3540    0.5760   25.7770 C.2     1  UNL1        0.1931
     27 F         -25.8600   -0.6810   25.7950 F       1  UNL1       -0.1992
     28 N         -21.8620    1.1168   28.5971 N.2     1  UNL1       -0.2144
     29 C         -28.6014    1.1433   28.6145 C.3     1  UNL1        0.2574
     30 C         -21.9338    1.7217   27.4404 C.2     1  UNL1        0.2329
     31 C         -23.0965    1.8621   26.7154 C.2     1  UNL1        0.1048
     32 N         -25.2417   -0.1571   28.9763 N.am    1  UNL1       -0.2198
     33 CL        -23.0055    2.6117   25.1761 Cl      1  UNL1       -0.0782
     34 F         -20.8356    2.2119   26.9713 F       1  UNL1       -0.1823
     35 C         -22.9741    0.4693   28.9911 C.2     1  UNL1        0.1163
     36 O         -27.4454   -1.1207   28.4909 O.2     1  UNL1       -0.2258
     37 O         -27.2939    0.8634   29.1237 O.3     1  UNL1       -0.4302
     38 C         -26.6449   -0.1474   28.7658 C.2     1  UNL1        0.4091
     39 C         -24.3182    1.3523   27.1826 C.2     1  UNL1        0.0322
     40 C         -24.2030    0.5726   28.3404 C.2     1  UNL1        0.0774
@<TRIPOS>BOND
     1     1    32    1
     2     2     7    1
     3     2     1    1
     4     3     2    2
     5     4     3    1
     6     4     5    2
     7     5     6    1
     8     6     7    2
     9     8     1    1
    10     8     9    1
    11     8    12    1
    12     9    10    1
    13    10    11    1
    14    12    11    1
    15    13    39    1
    16    14    13    1
    17    14    15    1
    18    15    18    2
    19    16    17    1
    20    16    15    1
    21    19    14    2
    22    20    21    2
    23    20    19    1
    24    21    26    1
    25    22    21    1
    26    23    22    1
    27    24    23    1
    28    24    25    1
    29    26    27    1
    30    26    13    2
    31    28    35    1
    32    29    37    1
    33    30    28    2
    34    31    39    2
    35    31    30    1
    36    33    31    1
    37    34    30    1
    38    36    38    2
    39    38    32   am
    40    38    37    1
    41    39    40    1
    42    40    32    1
    43    40    35    2
