@<TRIPOS>MOLECULE
outputs/IAG933/test6/raw/output_1833_IAG933_linker_design_.xyz
 41 45 0 0 0
SMALL
GASTEIGER

@<TRIPOS>ATOM
      1 C         -24.8550   -1.0120   30.1430 C.3     1  UNL1        0.0987
      2 C         -24.9730   -2.5050   29.7880 C.2     1  UNL1       -0.0139
      3 C         -23.9060   -3.1730   29.1460 C.2     1  UNL1       -0.0038
      4 C         -23.9890   -4.5490   28.8530 C.2     1  UNL1       -0.0003
      5 C         -25.1370   -5.2800   29.2050 C.2     1  UNL1       -0.0000
      6 C         -26.2320   -4.6110   29.7840 C.2     1  UNL1       -0.0003
      7 C         -26.1550   -3.2320   30.0650 C.2     1  UNL1       -0.0038
      8 C         -25.3870   -0.6790   31.5710 C.3     1  UNL1        0.0841
      9 C         -25.1890    0.7730   32.0280 C.3     1  UNL1        0.0196
     10 C         -25.3360    0.6840   33.5440 C.3     1  UNL1        0.0203
     11 C         -24.8290   -0.7150   33.9050 C.3     1  UNL1        0.0887
     12 N         -24.7580   -1.4810   32.6460 N.3     1  UNL1       -0.2187
     13 C         -25.6880    1.6140   26.4610 C.2     1  UNL1        0.0441
     14 C         -26.2500    2.9200   26.3950 C.2     1  UNL1        0.0767
     15 C         -25.6420    4.0930   27.1230 C.2     1  UNL1        0.2664
     16 N         -25.6140    5.2520   26.4490 N.am    1  UNL1       -0.1997
     17 C         -25.0260    6.4790   26.9630 C.3     1  UNL1        0.1388
     18 O         -25.1430    3.9660   28.2430 O.2     1  UNL1       -0.2683
     19 C         -27.4380    3.0910   25.6450 C.2     1  UNL1        0.1067
     20 N         -28.0750    2.0890   25.0030 N.2     1  UNL1       -0.2081
     21 C         -27.5430    0.8490   25.0790 C.2     1  UNL1        0.2533
     22 O         -28.1930   -0.2080   24.4770 O.2     1  UNL1       -0.4558
     23 C         -29.4600    0.0050   23.8660 C.3     1  UNL1        0.2426
     24 C         -30.0650   -1.3770   23.5730 C.3     1  UNL1        0.2292
     25 O         -30.7290   -1.8780   24.7210 O.3     1  UNL1       -0.2162
     26 C         -26.3540    0.5760   25.7770 C.2     1  UNL1        0.1932
     27 F         -25.8600   -0.6810   25.7950 F       1  UNL1       -0.1992
     28 O         -26.3445    0.7894   28.8094 O.2     1  UNL1       -0.4686
     29 O         -23.2659    2.6085   25.8823 O.2     1  UNL1       -0.4682
     30 O         -22.9330    0.0915   29.7335 O.2     1  UNL1       -0.4553
     31 O         -21.0346    1.7984   27.2736 O.2     1  UNL1       -0.4692
     32 C         -20.1164    0.9156   28.0298 C.3     1  UNL1        0.2138
     33 C         -22.0452    0.4575   28.7916 C.2     1  UNL1        0.1629
     34 C         -24.5955    1.3201   27.3881 C.2     1  UNL1        0.0763
     35 C         -25.0256    0.6837   28.5471 C.2     1  UNL1        0.1721
     36 C         -23.3323    1.7800   26.9145 C.2     1  UNL1        0.1781
     37 C         -20.7235    0.0493   28.8157 C.3     1  UNL1        0.1151
     38 C         -22.2458    2.6145   24.8825 C.3     1  UNL1        0.2526
     39 C         -22.2371    1.3299   27.6441 C.2     1  UNL1        0.2024
     40 C         -24.2575   -0.0483   29.4234 C.2     1  UNL1        0.1611
     41 C         -27.4478   -0.1069   28.4970 C.3     1  UNL1        0.2526
@<TRIPOS>BOND
     1     1    40    1
     2     2     7    1
     3     2     1    1
     4     3     2    2
     5     4     3    1
     6     4     5    2
     7     5     6    1
     8     6     7    2
     9     8     1    1
    10     8     9    1
    11     8    12    1
    12     9    10    1
    13    10    11    1
    14    12    11    1
    15    13    34    1
    16    14    13    1
    17    14    15    1
    18    15    18    2
    19    16    17    1
    20    16    15    1
    21    19    14    2
    22    20    21    2
    23    20    19    1
    24    21    26    1
    25    22    21    1
    26    23    22    1
    27    24    23    1
    28    24    25    1
    29    26    27    1
    30    26    13    2
    31    29    36    1
    32    31    39    1
    33    31    32    1
    34    32    37    1
    35    33    37    1
    36    33    30    1
    37    34    35    1
    38    35    28    1
    39    35    40    2
    40    36    34    2
    41    36    39    1
    42    38    29    1
    43    39    33    2
    44    40    30    1
    45    41    28    1
