@<TRIPOS>MOLECULE
No_1834-gen_results/8p0m/2024-11-27-11-27-31/
 9 9 0 0 0
SMALL
GASTEIGER

@<TRIPOS>ATOM
      1 C         -28.0162   -0.8135   28.8779 C.2     1  UNL1        0.0145
      2 C         -27.0636   -0.1190   28.6079 C.ar    1  UNL1        0.0810
      3 N         -25.8176   -0.3427   29.0488 N.ar    1  UNL1       -0.2438
      4 C         -24.6757    0.3814   28.7496 C.ar    1  UNL1        0.0988
      5 C         -24.7608    1.3095   27.7159 C.ar    1  UNL1        0.0207
      6 C         -27.0792    0.7756   27.4599 C.ar    1  UNL1        0.0191
      7 C         -25.9581    1.5508   27.1142 C.ar    1  UNL1        0.0031
      8 C         -27.9850   -1.3846   30.2850 C.2     1  UNL1       -0.0242
      9 C         -26.7148   -1.7314   30.8137 C.3     1  UNL1        0.0307
@<TRIPOS>BOND
     1     1     2    1
     2     1     8    2
     3     8     9    1
     4     2     3   ar
     5     3     4   ar
     6     4     5   ar
     7     5     7   ar
     8     7     6   ar
     9     6     2   ar
