@<TRIPOS>MOLECULE
outputs/IAG933/test6/raw/output_1836_IAG933_linker_design_.xyz
 44 48 0 0 0
SMALL
GASTEIGER

@<TRIPOS>ATOM
      1 C         -24.8550   -1.0120   30.1430 C.3     1  UNL1        0.1141
      2 C         -24.9730   -2.5050   29.7880 C.2     1  UNL1       -0.0029
      3 C         -23.9060   -3.1730   29.1460 C.2     1  UNL1       -0.0026
      4 C         -23.9890   -4.5490   28.8530 C.2     1  UNL1       -0.0003
      5 C         -25.1370   -5.2800   29.2050 C.2     1  UNL1       -0.0000
      6 C         -26.2320   -4.6110   29.7840 C.2     1  UNL1       -0.0003
      7 C         -26.1550   -3.2320   30.0650 C.2     1  UNL1       -0.0026
      8 C         -25.3870   -0.6790   31.5710 C.3     1  UNL1        0.0951
      9 C         -25.1890    0.7730   32.0280 C.3     1  UNL1        0.0209
     10 C         -25.3360    0.6840   33.5440 C.3     1  UNL1        0.0203
     11 C         -24.8290   -0.7150   33.9050 C.3     1  UNL1        0.0888
     12 N         -24.7580   -1.4810   32.6460 N.3     1  UNL1       -0.2174
     13 C         -25.6880    1.6140   26.4610 C.3     1  UNL1        0.0727
     14 C         -26.2500    2.9200   26.3950 C.2     1  UNL1        0.0549
     15 C         -25.6420    4.0930   27.1230 C.2     1  UNL1        0.2624
     16 N         -25.6140    5.2520   26.4490 N.am    1  UNL1       -0.2000
     17 C         -25.0260    6.4790   26.9630 C.3     1  UNL1        0.1388
     18 O         -25.1430    3.9660   28.2430 O.2     1  UNL1       -0.2687
     19 C         -27.4380    3.0910   25.6450 C.2     1  UNL1        0.1021
     20 N         -28.0750    2.0890   25.0030 N.2     1  UNL1       -0.2119
     21 C         -27.5430    0.8490   25.0790 C.2     1  UNL1        0.2341
     22 O         -28.1930   -0.2080   24.4770 O.2     1  UNL1       -0.4585
     23 C         -29.4600    0.0050   23.8660 C.3     1  UNL1        0.2423
     24 C         -30.0650   -1.3770   23.5730 C.3     1  UNL1        0.2292
     25 O         -30.7290   -1.8780   24.7210 O.3     1  UNL1       -0.2162
     26 C         -26.3540    0.5760   25.7770 C.3     1  UNL1        0.2401
     27 F         -25.8600   -0.6810   25.7950 F       1  UNL1       -0.2269
     28 C         -29.0799    4.0127   33.3282 C.2     1  UNL1        0.0301
     29 C         -28.8864    2.6540   33.5119 C.2     1  UNL1        0.0071
     30 C         -26.8784    0.8040   29.3212 C.2     1  UNL1        0.2637
     31 N         -24.6183    0.0465   29.2217 N.am    1  UNL1       -0.2694
     32 C         -23.4940    1.2615   27.6345 C.3     1  UNL1        0.0792
     33 O         -27.5891   -0.1165   29.0226 O.2     1  UNL1       -0.2712
     34 C         -27.8858    2.5633   31.2915 C.2     1  UNL1        0.0734
     35 O         -22.3262    0.1381   29.3409 O.2     1  UNL1       -0.2749
     36 N         -27.3257    1.8688   30.2317 N.am    1  UNL1       -0.1778
     37 I         -30.1263    5.3276   34.5406 I       1  UNL1       -0.0425
     38 C         -28.2860    1.9473   32.4958 C.2     1  UNL1        0.0170
     39 C         -22.4247    1.9989   26.8242 C.3     1  UNL1        0.0096
     40 C         -23.3265    0.4494   28.7346 C.2     1  UNL1        0.2258
     41 C         -28.0055    3.9434   31.2069 C.2     1  UNL1        0.0170
     42 C         -24.8694    1.2547   27.6642 C.3     1  UNL1        0.0432
     43 C         -28.5305    4.6898   32.2170 C.2     1  UNL1        0.0071
     44 C         -25.5276    0.7931   28.7326 C.3     1  UNL1        0.1549
@<TRIPOS>BOND
     1     1     2    1
     2     2     7    1
     3     3     2    2
     4     4     3    1
     5     4     5    2
     6     5     6    1
     7     6     7    2
     8     8     1    1
     9     8     9    1
    10     8    12    1
    11     9    10    1
    12    10    11    1
    13    12    11    1
    14    13    14    1
    15    14    15    1
    16    15    18    2
    17    16    17    1
    18    16    15    1
    19    19    14    2
    20    20    21    2
    21    20    19    1
    22    21    26    1
    23    22    21    1
    24    23    22    1
    25    24    23    1
    26    24    25    1
    27    26    27    1
    28    26    13    1
    29    28    29    1
    30    28    37    1
    31    30    36    1
    32    31     1    1
    33    32    39    1
    34    32    42    1
    35    32    40    1
    36    33    30    2
    37    34    38    1
    38    36    34    1
    39    38    29    2
    40    40    31   am
    41    40    35    2
    42    41    34    2
    43    41    43    1
    44    42    13    1
    45    42    44    1
    46    43    28    2
    47    44    31    1
    48    44    30    1
