@<TRIPOS>MOLECULE
No_1837-gen_results/8p0m/2024-11-27-11-27-31/
 7 6 0 0 0
SMALL
GASTEIGER

@<TRIPOS>ATOM
      1 O         -28.1229   -1.3353   28.4874 O.2     1  UNL1       -0.2713
      2 C         -27.0637   -0.8242   28.8687 C.2     1  UNL1        0.2651
      3 C         -26.4017   -0.0623   28.6224 C.3     1  UNL1        0.1142
      4 N         -26.3805   -1.7991   29.9619 N.am    1  UNL1       -0.0875
      5 C         -26.7771    1.0571   27.7896 C.2     1  UNL1       -0.0210
      6 C         -27.7401    1.4787   27.6544 C.2     1  UNL1       -0.0299
      7 C         -28.8144    1.1976   28.4956 C.3     1  UNL1        0.0304
@<TRIPOS>BOND
     1     1     2    2
     2     2     3    1
     3     2     4   am
     4     3     5    1
     5     5     6    2
     6     6     7    1
