@<TRIPOS>MOLECULE
outputs/IAG933/test6/raw/output_1838_IAG933_linker_design_.xyz
 41 45 0 0 0
SMALL
GASTEIGER

@<TRIPOS>ATOM
      1 C         -24.8550   -1.0120   30.1430 C.3     1  UNL1        0.0485
      2 C         -24.9730   -2.5050   29.7880 C.2     1  UNL1       -0.0204
      3 C         -23.9060   -3.1730   29.1460 C.2     1  UNL1       -0.0042
      4 C         -23.9890   -4.5490   28.8530 C.2     1  UNL1       -0.0003
      5 C         -25.1370   -5.2800   29.2050 C.2     1  UNL1       -0.0000
      6 C         -26.2320   -4.6110   29.7840 C.2     1  UNL1       -0.0003
      7 C         -26.1550   -3.2320   30.0650 C.2     1  UNL1       -0.0042
      8 C         -25.3870   -0.6790   31.5710 C.3     1  UNL1        0.0775
      9 C         -25.1890    0.7730   32.0280 C.3     1  UNL1        0.0192
     10 C         -25.3360    0.6840   33.5440 C.3     1  UNL1        0.0202
     11 C         -24.8290   -0.7150   33.9050 C.3     1  UNL1        0.0887
     12 N         -24.7580   -1.4810   32.6460 N.3     1  UNL1       -0.2191
     13 C         -25.6880    1.6140   26.4610 C.2     1  UNL1        0.0771
     14 C         -26.2500    2.9200   26.3950 C.2     1  UNL1        0.0701
     15 C         -25.6420    4.0930   27.1230 C.2     1  UNL1        0.2637
     16 N         -25.6140    5.2520   26.4490 N.am    1  UNL1       -0.2000
     17 C         -25.0260    6.4790   26.9630 C.3     1  UNL1        0.1388
     18 O         -25.1430    3.9660   28.2430 O.2     1  UNL1       -0.2686
     19 C         -27.4380    3.0910   25.6450 C.3     1  UNL1        0.1604
     20 N         -28.0750    2.0890   25.0030 N.2     1  UNL1       -0.2340
     21 C         -27.5430    0.8490   25.0790 C.2     1  UNL1        0.2355
     22 O         -28.1930   -0.2080   24.4770 O.2     1  UNL1       -0.4585
     23 C         -29.4600    0.0050   23.8660 C.3     1  UNL1        0.2423
     24 C         -30.0650   -1.3770   23.5730 C.3     1  UNL1        0.2292
     25 O         -30.7290   -1.8780   24.7210 O.3     1  UNL1       -0.2162
     26 C         -26.3540    0.5760   25.7770 C.3     1  UNL1        0.2713
     27 F         -25.8600   -0.6810   25.7950 F       1  UNL1       -0.2209
     28 C         -20.9151    0.9766   27.9578 C.3     1  UNL1        0.3693
     29 O         -27.7052   -0.3758   28.7198 O.2     1  UNL1       -0.2301
     30 C         -22.5636    1.8122   26.5104 C.2     1  UNL1        0.2992
     31 C         -25.2739    0.3749   28.4079 C.2     1  UNL1        0.1126
     32 O         -21.2602    1.6394   26.8597 O.2     1  UNL1       -0.4202
     33 C         -26.7386   -0.0391   28.5723 C.1     1  UNL1        0.1445
     34 C         -24.5240   -0.0649   29.0534 C.3     1  UNL1        0.0772
     35 C         -23.4570    1.1581   27.3133 C.2     1  UNL1        0.1173
     36 C         -21.8234    0.2104   28.7244 C.2     1  UNL1        0.1388
     37 F         -23.0014    2.5462   25.5118 F       1  UNL1       -0.1618
     38 C         -23.2197    0.3997   28.4289 C.2     1  UNL1        0.0222
     39 N         -24.7793    1.1965   27.3411 N.pl3   1  UNL1       -0.2567
     40 F         -19.6360    1.0495   28.3375 F       1  UNL1       -0.1817
     41 N         -21.5708   -0.7086   29.7133 N.pl3   1  UNL1       -0.1263
@<TRIPOS>BOND
     1     1     2    1
     2     2     7    1
     3     3     2    2
     4     4     3    1
     5     4     5    2
     6     5     6    1
     7     6     7    2
     8     8     1    1
     9     8     9    1
    10     8    12    1
    11     9    10    1
    12    10    11    1
    13    12    11    1
    14    13    39    1
    15    14    13    2
    16    14    15    1
    17    15    18    2
    18    16    17    1
    19    16    15    1
    20    19    14    1
    21    20    21    2
    22    20    19    1
    23    21    26    1
    24    22    21    1
    25    23    22    1
    26    24    23    1
    27    24    25    1
    28    26    27    1
    29    26    13    1
    30    28    40    1
    31    28    36    1
    32    30    32    1
    33    30    35    2
    34    31    33    2
    35    31    34    1
    36    32    28    1
    37    33    29    2
    38    34     1    1
    39    35    39    1
    40    35    38    1
    41    36    41    1
    42    37    30    1
    43    38    36    2
    44    38    34    1
    45    39    31    1
