@<TRIPOS>MOLECULE
outputs/IAG933/test6/raw/output_1839_IAG933_linker_design_.xyz
 44 47 0 0 0
SMALL
GASTEIGER

@<TRIPOS>ATOM
      1 C         -24.8550   -1.0120   30.1430 C.3     1  UNL1        0.1152
      2 C         -24.9730   -2.5050   29.7880 C.2     1  UNL1       -0.0125
      3 C         -23.9060   -3.1730   29.1460 C.2     1  UNL1       -0.0038
      4 C         -23.9890   -4.5490   28.8530 C.2     1  UNL1       -0.0003
      5 C         -25.1370   -5.2800   29.2050 C.2     1  UNL1       -0.0000
      6 C         -26.2320   -4.6110   29.7840 C.2     1  UNL1       -0.0003
      7 C         -26.1550   -3.2320   30.0650 C.2     1  UNL1       -0.0038
      8 C         -25.3870   -0.6790   31.5710 C.3     1  UNL1        0.0855
      9 C         -25.1890    0.7730   32.0280 C.3     1  UNL1        0.0197
     10 C         -25.3360    0.6840   33.5440 C.3     1  UNL1        0.0203
     11 C         -24.8290   -0.7150   33.9050 C.3     1  UNL1        0.0887
     12 N         -24.7580   -1.4810   32.6460 N.3     1  UNL1       -0.2186
     13 C         -25.6880    1.6140   26.4610 C.3     1  UNL1        0.0945
     14 C         -26.2500    2.9200   26.3950 C.2     1  UNL1        0.0568
     15 C         -25.6420    4.0930   27.1230 C.2     1  UNL1        0.2625
     16 N         -25.6140    5.2520   26.4490 N.am    1  UNL1       -0.2000
     17 C         -25.0260    6.4790   26.9630 C.3     1  UNL1        0.1388
     18 O         -25.1430    3.9660   28.2430 O.2     1  UNL1       -0.2687
     19 C         -27.4380    3.0910   25.6450 C.2     1  UNL1        0.1022
     20 N         -28.0750    2.0890   25.0030 N.2     1  UNL1       -0.2119
     21 C         -27.5430    0.8490   25.0790 C.2     1  UNL1        0.2342
     22 O         -28.1930   -0.2080   24.4770 O.2     1  UNL1       -0.4585
     23 C         -29.4600    0.0050   23.8660 C.3     1  UNL1        0.2423
     24 C         -30.0650   -1.3770   23.5730 C.3     1  UNL1        0.2292
     25 O         -30.7290   -1.8780   24.7210 O.3     1  UNL1       -0.2162
     26 C         -26.3540    0.5760   25.7770 C.3     1  UNL1        0.2420
     27 F         -25.8600   -0.6810   25.7950 F       1  UNL1       -0.2268
     28 O         -22.7021    0.7213   29.6968 O.3     1  UNL1       -0.2116
     29 O         -26.6490   -0.5069   28.5270 O.2     1  UNL1       -0.2741
     30 C         -28.4561    4.4139   31.3335 C.3     1  UNL1        0.0044
     31 C         -27.0741    4.3560   30.6631 C.3     1  UNL1        0.0274
     32 C         -23.4120    1.5558   26.9336 C.2     1  UNL1        0.1138
     33 N         -25.3521    1.1466   28.8202 N.am    1  UNL1       -0.2531
     34 N         -23.3290    1.9347   25.5669 N.2     1  UNL1       -0.2072
     35 C         -27.1209    3.2251   29.6314 C.2     1  UNL1       -0.0100
     36 C         -25.8440    2.3853   29.5321 C.2     1  UNL1        0.0632
     37 C         -24.7097    1.2824   27.5628 C.3     1  UNL1        0.1300
     38 C         -22.0952    1.3800   27.3801 C.2     1  UNL1        0.1731
     39 C         -21.7646    0.6654   28.6428 C.3     1  UNL1        0.2472
     40 C         -21.9883    2.1600   25.2816 C.2     1  UNL1        0.2846
     41 C         -29.4265    4.9402   30.2453 C.3     1  UNL1        0.0003
     42 O         -21.1945    1.7916   26.4117 O.2     1  UNL1       -0.4332
     43 C         -25.6520   -0.1000   29.1219 C.2     1  UNL1        0.2346
     44 C         -28.8604    3.0027   31.7773 C.3     1  UNL1        0.0003
@<TRIPOS>BOND
     1     1    43    1
     2     2     7    1
     3     2     1    1
     4     3     2    2
     5     4     3    1
     6     4     5    2
     7     5     6    1
     8     6     7    2
     9     8     1    1
    10     8     9    1
    11     8    12    1
    12     9    10    1
    13    10    11    1
    14    12    11    1
    15    13    37    1
    16    14    13    1
    17    14    15    1
    18    15    18    2
    19    16    17    1
    20    16    15    1
    21    19    14    2
    22    20    21    2
    23    20    19    1
    24    21    26    1
    25    22    21    1
    26    23    22    1
    27    24    23    1
    28    24    25    1
    29    26    27    1
    30    26    13    1
    31    29    43    2
    32    30    44    1
    33    31    30    1
    34    32    38    2
    35    32    37    1
    36    33    43   am
    37    33    36    1
    38    34    32    1
    39    35    31    1
    40    36    35    2
    41    37    33    1
    42    38    39    1
    43    39    28    1
    44    40    34    2
    45    40    42    1
    46    41    30    1
    47    42    38    1
