@<TRIPOS>MOLECULE
outputs/IAG933/test6/raw/output_184_IAG933_linker_design_.xyz
 40 43 0 0 0
SMALL
GASTEIGER

@<TRIPOS>ATOM
      1 C         -24.8550   -1.0120   30.1430 C.3     1  UNL1        0.0625
      2 C         -24.9730   -2.5050   29.7880 C.2     1  UNL1       -0.0191
      3 C         -23.9060   -3.1730   29.1460 C.2     1  UNL1       -0.0042
      4 C         -23.9890   -4.5490   28.8530 C.2     1  UNL1       -0.0003
      5 C         -25.1370   -5.2800   29.2050 C.2     1  UNL1       -0.0000
      6 C         -26.2320   -4.6110   29.7840 C.2     1  UNL1       -0.0003
      7 C         -26.1550   -3.2320   30.0650 C.2     1  UNL1       -0.0042
      8 C         -25.3870   -0.6790   31.5710 C.3     1  UNL1        0.0788
      9 C         -25.1890    0.7730   32.0280 C.3     1  UNL1        0.0193
     10 C         -25.3360    0.6840   33.5440 C.3     1  UNL1        0.0202
     11 C         -24.8290   -0.7150   33.9050 C.3     1  UNL1        0.0887
     12 N         -24.7580   -1.4810   32.6460 N.3     1  UNL1       -0.2191
     13 C         -25.6880    1.6140   26.4610 C.2     1  UNL1        0.0378
     14 C         -26.2500    2.9200   26.3950 C.2     1  UNL1        0.0765
     15 C         -25.6420    4.0930   27.1230 C.2     1  UNL1        0.2664
     16 N         -25.6140    5.2520   26.4490 N.am    1  UNL1       -0.1997
     17 C         -25.0260    6.4790   26.9630 C.3     1  UNL1        0.1388
     18 O         -25.1430    3.9660   28.2430 O.2     1  UNL1       -0.2683
     19 C         -27.4380    3.0910   25.6450 C.2     1  UNL1        0.1067
     20 N         -28.0750    2.0890   25.0030 N.2     1  UNL1       -0.2081
     21 C         -27.5430    0.8490   25.0790 C.2     1  UNL1        0.2533
     22 O         -28.1930   -0.2080   24.4770 O.2     1  UNL1       -0.4558
     23 C         -29.4600    0.0050   23.8660 C.3     1  UNL1        0.2426
     24 C         -30.0650   -1.3770   23.5730 C.3     1  UNL1        0.2292
     25 O         -30.7290   -1.8780   24.7210 O.3     1  UNL1       -0.2162
     26 C         -26.3540    0.5760   25.7770 C.2     1  UNL1        0.1930
     27 F         -25.8600   -0.6810   25.7950 F       1  UNL1       -0.1992
     28 C         -28.5219    2.9783   30.0833 C.3     1  UNL1        0.1917
     29 O         -27.9343    0.2183   29.0028 O.2     1  UNL1       -0.2732
     30 C         -24.2883    1.3944   26.9294 C.2     1  UNL1        0.0002
     31 C         -24.9626   -0.0878   28.9473 C.3     1  UNL1        0.1228
     32 N         -25.8484    0.9449   29.0258 N.am    1  UNL1       -0.2022
     33 C         -22.5849    0.6002   28.5230 C.2     1  UNL1       -0.0026
     34 C         -21.5951    1.2371   27.7709 C.2     1  UNL1       -0.0003
     35 C         -27.0677    1.0755   29.2437 C.2     1  UNL1        0.2443
     36 O         -28.4080    4.1398   30.9178 O.3     1  UNL1       -0.2199
     37 C         -21.9269    1.9283   26.5939 C.2     1  UNL1       -0.0000
     38 C         -23.9879    0.6441   28.1258 C.2     1  UNL1       -0.0021
     39 C         -23.2668    1.9952   26.1295 C.2     1  UNL1       -0.0002
     40 C         -27.2897    2.3507   29.8623 C.3     1  UNL1        0.1223
@<TRIPOS>BOND
     1     1    31    1
     2     2     7    1
     3     2     1    1
     4     3     2    2
     5     4     3    1
     6     4     5    2
     7     5     6    1
     8     6     7    2
     9     8     1    1
    10     8     9    1
    11     8    12    1
    12     9    10    1
    13    10    11    1
    14    12    11    1
    15    13    30    1
    16    14    13    1
    17    14    15    1
    18    15    18    2
    19    16    17    1
    20    16    15    1
    21    19    14    2
    22    20    21    2
    23    20    19    1
    24    21    26    1
    25    22    21    1
    26    23    22    1
    27    24    23    1
    28    24    25    1
    29    26    27    1
    30    26    13    2
    31    28    36    1
    32    29    35    2
    33    30    38    1
    34    31    32    1
    35    32    35    1
    36    34    33    1
    37    35    40    1
    38    37    34    2
    39    38    33    2
    40    38    31    1
    41    39    37    1
    42    39    30    2
    43    40    28    1
