@<TRIPOS>MOLECULE
No_1841-gen_results/8p0m/2024-11-27-11-27-31/
 35 37 0 0 0
SMALL
GASTEIGER

@<TRIPOS>ATOM
      1 C         -28.0162   -0.8135   28.8779 C.ar    1  UNL1        0.0769
      2 C         -27.0636   -0.1189   28.6079 C.ar    1  UNL1        0.0065
      3 C         -26.9716    0.7139   27.5060 C.ar    1  UNL1        0.0014
      4 C         -28.1053    0.7744   26.6421 C.ar    1  UNL1        0.0150
      5 C         -29.2008    0.1044   27.0527 C.ar    1  UNL1        0.0555
      6 C         -29.2096   -0.6029   28.1853 C.ar    1  UNL1        0.0214
      7 N         -30.4199    0.1290   26.3924 N.am    1  UNL1       -0.2413
      8 C         -30.4987   -0.0045   25.1627 C.2     1  UNL1        0.3270
      9 C         -31.6609    0.2535   27.0774 C.3     1  UNL1        0.1128
     10 C         -25.6688    1.3698   27.0804 C.ar    1  UNL1        0.0002
     11 C         -24.5703    1.0470   27.8135 C.ar    1  UNL1        0.0046
     12 C         -23.3501    1.8159   27.6105 C.ar    1  UNL1        0.0567
     13 C         -23.2500    2.5935   26.4511 C.ar    1  UNL1        0.0046
     14 C         -25.5420    2.2771   26.0602 C.ar    1  UNL1        0.0000
     15 C         -24.3582    2.9820   25.7856 C.ar    1  UNL1        0.0001
     16 C         -22.0893    1.4722   28.3162 C.2     1  UNL1        0.2842
     17 N         -20.9527    1.5505   27.7130 N.am    1  UNL1       -0.0837
     18 O         -22.2618    1.0274   29.5215 O.2     1  UNL1       -0.2667
     19 C         -28.0183   -1.6498   30.1370 C.2     1  UNL1        0.3419
     20 O         -28.6934   -1.6110   30.9630 O.2     1  UNL1       -0.2449
     21 O         -26.8354   -2.3435   30.2043 O.3     1  UNL1       -0.4364
     22 C         -32.7047   -0.0206   26.4767 C.3     1  UNL1        0.1451
     23 N         -31.5793   -0.3293   24.4068 N.am    1  UNL1       -0.1875
     24 C         -32.7645   -0.2053   25.0529 C.3     1  UNL1        0.1298
     25 O         -29.3739   -0.0584   24.4367 O.2     1  UNL1       -0.2504
     26 C         -26.9104   -3.7329   29.9163 C.3     1  UNL1        0.2551
     27 C         -34.0774    0.0428   27.1263 C.2     1  UNL1        0.3678
     28 O         -34.6141   -0.8494   27.4697 O.co2   1  UNL1       -0.2455
     29 O         -34.5122    1.2668   27.3900 O.co2   1  UNL1       -0.2455
     30 C         -25.7119   -4.3442   29.3901 C.2     1  UNL1        0.0248
     31 C         -24.6930   -3.4994   29.0292 C.2     1  UNL1       -0.0006
     32 C         -24.6000   -2.0898   29.3133 C.2     1  UNL1       -0.0002
     33 C         -28.0420   -4.4662   30.2865 C.2     1  UNL1        0.2554
     34 C         -23.2228   -1.5220   28.9921 C.2     1  UNL1       -0.0000
     35 O         -28.9179   -3.9303   30.6362 O.2     1  UNL1       -0.2839
@<TRIPOS>BOND
     1     5     7    1
     2     7     8   am
     3     7     9    1
     4     3    10    1
     5    12    16    1
     6    16    17   am
     7    16    18    2
     8     1    19    1
     9    19    20    2
    10    19    21    1
    11     8    23   am
    12    22    24    1
    13    23    24    1
    14     8    25    2
    15    21    26    1
    16    22    27    1
    17    27    28   ar
    18    27    29   ar
    19    26    30    1
    20    30    31    2
    21    31    32    1
    22    26    33    1
    23    32    34    2
    24    33    35    2
    25    22     9    1
    26     1     2   ar
    27     2     3   ar
    28     3     4   ar
    29     4     5   ar
    30     5     6   ar
    31     6     1   ar
    32    10    11   ar
    33    11    12   ar
    34    12    13   ar
    35    13    15   ar
    36    15    14   ar
    37    14    10   ar
