@<TRIPOS>MOLECULE
No_1842-gen_results/8p0m/2024-11-27-11-27-31/
 22 24 0 0 0
SMALL
GASTEIGER

@<TRIPOS>ATOM
      1 N         -28.0544   -1.0498   28.7246 N.ar    1  UNL1       -0.2393
      2 C         -27.7460   -0.0733   29.0098 C.ar    1  UNL1        0.0990
      3 C         -27.5562    0.3369   30.3393 C.ar    1  UNL1        0.1006
      4 C         -27.0710    1.6709   30.7899 C.ar    1  UNL1        0.0273
      5 C         -26.6539    2.5222   29.7363 C.ar    1  UNL1        0.0814
      6 C         -26.7304    2.0603   28.4078 C.ar    1  UNL1        0.0079
      7 C         -27.1892    0.8153   28.0522 C.ar    1  UNL1        0.0193
      8 C         -29.0838   -1.5480   29.4797 C.ar    1  UNL1        0.1345
      9 C         -28.8851   -1.6388   30.9106 C.ar    1  UNL1        0.1671
     10 N         -27.9326   -1.0114   31.4491 N.ar    1  UNL1       -0.2261
     11 C         -27.1881    0.5484   26.6276 C.ar    1  UNL1        0.0015
     12 C         -26.4266    1.2565   25.7315 C.ar    1  UNL1        0.0000
     13 C         -25.9531    2.5300   26.1395 C.ar    1  UNL1        0.0000
     14 C         -26.0404    2.9681   27.4651 C.ar    1  UNL1        0.0003
     15 C         -26.0673    3.7901   30.1216 C.2     1  UNL1        0.3878
     16 O         -25.1488    3.8861   30.8436 O.co2   1  UNL1       -0.2406
     17 O         -26.8208    4.8627   29.8744 O.co2   1  UNL1       -0.2406
     18 N         -29.3328   -2.6613   31.6618 N.pl3   1  UNL1       -0.2142
     19 C         -30.0773   -3.6368   31.2033 C.3     1  UNL1        0.1396
     20 C         -30.4356   -3.6859   30.0456 C.2     1  UNL1       -0.0075
     21 C         -31.2322   -4.8439   29.5442 C.2     1  UNL1       -0.0286
     22 C         -31.5984   -4.8194   28.1714 C.3     1  UNL1        0.0304
@<TRIPOS>BOND
     1     5    15    1
     2    15    16   ar
     3    15    17   ar
     4     9    18    1
     5    18    19    1
     6    19    20    1
     7    20    21    2
     8    21    22    1
     9     3     4   ar
    10     4     5   ar
    11     5     6   ar
    12     7     2   ar
    13     1     2   ar
    14     2     3   ar
    15     3    10   ar
    16    10     9   ar
    17     9     8   ar
    18     8     1   ar
    19     6     7   ar
    20     7    11   ar
    21    11    12   ar
    22    12    13   ar
    23    13    14   ar
    24    14     6   ar
