@<TRIPOS>MOLECULE
outputs/IAG933/test6/raw/output_1843_IAG933_linker_design_.xyz
 41 44 0 0 0
SMALL
GASTEIGER

@<TRIPOS>ATOM
      1 C         -24.8550   -1.0120   30.1430 C.3     1  UNL1        0.0625
      2 C         -24.9730   -2.5050   29.7880 C.2     1  UNL1       -0.0191
      3 C         -23.9060   -3.1730   29.1460 C.2     1  UNL1       -0.0042
      4 C         -23.9890   -4.5490   28.8530 C.2     1  UNL1       -0.0003
      5 C         -25.1370   -5.2800   29.2050 C.2     1  UNL1       -0.0000
      6 C         -26.2320   -4.6110   29.7840 C.2     1  UNL1       -0.0003
      7 C         -26.1550   -3.2320   30.0650 C.2     1  UNL1       -0.0042
      8 C         -25.3870   -0.6790   31.5710 C.3     1  UNL1        0.0788
      9 C         -25.1890    0.7730   32.0280 C.3     1  UNL1        0.0193
     10 C         -25.3360    0.6840   33.5440 C.3     1  UNL1        0.0202
     11 C         -24.8290   -0.7150   33.9050 C.3     1  UNL1        0.0887
     12 N         -24.7580   -1.4810   32.6460 N.3     1  UNL1       -0.2191
     13 C         -25.6880    1.6140   26.4610 C.3     1  UNL1        0.1179
     14 C         -26.2500    2.9200   26.3950 C.2     1  UNL1        0.0649
     15 C         -25.6420    4.0930   27.1230 C.2     1  UNL1        0.2633
     16 N         -25.6140    5.2520   26.4490 N.am    1  UNL1       -0.2000
     17 C         -25.0260    6.4790   26.9630 C.3     1  UNL1        0.1388
     18 O         -25.1430    3.9660   28.2430 O.2     1  UNL1       -0.2686
     19 C         -27.4380    3.0910   25.6450 C.2     1  UNL1        0.1030
     20 N         -28.0750    2.0890   25.0030 N.2     1  UNL1       -0.2118
     21 C         -27.5430    0.8490   25.0790 C.2     1  UNL1        0.2350
     22 O         -28.1930   -0.2080   24.4770 O.2     1  UNL1       -0.4585
     23 C         -29.4600    0.0050   23.8660 C.3     1  UNL1        0.2423
     24 C         -30.0650   -1.3770   23.5730 C.3     1  UNL1        0.2292
     25 O         -30.7290   -1.8780   24.7210 O.3     1  UNL1       -0.2162
     26 C         -26.3540    0.5760   25.7770 C.3     1  UNL1        0.2499
     27 F         -25.8600   -0.6810   25.7950 F       1  UNL1       -0.2260
     28 C         -27.2320    1.6507   29.5610 C.2     1  UNL1       -0.0026
     29 C         -23.4806    0.6674   28.5350 C.2     1  UNL1        0.2528
     30 N         -20.6277    1.6762   27.8409 N.3     1  UNL1       -0.1299
     31 C         -25.5476   -0.0893   29.0825 C.3     1  UNL1        0.1228
     32 C         -29.3977    0.2746   28.4436 C.2     1  UNL1       -0.0003
     33 O         -22.6665   -0.0473   29.1374 O.2     1  UNL1       -0.2724
     34 C         -22.9574    1.3415   27.4474 C.3     1  UNL1        0.1449
     35 C         -28.5406    2.2090   29.6539 C.2     1  UNL1       -0.0003
     36 C         -27.0390    0.3853   28.9624 C.2     1  UNL1       -0.0022
     37 C         -29.6143    1.5162   29.0642 C.2     1  UNL1       -0.0000
     38 C         -28.1207   -0.3188   28.3771 C.2     1  UNL1       -0.0026
     39 C         -21.9310    2.0724   27.4153 C.3     1  UNL1        0.1293
     40 S         -23.9578    1.4758   26.0641 S.3     1  UNL1       -0.1233
     41 N         -24.6561    1.1230   28.9952 N.am    1  UNL1       -0.2016
@<TRIPOS>BOND
     1     1    31    1
     2     2     7    1
     3     2     1    1
     4     3     2    2
     5     4     3    1
     6     4     5    2
     7     5     6    1
     8     6     7    2
     9     8     1    1
    10     8     9    1
    11     8    12    1
    12     9    10    1
    13    10    11    1
    14    12    11    1
    15    13    40    1
    16    14    13    1
    17    14    15    1
    18    15    18    2
    19    16    17    1
    20    16    15    1
    21    19    14    2
    22    20    21    2
    23    20    19    1
    24    21    26    1
    25    22    21    1
    26    23    22    1
    27    24    23    1
    28    24    25    1
    29    26    27    1
    30    26    13    1
    31    28    35    1
    32    29    41    1
    33    29    33    2
    34    31    41    1
    35    32    37    1
    36    34    39    1
    37    34    29    1
    38    36    31    1
    39    36    28    2
    40    37    35    2
    41    38    32    2
    42    38    36    1
    43    39    30    1
    44    40    34    1
