@<TRIPOS>MOLECULE
outputs/IAG933/test6/raw/output_1844_IAG933_linker_design_.xyz
 42 44 0 0 0
SMALL
GASTEIGER

@<TRIPOS>ATOM
      1 C         -24.8550   -1.0120   30.1430 C.3     1  UNL1        0.0557
      2 C         -24.9730   -2.5050   29.7880 C.2     1  UNL1       -0.0197
      3 C         -23.9060   -3.1730   29.1460 C.2     1  UNL1       -0.0042
      4 C         -23.9890   -4.5490   28.8530 C.2     1  UNL1       -0.0003
      5 C         -25.1370   -5.2800   29.2050 C.2     1  UNL1       -0.0000
      6 C         -26.2320   -4.6110   29.7840 C.2     1  UNL1       -0.0003
      7 C         -26.1550   -3.2320   30.0650 C.2     1  UNL1       -0.0042
      8 C         -25.3870   -0.6790   31.5710 C.3     1  UNL1        0.0782
      9 C         -25.1890    0.7730   32.0280 C.3     1  UNL1        0.0192
     10 C         -25.3360    0.6840   33.5440 C.3     1  UNL1        0.0202
     11 C         -24.8290   -0.7150   33.9050 C.3     1  UNL1        0.0887
     12 N         -24.7580   -1.4810   32.6460 N.3     1  UNL1       -0.2191
     13 C         -25.6880    1.6140   26.4610 C.2     1  UNL1        0.0340
     14 C         -26.2500    2.9200   26.3950 C.2     1  UNL1        0.0740
     15 C         -25.6420    4.0930   27.1230 C.2     1  UNL1        0.2662
     16 N         -25.6140    5.2520   26.4490 N.am    1  UNL1       -0.1997
     17 C         -25.0260    6.4790   26.9630 C.3     1  UNL1        0.1388
     18 O         -25.1430    3.9660   28.2430 O.2     1  UNL1       -0.2683
     19 C         -27.4380    3.0910   25.6450 C.2     1  UNL1        0.1065
     20 N         -28.0750    2.0890   25.0030 N.2     1  UNL1       -0.2081
     21 C         -27.5430    0.8490   25.0790 C.2     1  UNL1        0.2530
     22 O         -28.1930   -0.2080   24.4770 O.2     1  UNL1       -0.4558
     23 C         -29.4600    0.0050   23.8660 C.3     1  UNL1        0.2426
     24 C         -30.0650   -1.3770   23.5730 C.3     1  UNL1        0.2292
     25 O         -30.7290   -1.8780   24.7210 O.3     1  UNL1       -0.2162
     26 C         -26.3540    0.5760   25.7770 C.2     1  UNL1        0.1905
     27 F         -25.8600   -0.6810   25.7950 F       1  UNL1       -0.1995
     28 O         -22.1325   -0.2831   28.2939 O.3     1  UNL1       -0.2087
     29 C         -24.1823    2.5753   30.4883 C.1     1  UNL1        0.0187
     30 C         -25.6790   -0.2969   29.0625 C.3     1  UNL1        0.0948
     31 O         -24.6007    3.9841   32.4726 O.3     1  UNL1       -0.4355
     32 C         -22.3134    1.0813   28.6834 C.3     1  UNL1        0.2178
     33 C         -23.3340    1.7678   29.5678 C.1     1  UNL1       -0.0479
     34 C         -24.5680    1.1725   27.1467 C.3     1  UNL1        0.1246
     35 C         -25.4835    4.3253   33.6067 C.3     1  UNL1        0.2566
     36 O         -26.2410    3.2086   31.1361 O.2     1  UNL1       -0.2350
     37 C         -23.2870    1.7984   26.7527 C.3     1  UNL1        0.1390
     38 O         -23.4257    2.7401   25.6951 O.3     1  UNL1       -0.3517
     39 N         -24.7075    0.1375   28.0296 N.3     1  UNL1       -0.2121
     40 C         -25.1060    3.2838   31.3579 C.2     1  UNL1        0.3862
     41 C         -22.4496    2.3117   24.8134 C.3     1  UNL1        0.1741
     42 C         -22.0814    1.7855   27.4568 C.3     1  UNL1        0.0778
@<TRIPOS>BOND
     1     1    30    1
     2     2     7    1
     3     2     1    1
     4     3     2    2
     5     4     3    1
     6     4     5    2
     7     5     6    1
     8     6     7    2
     9     8     1    1
    10     8     9    1
    11     8    12    1
    12     9    10    1
    13    10    11    1
    14    12    11    1
    15    13    34    1
    16    14    13    1
    17    14    15    1
    18    15    18    2
    19    16    17    1
    20    16    15    1
    21    19    14    2
    22    20    21    2
    23    20    19    1
    24    21    26    1
    25    22    21    1
    26    23    22    1
    27    24    23    1
    28    24    25    1
    29    26    27    1
    30    26    13    2
    31    29    40    1
    32    31    35    1
    33    32    28    1
    34    32    33    1
    35    33    29    3
    36    34    39    1
    37    36    40    2
    38    37    34    1
    39    37    42    1
    40    38    37    1
    41    39    30    1
    42    40    31    1
    43    41    38    1
    44    42    32    1
