@<TRIPOS>MOLECULE
outputs/IAG933/test6/raw/output_1845_IAG933_linker_design_.xyz
 48 53 0 0 0
SMALL
GASTEIGER

@<TRIPOS>ATOM
      1 C         -24.8550   -1.0120   30.1430 C.3     1  UNL1        0.0964
      2 C         -24.9730   -2.5050   29.7880 C.2     1  UNL1       -0.0064
      3 C         -23.9060   -3.1730   29.1460 C.2     1  UNL1       -0.0029
      4 C         -23.9890   -4.5490   28.8530 C.2     1  UNL1       -0.0003
      5 C         -25.1370   -5.2800   29.2050 C.2     1  UNL1       -0.0000
      6 C         -26.2320   -4.6110   29.7840 C.2     1  UNL1       -0.0003
      7 C         -26.1550   -3.2320   30.0650 C.2     1  UNL1       -0.0029
      8 C         -25.3870   -0.6790   31.5710 C.3     1  UNL1        0.0916
      9 C         -25.1890    0.7730   32.0280 C.3     1  UNL1        0.0206
     10 C         -25.3360    0.6840   33.5440 C.3     1  UNL1        0.0203
     11 C         -24.8290   -0.7150   33.9050 C.3     1  UNL1        0.0888
     12 N         -24.7580   -1.4810   32.6460 N.3     1  UNL1       -0.2178
     13 C         -25.6880    1.6140   26.4610 C.3     1  UNL1        0.0788
     14 C         -26.2500    2.9200   26.3950 C.2     1  UNL1        0.0555
     15 C         -25.6420    4.0930   27.1230 C.2     1  UNL1        0.2625
     16 N         -25.6140    5.2520   26.4490 N.am    1  UNL1       -0.2000
     17 C         -25.0260    6.4790   26.9630 C.3     1  UNL1        0.1388
     18 O         -25.1430    3.9660   28.2430 O.2     1  UNL1       -0.2687
     19 C         -27.4380    3.0910   25.6450 C.2     1  UNL1        0.1022
     20 N         -28.0750    2.0890   25.0030 N.2     1  UNL1       -0.2119
     21 C         -27.5430    0.8490   25.0790 C.2     1  UNL1        0.2341
     22 O         -28.1930   -0.2080   24.4770 O.2     1  UNL1       -0.4585
     23 C         -29.4600    0.0050   23.8660 C.3     1  UNL1        0.2423
     24 C         -30.0650   -1.3770   23.5730 C.3     1  UNL1        0.2292
     25 O         -30.7290   -1.8780   24.7210 O.3     1  UNL1       -0.2162
     26 C         -26.3540    0.5760   25.7770 C.3     1  UNL1        0.2406
     27 F         -25.8600   -0.6810   25.7950 F       1  UNL1       -0.2269
     28 C         -27.1240   -0.5661   28.7340 C.3     1  UNL1        0.1104
     29 C         -25.5492    1.0650   28.8238 C.3     1  UNL1        0.0808
     30 C         -29.6038    0.6339   32.8666 C.2     1  UNL1        0.0033
     31 C         -20.9550    1.1452   27.7285 C.2     1  UNL1       -0.0207
     32 C         -28.1190    0.5603   28.8101 C.3     1  UNL1        0.1932
     33 O         -28.9817    0.1818   27.7555 O.3     1  UNL1       -0.2167
     34 C         -28.9672    1.8510   30.8797 C.2     1  UNL1        0.0014
     35 C         -28.8429    0.6095   30.1352 C.2     1  UNL1        0.0480
     36 C         -24.6846    1.2264   27.6403 C.3     1  UNL1        0.0597
     37 C         -29.3129   -0.5342   30.7536 C.2     1  UNL1        0.1941
     38 C         -21.2979    1.7455   26.4695 C.3     1  UNL1        0.0944
     39 O         -29.2904   -1.6845   30.0491 O.2     1  UNL1       -0.2868
     40 C         -29.2875    1.8317   32.2394 C.2     1  UNL1       -0.0000
     41 C         -21.9160    0.7235   28.6869 C.2     1  UNL1       -0.0088
     42 C         -23.3102    0.9474   28.1948 C.2     1  UNL1       -0.0205
     43 C         -23.5652    1.4699   27.0359 C.2     1  UNL1        0.0151
     44 F         -22.9159    1.5338   24.8189 F       1  UNL1       -0.2020
     45 C         -22.7233    2.0152   26.0093 C.3     1  UNL1        0.2760
     46 C         -29.6737   -0.5380   32.1183 C.2     1  UNL1        0.0418
     47 N         -25.6862   -0.3682   29.0593 N.3     1  UNL1       -0.2661
     48 O         -23.2509    3.4391   25.6590 O.3     1  UNL1       -0.1851
@<TRIPOS>BOND
     1     1    47    1
     2     2     7    1
     3     2     1    1
     4     3     2    2
     5     4     3    1
     6     4     5    2
     7     5     6    1
     8     6     7    2
     9     8     1    1
    10     8     9    1
    11     8    12    1
    12     9    10    1
    13    10    11    1
    14    12    11    1
    15    13    14    1
    16    13    36    1
    17    14    15    1
    18    15    18    2
    19    16    17    1
    20    16    15    1
    21    19    14    2
    22    20    21    2
    23    20    19    1
    24    21    26    1
    25    22    21    1
    26    23    22    1
    27    24    23    1
    28    24    25    1
    29    26    27    1
    30    26    13    1
    31    28    32    1
    32    28    47    1
    33    29    47    1
    34    31    41    2
    35    32    33    1
    36    32    35    1
    37    34    40    2
    38    35    37    2
    39    35    34    1
    40    36    42    1
    41    36    29    1
    42    37    46    1
    43    38    31    1
    44    39    37    1
    45    40    30    1
    46    42    41    1
    47    43    36    1
    48    43    42    2
    49    45    44    1
    50    45    38    1
    51    45    43    1
    52    46    30    2
    53    48    45    1
