@<TRIPOS>MOLECULE
outputs/IAG933/test6/raw/output_1846_IAG933_linker_design_.xyz
 40 43 0 0 0
SMALL
GASTEIGER

@<TRIPOS>ATOM
      1 C         -24.8550   -1.0120   30.1430 C.3     1  UNL1        0.2040
      2 C         -24.9730   -2.5050   29.7880 C.2     1  UNL1        0.0186
      3 C         -23.9060   -3.1730   29.1460 C.2     1  UNL1       -0.0008
      4 C         -23.9890   -4.5490   28.8530 C.2     1  UNL1       -0.0002
      5 C         -25.1370   -5.2800   29.2050 C.2     1  UNL1       -0.0000
      6 C         -26.2320   -4.6110   29.7840 C.2     1  UNL1       -0.0002
      7 C         -26.1550   -3.2320   30.0650 C.2     1  UNL1       -0.0008
      8 C         -25.3870   -0.6790   31.5710 C.3     1  UNL1        0.1170
      9 C         -25.1890    0.7730   32.0280 C.3     1  UNL1        0.0229
     10 C         -25.3360    0.6840   33.5440 C.3     1  UNL1        0.0204
     11 C         -24.8290   -0.7150   33.9050 C.3     1  UNL1        0.0888
     12 N         -24.7580   -1.4810   32.6460 N.3     1  UNL1       -0.2154
     13 C         -25.6880    1.6140   26.4610 C.2     1  UNL1        0.0302
     14 C         -26.2500    2.9200   26.3950 C.2     1  UNL1        0.0734
     15 C         -25.6420    4.0930   27.1230 C.2     1  UNL1        0.2661
     16 N         -25.6140    5.2520   26.4490 N.am    1  UNL1       -0.1997
     17 C         -25.0260    6.4790   26.9630 C.3     1  UNL1        0.1388
     18 O         -25.1430    3.9660   28.2430 O.2     1  UNL1       -0.2683
     19 C         -27.4380    3.0910   25.6450 C.2     1  UNL1        0.1064
     20 N         -28.0750    2.0890   25.0030 N.2     1  UNL1       -0.2081
     21 C         -27.5430    0.8490   25.0790 C.2     1  UNL1        0.2530
     22 O         -28.1930   -0.2080   24.4770 O.2     1  UNL1       -0.4558
     23 C         -29.4600    0.0050   23.8660 C.3     1  UNL1        0.2426
     24 C         -30.0650   -1.3770   23.5730 C.3     1  UNL1        0.2292
     25 O         -30.7290   -1.8780   24.7210 O.3     1  UNL1       -0.2162
     26 C         -26.3540    0.5760   25.7770 C.2     1  UNL1        0.1899
     27 F         -25.8600   -0.6810   25.7950 F       1  UNL1       -0.1996
     28 C         -23.4966    0.1683   28.8497 C.2     1  UNL1        0.1748
     29 C         -24.6144    1.2064   27.0302 C.3     1  UNL1        0.1485
     30 C         -22.2608    1.5083   27.2522 C.2     1  UNL1        0.1718
     31 O         -20.0811    0.6162   28.3433 O.3     1  UNL1       -0.2150
     32 C         -21.1079    0.2684   29.0000 C.3     1  UNL1        0.2140
     33 C         -23.4282    1.7339   26.5696 C.2     1  UNL1        0.1545
     34 C         -22.7100    3.3854   24.7085 C.3     1  UNL1        0.2521
     35 O         -23.4669    2.3535   25.3810 O.2     1  UNL1       -0.4727
     36 C         -22.2901    0.6740   28.3689 C.2     1  UNL1        0.0776
     37 O         -25.7435   -0.3569   28.2794 O.2     1  UNL1       -0.2873
     38 O         -23.5378   -0.5017   30.0453 O.2     1  UNL1       -0.4706
     39 C         -24.7019    0.2973   28.0599 C.2     1  UNL1        0.2174
     40 F         -21.1157    2.0532   26.7003 F       1  UNL1       -0.2015
@<TRIPOS>BOND
     1     1    38    1
     2     2     7    1
     3     2     1    1
     4     3     2    2
     5     4     3    1
     6     4     5    2
     7     5     6    1
     8     6     7    2
     9     8     1    1
    10     8     9    1
    11     8    12    1
    12     9    10    1
    13    10    11    1
    14    12    11    1
    15    14    13    1
    16    14    15    1
    17    15    18    2
    18    16    17    1
    19    16    15    1
    20    19    14    2
    21    20    21    2
    22    20    19    1
    23    21    26    1
    24    22    21    1
    25    23    22    1
    26    24    23    1
    27    24    25    1
    28    26    27    1
    29    26    13    2
    30    28    38    1
    31    29    13    1
    32    29    39    1
    33    30    36    1
    34    31    32    1
    35    33    29    1
    36    33    30    2
    37    34    35    1
    38    35    33    1
    39    36    28    2
    40    36    32    1
    41    39    37    2
    42    39    28    1
    43    40    30    1
