@<TRIPOS>MOLECULE
No_1847-gen_results/8p0m/2024-11-27-11-27-31/
 24 26 0 0 0
SMALL
GASTEIGER

@<TRIPOS>ATOM
      1 C         -28.0162   -0.8135   28.8779 C.ar    1  UNL1        0.0052
      2 C         -28.4690   -0.7850   29.8287 C.ar    1  UNL1        0.0678
      3 C         -26.5455   -0.8762   28.8500 C.ar    1  UNL1       -0.0039
      4 C         -25.8041   -1.0324   30.0571 C.ar    1  UNL1       -0.0173
      5 C         -27.9437   -0.9869   31.2075 C.ar    1  UNL1        0.0052
      6 C         -26.5825   -1.0386   31.2231 C.ar    1  UNL1       -0.0039
      7 C         -30.0606   -0.7371   29.9024 C.2     1  UNL1        0.3334
      8 O         -30.7252   -1.5544   30.2697 O.2     1  UNL1       -0.2541
      9 F         -30.5270    0.3279   29.3296 F       1  UNL1       -0.1586
     10 C         -24.3746   -1.0938   30.0697 C.3     1  UNL1        0.0917
     11 C         -23.6709   -1.7172   30.4718 C.3     1  UNL1        0.2682
     12 C         -23.7987    0.0744   29.2153 C.3     1  UNL1        0.1445
     13 C         -24.3028    1.1117   28.6505 C.ar    1  UNL1       -0.0101
     14 C         -25.1404    1.9299   29.0983 C.ar    1  UNL1        0.0029
     15 C         -25.5868    3.1147   28.3316 C.ar    1  UNL1        0.0795
     16 C         -25.1880    3.1742   27.0127 C.ar    1  UNL1        0.0066
     17 C         -24.3421    2.2539   26.4391 C.ar    1  UNL1       -0.0001
     18 C         -23.8381    1.1906   27.2188 C.ar    1  UNL1       -0.0037
     19 C         -22.3315   -0.1716   29.3571 C.2     1  UNL1        0.3908
     20 N         -22.3544   -1.3454   30.2149 N.2     1  UNL1       -0.0616
     21 C         -26.5055    4.1118   28.9107 C.2     1  UNL1        0.3877
     22 O         -27.0504    4.8952   28.3781 O.co2   1  UNL1       -0.2406
     23 O         -26.7132    3.8629   30.2337 O.co2   1  UNL1       -0.2406
     24 N         -21.2625    0.1947   28.8610 N.pl3   1  UNL1        0.2109
@<TRIPOS>BOND
     1     2     7    1
     2     7     8    2
     3     7     9    1
     4     4    10    1
     5    10    11    1
     6    10    12    1
     7    12    13    1
     8    12    19    1
     9    11    20    1
    10    19    20    2
    11    15    21    1
    12    21    22   ar
    13    21    23   ar
    14    19    24    1
    15    13    14   ar
    16    14    15   ar
    17    15    16   ar
    18    16    17   ar
    19    17    18   ar
    20    18    13   ar
    21     1     2   ar
    22     2     5   ar
    23     5     6   ar
    24     6     4   ar
    25     4     3   ar
    26     3     1   ar
