@<TRIPOS>MOLECULE
No_1849-gen_results/8p0m/2024-11-27-11-27-31/
 31 33 0 0 0
SMALL
GASTEIGER

@<TRIPOS>ATOM
      1 C         -28.0162   -0.8135   28.8779 C.ar    1  UNL1        0.0369
      2 C         -27.0636   -0.1189   28.6079 C.ar    1  UNL1        0.0031
      3 C         -25.7923   -0.4302   29.0761 C.ar    1  UNL1        0.0002
      4 C         -25.5756   -1.5654   29.9363 C.ar    1  UNL1        0.0031
      5 C         -26.7354   -2.3004   30.2173 C.ar    1  UNL1        0.0369
      6 C         -27.9184   -1.9537   29.7629 C.ar    1  UNL1        0.1392
      7 O         -29.0001   -2.7012   30.1151 O.3     1  UNL1       -0.4672
      8 C         -24.5290    0.3490   28.7998 C.ar    1  UNL1        0.0000
      9 C         -24.4808    1.2113   27.7998 C.ar    1  UNL1        0.0000
     10 C         -23.2478    1.8974   27.4951 C.ar    1  UNL1        0.0000
     11 C         -22.0497    1.5890   28.1642 C.ar    1  UNL1        0.0000
     12 C         -23.3072    0.0149   29.4618 C.ar    1  UNL1        0.0000
     13 C         -22.0852    0.6899   29.1374 C.ar    1  UNL1        0.0000
     14 C         -29.3635   -2.8123   31.4419 C.3     1  UNL1        0.2717
     15 C         -29.7833   -4.1212   31.7495 C.3     1  UNL1        0.2050
     16 C         -29.8398   -5.0534   30.8143 C.3     1  UNL1        0.0635
     17 O         -28.9938   -4.5473   32.8948 O.3     1  UNL1       -0.2184
     18 C         -30.7171   -6.2429   31.1110 C.ar    1  UNL1       -0.0195
     19 C         -31.3988   -6.7929   29.9787 C.ar    1  UNL1       -0.0042
     20 C         -29.7687   -1.4953   32.0792 C.2     1  UNL1        0.2724
     21 C         -31.9564   -8.0822   30.0429 C.ar    1  UNL1       -0.0003
     22 O         -28.9170   -0.9660   32.7976 O.2     1  UNL1       -0.2705
     23 C         -31.8599   -8.7817   31.2812 C.ar    1  UNL1       -0.0000
     24 C         -31.1512   -8.2421   32.3440 C.ar    1  UNL1       -0.0003
     25 C         -30.4979   -7.0454   32.2304 C.ar    1  UNL1       -0.0042
     26 N         -30.8848   -1.0418   31.7845 N.am    1  UNL1       -0.2489
     27 C         -31.2469    0.2701   32.3875 C.3     1  UNL1        0.1203
     28 C         -31.8580   -1.6099   30.9157 C.2     1  UNL1        0.1287
     29 C         -32.0841   -1.0051   29.7129 C.2     1  UNL1        0.2936
     30 F         -31.2279   -0.2165   29.3990 F       1  UNL1       -0.1706
     31 F         -32.2729   -1.9237   28.7103 F       1  UNL1       -0.1706
@<TRIPOS>BOND
     1     6     7    1
     2     3     8    1
     3     7    14    1
     4    14    15    1
     5    15    16    1
     6    15    17    1
     7    16    18    1
     8    14    20    1
     9    20    22    2
    10    20    26   am
    11    26    27    1
    12    26    28    1
    13    28    29    2
    14    29    30    1
    15    29    31    1
    16     1     2   ar
    17     2     3   ar
    18     3     4   ar
    19     4     5   ar
    20     5     6   ar
    21     6     1   ar
    22    18    19   ar
    23    19    21   ar
    24    21    23   ar
    25    23    24   ar
    26    24    25   ar
    27    25    18   ar
    28     8     9   ar
    29     9    10   ar
    30    10    11   ar
    31    11    13   ar
    32    13    12   ar
    33    12     8   ar
