@<TRIPOS>MOLECULE
outputs/IAG933/test6/raw/output_1850_IAG933_linker_design_.xyz
 42 47 0 0 0
SMALL
GASTEIGER

@<TRIPOS>ATOM
      1 C         -24.8550   -1.0120   30.1430 C.3     1  UNL1        0.0478
      2 C         -24.9730   -2.5050   29.7880 C.2     1  UNL1       -0.0206
      3 C         -23.9060   -3.1730   29.1460 C.2     1  UNL1       -0.0042
      4 C         -23.9890   -4.5490   28.8530 C.2     1  UNL1       -0.0003
      5 C         -25.1370   -5.2800   29.2050 C.2     1  UNL1       -0.0000
      6 C         -26.2320   -4.6110   29.7840 C.2     1  UNL1       -0.0003
      7 C         -26.1550   -3.2320   30.0650 C.2     1  UNL1       -0.0042
      8 C         -25.3870   -0.6790   31.5710 C.3     1  UNL1        0.1196
      9 C         -25.1890    0.7730   32.0280 C.3     1  UNL1        0.1777
     10 C         -25.3360    0.6840   33.5440 C.3     1  UNL1        0.0668
     11 C         -24.8290   -0.7150   33.9050 C.3     1  UNL1        0.0930
     12 N         -24.7580   -1.4810   32.6460 N.3     1  UNL1       -0.2149
     13 C         -25.6880    1.6140   26.4610 C.2     1  UNL1        0.0305
     14 C         -26.2500    2.9200   26.3950 C.2     1  UNL1        0.0720
     15 C         -25.6420    4.0930   27.1230 C.2     1  UNL1        0.2270
     16 N         -25.6140    5.2520   26.4490 N.2     1  UNL1       -0.2353
     17 C         -25.0260    6.4790   26.9630 C.3     1  UNL1        0.1550
     18 O         -25.1430    3.9660   28.2430 O.2     1  UNL1       -0.4273
     19 C         -27.4380    3.0910   25.6450 C.2     1  UNL1        0.1065
     20 N         -28.0750    2.0890   25.0030 N.2     1  UNL1       -0.2081
     21 C         -27.5430    0.8490   25.0790 C.2     1  UNL1        0.2530
     22 O         -28.1930   -0.2080   24.4770 O.2     1  UNL1       -0.4558
     23 C         -29.4600    0.0050   23.8660 C.3     1  UNL1        0.2426
     24 C         -30.0650   -1.3770   23.5730 C.3     1  UNL1        0.2292
     25 O         -30.7290   -1.8780   24.7210 O.3     1  UNL1       -0.2162
     26 C         -26.3540    0.5760   25.7770 C.2     1  UNL1        0.1904
     27 F         -25.8600   -0.6810   25.7950 F       1  UNL1       -0.1995
     28 N         -25.7760    3.4817   32.2699 N.2     1  UNL1       -0.0095
     29 C         -23.9616    1.7618   29.9663 C.3     1  UNL1        0.2040
     30 BR        -26.1947    5.5304   34.1329 Br      1  UNL1        0.0248
     31 C         -25.4277    4.0508   29.7928 C.2     1  UNL1        0.2479
     32 C         -22.4838    2.0967   25.9315 C.3     1  UNL1        0.0884
     33 C         -24.3102    1.6672   28.5281 C.3     1  UNL1        0.0713
     34 N         -23.2900    1.2489   26.7734 N.3     1  UNL1       -0.2689
     35 C         -25.3895    5.2817   30.2624 C.2     1  UNL1        0.1483
     36 N         -25.3129    1.6671   30.7877 N.pl3   1  UNL1       -0.1902
     37 C         -22.0747    1.7725   27.3523 C.3     1  UNL1        0.0738
     38 N         -25.5498    5.6571   31.5128 N.2     1  UNL1       -0.1934
     39 C         -21.7610    0.7542   28.5183 C.3     1  UNL1        0.0188
     40 C         -25.5829    2.9793   31.0964 C.2     1  UNL1        0.3625
     41 C         -24.4269    1.3797   27.3472 C.3     1  UNL1        0.0868
     42 C         -25.7344    4.7415   32.4115 C.2     1  UNL1        0.3110
@<TRIPOS>BOND
     1     2     7    1
     2     2     1    1
     3     3     2    2
     4     4     3    1
     5     4     5    2
     6     5     6    1
     7     6     7    2
     8     8     1    1
     9     8     9    1
    10     8    12    1
    11     9    36    1
    12     9    10    1
    13    10    11    1
    14    12    11    1
    15    13    41    1
    16    14    13    1
    17    14    15    1
    18    15    18    1
    19    16    17    1
    20    16    15    2
    21    18    31    1
    22    19    14    2
    23    20    21    2
    24    20    19    1
    25    21    26    1
    26    22    21    1
    27    23    22    1
    28    24    23    1
    29    24    25    1
    30    26    27    1
    31    26    13    2
    32    28    42    2
    33    29    36    1
    34    31    35    1
    35    31    40    2
    36    32    37    1
    37    33    29    1
    38    34    32    1
    39    34    41    1
    40    34    37    1
    41    35    38    2
    42    36    40    1
    43    37    39    1
    44    38    42    1
    45    40    28    1
    46    41    33    1
    47    42    30    1
