@<TRIPOS>MOLECULE
No_1853-gen_results/8p0m/2024-11-27-11-27-31/
 20 20 0 0 0
SMALL
GASTEIGER

@<TRIPOS>ATOM
      1 O         -28.1229   -1.3353   28.4874 O.2     1  UNL1       -0.2684
      2 C         -27.0637   -0.8242   28.8687 C.2     1  UNL1        0.2653
      3 N         -25.9773   -1.1378   28.8137 N.am    1  UNL1       -0.1894
      4 C         -25.5373   -2.3638   28.4230 C.3     1  UNL1        0.2288
      5 C         -27.1628    0.7818   29.0832 C.ar    1  UNL1        0.0550
      6 C         -26.2847    1.3220   29.5397 C.ar    1  UNL1        0.0043
      7 C         -26.2189    2.7639   29.7837 C.ar    1  UNL1       -0.0038
      8 C         -27.3106    3.4822   29.3772 C.ar    1  UNL1       -0.0178
      9 C         -28.3755    2.7942   28.8093 C.ar    1  UNL1       -0.0038
     10 C         -28.3360    1.4276   28.6309 C.ar    1  UNL1        0.0043
     11 C         -24.7076   -3.0524   29.6332 C.2     1  UNL1        0.3865
     12 O         -24.4698   -4.2884   29.4233 O.co2   1  UNL1       -0.2437
     13 O         -24.7270   -2.4357   30.7233 O.co2   1  UNL1       -0.2437
     14 C         -27.2831    4.9477   29.6068 C.3     1  UNL1        0.0523
     15 C         -26.2382    5.5947   29.4096 C.2     1  UNL1       -0.0214
     16 C         -26.0004    6.7700   30.1908 C.2     1  UNL1       -0.0042
     17 C         -24.6976    7.4935   30.1583 C.2     1  UNL1       -0.0003
     18 C         -24.3370    8.3792   29.8142 C.2     1  UNL1       -0.0000
     19 C         -24.9998    9.2698   28.9631 C.2     1  UNL1       -0.0000
     20 C         -26.3577    9.0757   28.8759 C.2     1  UNL1       -0.0000
@<TRIPOS>BOND
     1     1     2    2
     2     2     3   am
     3     3     4    1
     4     2     5    1
     5     4    11    1
     6    11    12   ar
     7    11    13   ar
     8     8    14    1
     9    14    15    1
    10    15    16    2
    11    16    17    1
    12    17    18    2
    13    18    19    1
    14    19    20    2
    15     5     6   ar
    16     6     7   ar
    17     7     8   ar
    18     8     9   ar
    19     9    10   ar
    20    10     5   ar
