@<TRIPOS>MOLECULE
No_1854-gen_results/8p0m/2024-11-27-11-27-31/
 9 9 0 0 0
SMALL
GASTEIGER

@<TRIPOS>ATOM
      1 F         -28.0727   -1.2542   28.5316 F       1  UNL1       -0.1933
      2 C         -27.3591   -0.3792   28.7224 C.3     1  UNL1        0.3410
      3 F         -26.3180   -0.6608   29.1159 F       1  UNL1       -0.1933
      4 C         -27.6804    0.9274   28.3001 C.ar    1  UNL1        0.0436
      5 C         -28.7595    1.1960   27.6572 C.ar    1  UNL1        0.0011
      6 C         -28.7097    1.2463   26.2740 C.ar    1  UNL1       -0.0001
      7 C         -27.4768    1.0687   25.6249 C.ar    1  UNL1       -0.0000
      8 C         -26.2534    1.1590   26.3071 C.ar    1  UNL1       -0.0001
      9 C         -26.4203    1.0045   27.7456 C.ar    1  UNL1        0.0011
@<TRIPOS>BOND
     1     1     2    1
     2     2     3    1
     3     2     4    1
     4     4     5   ar
     5     5     6   ar
     6     6     7   ar
     7     7     8   ar
     8     8     9   ar
     9     9     4   ar
