@<TRIPOS>MOLECULE
No_1855-gen_results/8p0m/2024-11-27-11-27-31/
 22 23 0 0 0
SMALL
GASTEIGER

@<TRIPOS>ATOM
      1 C         -28.0162   -0.8135   28.8779 C.ar    1  UNL1        0.0208
      2 C         -27.0636   -0.1189   28.6079 C.ar    1  UNL1       -0.0008
      3 C         -27.0010    0.6913   27.4910 C.ar    1  UNL1       -0.0003
      4 C         -28.1373    0.7363   26.6350 C.ar    1  UNL1        0.0038
      5 C         -29.2360    0.0765   27.0690 C.ar    1  UNL1        0.0712
      6 C         -29.2177   -0.6429   28.1747 C.ar    1  UNL1        0.0030
      7 C         -30.3374    0.2228   26.0287 C.3     1  UNL1        0.4186
      8 F         -31.1032   -0.6675   26.1166 F       1  UNL1       -0.1659
      9 F         -29.8560    0.3319   24.7765 F       1  UNL1       -0.1659
     10 F         -30.9552    1.4046   26.2522 F       1  UNL1       -0.1659
     11 C         -28.0362   -1.6705   30.1412 C.3     1  UNL1        0.2468
     12 N         -27.1117   -2.5785   30.2857 N.pl3   1  UNL1       -0.0843
     13 C         -27.4244   -3.9242   30.0359 C.cat   1  UNL1        0.4958
     14 N         -26.2912   -4.6998   29.8639 N.pl3   1  UNL1        0.1317
     15 N         -28.5664   -4.4224   30.2334 N.pl3   1  UNL1       -0.0843
     16 C         -29.6545   -4.4022   30.4874 C.3     1  UNL1        0.2468
     17 C         -30.6589   -4.7093   30.3518 C.ar    1  UNL1        0.0209
     18 C         -31.0457   -5.7319   29.2953 C.ar    1  UNL1       -0.0008
     19 C         -32.2861   -6.2391   28.9338 C.ar    1  UNL1       -0.0002
     20 C         -33.3395   -5.6785   29.6279 C.ar    1  UNL1       -0.0000
     21 C         -33.2277   -4.7403   30.5924 C.ar    1  UNL1       -0.0002
     22 C         -31.9738   -4.2119   30.9615 C.ar    1  UNL1       -0.0008
@<TRIPOS>BOND
     1     5     7    1
     2     7     8    1
     3     7     9    1
     4     7    10    1
     5     1    11    1
     6    11    12    1
     7    12    13    2
     8    13    14    1
     9    13    15    1
    10    15    16    1
    11    16    17    1
    12    17    18   ar
    13    18    19   ar
    14    19    20   ar
    15    20    21   ar
    16    21    22   ar
    17    22    17   ar
    18     1     2   ar
    19     2     3   ar
    20     3     4   ar
    21     4     5   ar
    22     5     6   ar
    23     6     1   ar
