@<TRIPOS>MOLECULE
outputs/IAG933/test6/raw/output_1856_IAG933_linker_design_.xyz
 43 46 0 0 0
SMALL
GASTEIGER

@<TRIPOS>ATOM
      1 C         -24.8550   -1.0120   30.1430 C.3     1  UNL1        0.0451
      2 C         -24.9730   -2.5050   29.7880 C.2     1  UNL1       -0.0207
      3 C         -23.9060   -3.1730   29.1460 C.2     1  UNL1       -0.0042
      4 C         -23.9890   -4.5490   28.8530 C.2     1  UNL1       -0.0003
      5 C         -25.1370   -5.2800   29.2050 C.2     1  UNL1       -0.0000
      6 C         -26.2320   -4.6110   29.7840 C.2     1  UNL1       -0.0003
      7 C         -26.1550   -3.2320   30.0650 C.2     1  UNL1       -0.0042
      8 C         -25.3870   -0.6790   31.5710 C.3     1  UNL1        0.0772
      9 C         -25.1890    0.7730   32.0280 C.3     1  UNL1        0.0192
     10 C         -25.3360    0.6840   33.5440 C.3     1  UNL1        0.0202
     11 C         -24.8290   -0.7150   33.9050 C.3     1  UNL1        0.0887
     12 N         -24.7580   -1.4810   32.6460 N.3     1  UNL1       -0.2191
     13 C         -25.6880    1.6140   26.4610 C.2     1  UNL1        0.0376
     14 C         -26.2500    2.9200   26.3950 C.2     1  UNL1        0.0765
     15 C         -25.6420    4.0930   27.1230 C.2     1  UNL1        0.2664
     16 N         -25.6140    5.2520   26.4490 N.am    1  UNL1       -0.1997
     17 C         -25.0260    6.4790   26.9630 C.3     1  UNL1        0.1388
     18 O         -25.1430    3.9660   28.2430 O.2     1  UNL1       -0.2683
     19 C         -27.4380    3.0910   25.6450 C.2     1  UNL1        0.1067
     20 N         -28.0750    2.0890   25.0030 N.2     1  UNL1       -0.2081
     21 C         -27.5430    0.8490   25.0790 C.2     1  UNL1        0.2533
     22 O         -28.1930   -0.2080   24.4770 O.2     1  UNL1       -0.4558
     23 C         -29.4600    0.0050   23.8660 C.3     1  UNL1        0.2426
     24 C         -30.0650   -1.3770   23.5730 C.3     1  UNL1        0.2292
     25 O         -30.7290   -1.8780   24.7210 O.3     1  UNL1       -0.2162
     26 C         -26.3540    0.5760   25.7770 C.2     1  UNL1        0.1930
     27 F         -25.8600   -0.6810   25.7950 F       1  UNL1       -0.1992
     28 O         -28.4148   -0.8722   28.8944 O.3     1  UNL1       -0.2129
     29 C         -30.3101    0.2921   30.7882 C.3     1  UNL1        0.1149
     30 O         -27.3305    2.0458   30.0532 O.2     1  UNL1       -0.2721
     31 F         -21.0893    1.4944   27.2322 F       1  UNL1       -0.2057
     32 C         -24.5357    0.6167   28.3026 C.2     1  UNL1       -0.0026
     33 C         -25.5408   -0.1682   29.1259 C.3     1  UNL1        0.0661
     34 C         -28.8650    1.1434   32.6002 C.3     1  UNL1        0.0936
     35 C         -27.8760    0.9837   30.1363 C.2     1  UNL1        0.2565
     36 C         -23.1327    0.6642   28.5473 C.3     1  UNL1        0.2288
     37 C         -23.3431    1.8086   26.5364 C.2     1  UNL1        0.0278
     38 N         -28.9642    0.7773   31.1542 N.am    1  UNL1       -0.2757
     39 C         -29.9329    2.1709   33.0242 C.3     1  UNL1        0.0233
     40 F         -22.5191    0.1648   29.6555 F       1  UNL1       -0.2254
     41 C         -22.4122    1.3498   27.4389 C.2     1  UNL1        0.1540
     42 C         -24.6241    1.3846   27.0591 C.2     1  UNL1       -0.0004
     43 C         -27.1894   -0.1893   29.2944 C.3     1  UNL1        0.2316
@<TRIPOS>BOND
     1     1    33    1
     2     2     7    1
     3     2     1    1
     4     3     2    2
     5     4     3    1
     6     4     5    2
     7     5     6    1
     8     6     7    2
     9     8     1    1
    10     8     9    1
    11     8    12    1
    12     9    10    1
    13    10    11    1
    14    12    11    1
    15    13    42    1
    16    14    13    1
    17    14    15    1
    18    15    18    2
    19    16    17    1
    20    16    15    1
    21    19    14    2
    22    20    21    2
    23    20    19    1
    24    21    26    1
    25    22    21    1
    26    23    22    1
    27    24    23    1
    28    24    25    1
    29    26    27    1
    30    26    13    2
    31    29    38    1
    32    30    35    2
    33    31    41    1
    34    32    36    1
    35    32    33    1
    36    33    43    1
    37    34    39    1
    38    35    38   am
    39    36    40    1
    40    37    42    1
    41    37    41    2
    42    38    34    1
    43    41    36    1
    44    42    32    2
    45    43    28    1
    46    43    35    1
