@<TRIPOS>MOLECULE
No_1860-gen_results/8p0m/2024-11-27-11-27-31/
 9 9 0 0 0
SMALL
GASTEIGER

@<TRIPOS>ATOM
      1 C         -28.0162   -0.8135   28.8779 C.3     1  UNL1        0.0043
      2 C         -27.0636   -0.1189   28.6079 C.3     1  UNL1        0.0217
      3 C         -25.7923   -0.4302   29.0761 C.2     1  UNL1       -0.0485
      4 C         -24.6321    0.3096   28.7290 C.2     1  UNL1       -0.0343
      5 C         -27.8949   -1.8615   29.8946 C.3     1  UNL1        0.0006
      6 C         -29.0727   -2.6684   30.2454 C.3     1  UNL1        0.0000
      7 C         -23.2933    0.0362   29.2634 C.3     1  UNL1        0.0300
      8 C         -26.6341   -2.2130   30.4098 C.3     1  UNL1        0.0043
      9 C         -25.5111   -1.5025   29.9781 C.3     1  UNL1        0.0217
@<TRIPOS>BOND
     1     1     2    1
     2     2     3    1
     3     3     4    2
     4     1     5    1
     5     5     6    1
     6     4     7    1
     7     5     8    1
     8     3     9    1
     9     8     9    1
