@<TRIPOS>MOLECULE
No_1862-gen_results/8p0m/2024-11-27-11-27-31/
 15 15 0 0 0
SMALL
GASTEIGER

@<TRIPOS>ATOM
      1 C         -28.0162   -0.8135   28.8779 C.ar    1  UNL1        0.0369
      2 C         -27.0636   -0.1190   28.6079 C.ar    1  UNL1        0.0031
      3 C         -25.7923   -0.4302   29.0761 C.ar    1  UNL1       -0.0001
      4 C         -25.5756   -1.5654   29.9363 C.ar    1  UNL1        0.0031
      5 C         -26.7354   -2.3004   30.2173 C.ar    1  UNL1        0.0369
      6 C         -27.9184   -1.9537   29.7629 C.ar    1  UNL1        0.1390
      7 O         -29.0771   -2.5397   30.1000 O.3     1  UNL1       -0.4666
      8 C         -29.0579   -3.8748   30.4758 C.3     1  UNL1        0.3081
      9 C         -30.3490   -4.5111   30.0912 C.3     1  UNL1        0.4380
     10 F         -31.2210   -4.0153   30.6642 F       1  UNL1       -0.1663
     11 F         -30.2077   -5.8260   30.5200 F       1  UNL1       -0.1663
     12 F         -30.5148   -4.6769   28.7600 F       1  UNL1       -0.1663
     13 C         -24.7006    0.5443   28.7200 C.2     1  UNL1       -0.0046
     14 C         -23.4808    0.3401   29.2763 C.2     1  UNL1       -0.0258
     15 C         -22.3658    1.1178   28.8338 C.3     1  UNL1        0.0307
@<TRIPOS>BOND
     1     6     7    1
     2     7     8    1
     3     8     9    1
     4     9    10    1
     5     9    11    1
     6     9    12    1
     7     3    13    1
     8    13    14    2
     9    14    15    1
    10     1     2   ar
    11     2     3   ar
    12     3     4   ar
    13     4     5   ar
    14     5     6   ar
    15     6     1   ar
