@<TRIPOS>MOLECULE
outputs/IAG933/test6/raw/output_1864_IAG933_linker_design_.xyz
 47 50 0 0 0
SMALL
GASTEIGER

@<TRIPOS>ATOM
      1 C         -24.8550   -1.0120   30.1430 C.3     1  UNL1        0.1986
      2 C         -24.9730   -2.5050   29.7880 C.2     1  UNL1        0.0213
      3 C         -23.9060   -3.1730   29.1460 C.2     1  UNL1       -0.0004
      4 C         -23.9890   -4.5490   28.8530 C.2     1  UNL1       -0.0002
      5 C         -25.1370   -5.2800   29.2050 C.2     1  UNL1       -0.0000
      6 C         -26.2320   -4.6110   29.7840 C.2     1  UNL1       -0.0002
      7 C         -26.1550   -3.2320   30.0650 C.2     1  UNL1       -0.0004
      8 C         -25.3870   -0.6790   31.5710 C.3     1  UNL1        0.1197
      9 C         -25.1890    0.7730   32.0280 C.3     1  UNL1        0.0233
     10 C         -25.3360    0.6840   33.5440 C.3     1  UNL1        0.0204
     11 C         -24.8290   -0.7150   33.9050 C.3     1  UNL1        0.0889
     12 N         -24.7580   -1.4810   32.6460 N.3     1  UNL1       -0.2150
     13 C         -25.6880    1.6140   26.4610 C.2     1  UNL1        0.0447
     14 C         -26.2500    2.9200   26.3950 C.2     1  UNL1        0.0768
     15 C         -25.6420    4.0930   27.1230 C.2     1  UNL1        0.2664
     16 N         -25.6140    5.2520   26.4490 N.am    1  UNL1       -0.1997
     17 C         -25.0260    6.4790   26.9630 C.3     1  UNL1        0.1388
     18 O         -25.1430    3.9660   28.2430 O.2     1  UNL1       -0.2683
     19 C         -27.4380    3.0910   25.6450 C.2     1  UNL1        0.1067
     20 N         -28.0750    2.0890   25.0030 N.2     1  UNL1       -0.2081
     21 C         -27.5430    0.8490   25.0790 C.2     1  UNL1        0.2533
     22 O         -28.1930   -0.2080   24.4770 O.2     1  UNL1       -0.4558
     23 C         -29.4600    0.0050   23.8660 C.3     1  UNL1        0.2426
     24 C         -30.0650   -1.3770   23.5730 C.3     1  UNL1        0.2292
     25 O         -30.7290   -1.8780   24.7210 O.3     1  UNL1       -0.2162
     26 C         -26.3540    0.5760   25.7770 C.2     1  UNL1        0.1933
     27 F         -25.8600   -0.6810   25.7950 F       1  UNL1       -0.1992
     28 C         -29.6828    1.7992   29.3847 C.2     1  UNL1        0.0063
     29 C         -24.5555    0.4680   28.3970 C.2     1  UNL1        0.3757
     30 O         -30.0606   -2.3531   30.1803 O.3     1  UNL1       -0.2199
     31 C         -27.1430   -0.6495   29.0434 C.3     1  UNL1        0.2102
     32 C         -30.1199   -0.2868   28.2352 C.1     1  UNL1        0.1291
     33 N         -25.5886   -0.2666   29.0533 N.pl3   1  UNL1       -0.1851
     34 C         -24.5554    1.2295   27.1642 C.2     1  UNL1        0.0815
     35 C         -28.4135   -0.4105   29.9759 C.3     1  UNL1        0.1122
     36 C         -29.9422    3.7016   27.9135 C.2     1  UNL1        0.0000
     37 C         -29.5790    0.3758   29.2980 C.2     1  UNL1        0.0588
     38 C         -28.5664    3.8901   29.8737 C.2     1  UNL1        0.0000
     39 N         -23.3932    0.3930   28.8660 N.2     1  UNL1        0.1932
     40 C         -30.3074    2.4294   28.3274 C.2     1  UNL1        0.0004
     41 C         -29.1828   -1.4492   30.8019 C.3     1  UNL1        0.1912
     42 O         -30.3562   -1.0277   27.4840 O.2     1  UNL1       -0.2315
     43 C         -23.1743    2.3786   25.4142 C.3     1  UNL1        0.0266
     44 C         -21.8846    1.4649   27.3357 C.3     1  UNL1        0.0266
     45 C         -28.9725    2.6056   30.3074 C.2     1  UNL1        0.0004
     46 C         -29.0242    4.4197   28.6711 C.2     1  UNL1        0.0000
     47 C         -23.2531    1.7012   26.7423 C.2     1  UNL1       -0.0362
@<TRIPOS>BOND
     1     1    33    1
     2     2     7    1
     3     2     1    1
     4     3     2    2
     5     4     3    1
     6     4     5    2
     7     5     6    1
     8     6     7    2
     9     8     1    1
    10     8     9    1
    11     8    12    1
    12     9    10    1
    13    10    11    1
    14    12    11    1
    15    13    34    1
    16    14    13    1
    17    14    15    1
    18    15    18    2
    19    16    17    1
    20    16    15    1
    21    19    14    2
    22    20    21    2
    23    20    19    1
    24    21    26    1
    25    22    21    1
    26    23    22    1
    27    24    23    1
    28    24    25    1
    29    26    27    1
    30    26    13    2
    31    28    45    1
    32    29    39    2
    33    29    33    1
    34    30    41    1
    35    31    33    1
    36    32    37    2
    37    34    29    1
    38    35    31    1
    39    35    41    1
    40    36    40    1
    41    36    46    2
    42    37    28    1
    43    37    35    1
    44    38    45    2
    45    40    28    2
    46    42    32    2
    47    43    47    1
    48    46    38    1
    49    47    34    2
    50    47    44    1
