@<TRIPOS>MOLECULE
No_1866-gen_results/8p0m/2024-11-27-11-27-31/
 35 38 0 0 0
SMALL
GASTEIGER

@<TRIPOS>ATOM
      1 C         -28.0162   -0.8135   28.8779 C.ar    1  UNL1        0.0006
      2 C         -28.4690   -0.7850   29.8287 C.ar    1  UNL1        0.0539
      3 C         -26.5042   -0.7777   28.8766 C.ar    1  UNL1       -0.0176
      4 C         -25.8103   -0.8531   30.1028 C.ar    1  UNL1       -0.0039
      5 C         -27.9906   -0.8916   31.2257 C.ar    1  UNL1        0.0045
      6 C         -26.6042   -0.8676   31.2652 C.ar    1  UNL1       -0.0002
      7 C         -30.0739   -0.8360   29.8615 C.2     1  UNL1        0.2565
      8 O         -30.6891   -1.6554   30.2229 O.2     1  UNL1       -0.2692
      9 N         -30.6139    0.2846   29.2227 N.am    1  UNL1       -0.2339
     10 C         -32.0200    0.3382   29.0215 C.ar    1  UNL1        0.0584
     11 C         -29.8434    1.4262   28.7504 C.ar    1  UNL1        0.0584
     12 C         -30.0696    2.5922   29.5725 C.ar    1  UNL1        0.0149
     13 C         -29.3221    3.5644   29.2493 C.ar    1  UNL1       -0.0030
     14 C         -28.3501    3.6286   28.1794 C.ar    1  UNL1       -0.0218
     15 C         -28.2337    2.4801   27.4449 C.ar    1  UNL1       -0.0030
     16 C         -28.9437    1.3380   27.7818 C.ar    1  UNL1        0.0149
     17 C         -25.6587   -0.7042   27.6763 C.3     1  UNL1        0.0526
     18 C         -25.1522    0.6118   27.3420 C.ar    1  UNL1       -0.0178
     19 C         -24.0446    1.0068   28.0386 C.ar    1  UNL1       -0.0039
     20 C         -23.4126    2.2363   27.5837 C.ar    1  UNL1       -0.0003
     21 C         -23.8232    2.8896   26.4691 C.ar    1  UNL1       -0.0000
     22 C         -25.4614    1.2076   26.1208 C.ar    1  UNL1       -0.0039
     23 C         -24.8305    2.3218   25.6977 C.ar    1  UNL1       -0.0003
     24 C         -27.5560    4.8430   27.8813 C.3     1  UNL1        0.0310
     25 C         -32.8183    0.6342   30.0004 C.ar    1  UNL1        0.0154
     26 C         -34.1185    0.7993   29.8562 C.ar    1  UNL1        0.0059
     27 C         -32.4563    0.0671   27.7472 C.ar    1  UNL1        0.0154
     28 C         -33.7972    0.1880   27.4946 C.ar    1  UNL1        0.0059
     29 C         -34.6528    0.5501   28.5540 C.ar    1  UNL1        0.0551
     30 C         -36.1155    0.6279   28.2633 C.2     1  UNL1        0.2651
     31 N         -36.9232    1.1684   29.0523 N.am    1  UNL1       -0.1968
     32 O         -36.5824    0.1707   27.1879 O.2     1  UNL1       -0.2684
     33 C         -38.3424    1.2784   28.8810 C.3     1  UNL1        0.1415
     34 C         -39.0066    1.5197   29.9117 C.2     1  UNL1       -0.0029
     35 C         -38.4804    1.9342   31.1216 C.2     1  UNL1       -0.0031
@<TRIPOS>BOND
     1     2     7    1
     2     7     8    2
     3     7     9   am
     4     9    10    1
     5     9    11    1
     6     3    17    1
     7    17    18    1
     8    14    24    1
     9    29    30    1
    10    30    31   am
    11    30    32    2
    12    31    33    1
    13    33    34    1
    14    34    35    2
    15    11    12   ar
    16    12    13   ar
    17    13    14   ar
    18    14    15   ar
    19    15    16   ar
    20    16    11   ar
    21    18    19   ar
    22    19    20   ar
    23    20    21   ar
    24    21    23   ar
    25    23    22   ar
    26    22    18   ar
    27     1     2   ar
    28     2     5   ar
    29     5     6   ar
    30     6     4   ar
    31     4     3   ar
    32     3     1   ar
    33    10    25   ar
    34    25    26   ar
    35    26    29   ar
    36    29    28   ar
    37    28    27   ar
    38    27    10   ar
