@<TRIPOS>MOLECULE
No_1867-gen_results/8p0m/2024-11-27-11-27-31/
 11 10 0 0 0
SMALL
GASTEIGER

@<TRIPOS>ATOM
      1 CL        -28.1493   -0.8198   28.9079 Cl      1  UNL1       -0.0413
      2 C         -27.8339    0.4961   29.0598 C.3     1  UNL1        0.3932
      3 F         -27.8833    1.0376   30.1944 F       1  UNL1       -0.1804
      4 C         -26.3797    0.7729   28.5385 C.3     1  UNL1        0.4169
      5 F         -28.6112    1.2493   28.2241 F       1  UNL1       -0.1804
      6 C         -25.8804    2.0485   28.6372 C.3     1  UNL1        0.4615
      7 F         -24.8220    2.1910   28.4092 F       1  UNL1       -0.1648
      8 F         -26.5701    2.8234   27.6401 F       1  UNL1       -0.1648
      9 F         -26.1735    2.6314   29.8224 F       1  UNL1       -0.1648
     10 F         -26.2404    0.3198   27.2769 F       1  UNL1       -0.1876
     11 F         -25.5079   -0.0892   29.2269 F       1  UNL1       -0.1876
@<TRIPOS>BOND
     1     1     2    1
     2     2     3    1
     3     2     4    1
     4     2     5    1
     5     4     6    1
     6     6     7    1
     7     6     8    1
     8     6     9    1
     9     4    10    1
    10     4    11    1
