@<TRIPOS>MOLECULE
outputs/IAG933/test6/raw/output_1869_IAG933_linker_design_.xyz
 41 44 0 0 0
SMALL
GASTEIGER

@<TRIPOS>ATOM
      1 C         -24.8550   -1.0120   30.1430 C.3     1  UNL1        0.2092
      2 C         -24.9730   -2.5050   29.7880 C.2     1  UNL1        0.0219
      3 C         -23.9060   -3.1730   29.1460 C.2     1  UNL1       -0.0004
      4 C         -23.9890   -4.5490   28.8530 C.2     1  UNL1       -0.0002
      5 C         -25.1370   -5.2800   29.2050 C.2     1  UNL1       -0.0000
      6 C         -26.2320   -4.6110   29.7840 C.2     1  UNL1       -0.0002
      7 C         -26.1550   -3.2320   30.0650 C.2     1  UNL1       -0.0004
      8 C         -25.3870   -0.6790   31.5710 C.3     1  UNL1        0.1203
      9 C         -25.1890    0.7730   32.0280 C.3     1  UNL1        0.0233
     10 C         -25.3360    0.6840   33.5440 C.3     1  UNL1        0.0204
     11 C         -24.8290   -0.7150   33.9050 C.3     1  UNL1        0.0889
     12 N         -24.7580   -1.4810   32.6460 N.3     1  UNL1       -0.2150
     13 C         -25.6880    1.6140   26.4610 C.2     1  UNL1        0.0314
     14 C         -26.2500    2.9200   26.3950 C.2     1  UNL1        0.0734
     15 C         -25.6420    4.0930   27.1230 C.2     1  UNL1        0.2661
     16 N         -25.6140    5.2520   26.4490 N.am    1  UNL1       -0.1997
     17 C         -25.0260    6.4790   26.9630 C.3     1  UNL1        0.1388
     18 O         -25.1430    3.9660   28.2430 O.2     1  UNL1       -0.2683
     19 C         -27.4380    3.0910   25.6450 C.2     1  UNL1        0.1064
     20 N         -28.0750    2.0890   25.0030 N.2     1  UNL1       -0.2081
     21 C         -27.5430    0.8490   25.0790 C.2     1  UNL1        0.2530
     22 O         -28.1930   -0.2080   24.4770 O.2     1  UNL1       -0.4558
     23 C         -29.4600    0.0050   23.8660 C.3     1  UNL1        0.2426
     24 C         -30.0650   -1.3770   23.5730 C.3     1  UNL1        0.2292
     25 O         -30.7290   -1.8780   24.7210 O.3     1  UNL1       -0.2162
     26 C         -26.3540    0.5760   25.7770 C.2     1  UNL1        0.1900
     27 F         -25.8600   -0.6810   25.7950 F       1  UNL1       -0.1996
     28 N         -25.2774   -0.0674   29.1542 N.am    1  UNL1       -0.1035
     29 C         -22.9673    1.5282   26.6579 C.2     1  UNL1        0.0731
     30 C         -24.2125    0.5007   28.4180 C.2     1  UNL1        0.3174
     31 N         -23.0248    0.1584   28.9888 N.2     1  UNL1       -0.0395
     32 C         -24.3781    1.2662   27.2925 C.3     1  UNL1        0.1595
     33 C         -23.2383    1.8516   25.2629 C.2     1  UNL1        0.3847
     34 O         -27.5457   -0.7159   28.8751 O.co2   1  UNL1       -0.1979
     35 O         -23.3236    3.0957   25.0176 O.co2   1  UNL1       -0.2409
     36 C         -21.7171    1.9115   27.2567 C.2     1  UNL1        0.0071
     37 C         -26.6456    0.2361   29.1593 C.2     1  UNL1        0.5418
     38 O         -23.4071    0.8098   24.5370 O.co2   1  UNL1       -0.2409
     39 C         -21.5903    0.3499   28.8481 C.2     1  UNL1        0.2353
     40 C         -21.0020    1.2395   28.0495 C.2     1  UNL1        0.0504
     41 O         -27.0198    1.3753   29.4115 O.co2   1  UNL1       -0.1979
@<TRIPOS>BOND
     1     1    28    1
     2     2     7    1
     3     2     1    1
     4     3     2    2
     5     4     3    1
     6     4     5    2
     7     5     6    1
     8     6     7    2
     9     8     1    1
    10     8     9    1
    11     8    12    1
    12     9    10    1
    13    10    11    1
    14    12    11    1
    15    14    13    1
    16    14    15    1
    17    15    18    2
    18    16    17    1
    19    16    15    1
    20    19    14    2
    21    20    21    2
    22    20    19    1
    23    21    26    1
    24    22    21    1
    25    23    22    1
    26    24    23    1
    27    24    25    1
    28    26    27    1
    29    26    13    2
    30    28    37   am
    31    29    36    2
    32    29    32    1
    33    30    31    2
    34    30    28    1
    35    32    13    1
    36    32    30    1
    37    33    29    1
    38    34    37   ar
    39    35    33   ar
    40    36    40    1
    41    37    41   ar
    42    38    33   ar
    43    39    31    1
    44    40    39    2
