@<TRIPOS>MOLECULE
outputs/IAG933/test6/raw/output_187_IAG933_linker_design_.xyz
 45 49 0 0 0
SMALL
GASTEIGER

@<TRIPOS>ATOM
      1 C         -24.8550   -1.0120   30.1430 C.3     1  UNL1        0.0438
      2 C         -24.9730   -2.5050   29.7880 C.2     1  UNL1       -0.0208
      3 C         -23.9060   -3.1730   29.1460 C.2     1  UNL1       -0.0042
      4 C         -23.9890   -4.5490   28.8530 C.2     1  UNL1       -0.0003
      5 C         -25.1370   -5.2800   29.2050 C.2     1  UNL1       -0.0000
      6 C         -26.2320   -4.6110   29.7840 C.2     1  UNL1       -0.0003
      7 C         -26.1550   -3.2320   30.0650 C.2     1  UNL1       -0.0042
      8 C         -25.3870   -0.6790   31.5710 C.3     1  UNL1        0.0811
      9 C         -25.1890    0.7730   32.0280 C.3     1  UNL1        0.0647
     10 C         -25.3360    0.6840   33.5440 C.3     1  UNL1        0.0243
     11 C         -24.8290   -0.7150   33.9050 C.3     1  UNL1        0.0888
     12 N         -24.7580   -1.4810   32.6460 N.3     1  UNL1       -0.2190
     13 C         -25.6880    1.6140   26.4610 C.2     1  UNL1        0.0645
     14 C         -26.2500    2.9200   26.3950 C.2     1  UNL1        0.0766
     15 C         -25.6420    4.0930   27.1230 C.2     1  UNL1        0.2663
     16 N         -25.6140    5.2520   26.4490 N.am    1  UNL1       -0.1997
     17 C         -25.0260    6.4790   26.9630 C.3     1  UNL1        0.1388
     18 O         -25.1430    3.9660   28.2430 O.2     1  UNL1       -0.2683
     19 C         -27.4380    3.0910   25.6450 C.2     1  UNL1        0.1065
     20 N         -28.0750    2.0890   25.0030 N.2     1  UNL1       -0.2081
     21 C         -27.5430    0.8490   25.0790 C.2     1  UNL1        0.2531
     22 O         -28.1930   -0.2080   24.4770 O.2     1  UNL1       -0.4558
     23 C         -29.4600    0.0050   23.8660 C.3     1  UNL1        0.2426
     24 C         -30.0650   -1.3770   23.5730 C.3     1  UNL1        0.2292
     25 O         -30.7290   -1.8780   24.7210 O.3     1  UNL1       -0.2162
     26 C         -26.3540    0.5760   25.7770 C.2     1  UNL1        0.1931
     27 F         -25.8600   -0.6810   25.7950 F       1  UNL1       -0.1994
     28 C         -26.5376    7.4892   34.6004 C.2     1  UNL1       -0.0000
     29 N         -24.4195    1.4000   29.9135 N.pl3   1  UNL1       -0.0360
     30 C         -23.8630    0.7092   28.9743 C.2     1  UNL1        0.3582
     31 C         -22.2498    1.4244   27.4271 C.2     1  UNL1        0.1299
     32 C         -22.5069    0.8187   28.6420 C.2     1  UNL1        0.1179
     33 F         -21.0245    1.7193   27.0357 F       1  UNL1       -0.2084
     34 C         -23.2746    1.7711   26.5986 C.3     1  UNL1        0.1147
     35 N         -24.6369    0.3412   28.0279 N.2     1  UNL1       -0.0615
     36 C         -25.0257    5.9044   33.5927 C.2     1  UNL1       -0.0043
     37 C         -24.5377    3.2867   31.2173 C.3     1  UNL1        0.0513
     38 C         -27.3379    5.8246   33.0944 C.2     1  UNL1       -0.0043
     39 C         -25.2018    4.3050   30.7902 C.3     1  UNL1        0.0089
     40 C         -26.0788    5.5491   32.7249 C.2     1  UNL1       -0.0222
     41 C         -24.7907    1.7339   31.0628 C.3     1  UNL1        0.2063
     42 C         -24.4734    1.2416   27.0144 C.3     1  UNL1        0.2464
     43 C         -25.2859    6.8713   34.5375 C.2     1  UNL1       -0.0003
     44 C         -27.5805    6.8920   33.8929 C.2     1  UNL1       -0.0003
     45 C         -26.1032    5.0025   31.3518 C.3     1  UNL1        0.0265
@<TRIPOS>BOND
     1     2     7    1
     2     2     1    1
     3     3     2    2
     4     4     3    1
     5     4     5    2
     6     5     6    1
     7     6     7    2
     8     8     1    1
     9     8     9    1
    10     8    12    1
    11     9    41    1
    12     9    10    1
    13    10    11    1
    14    12    11    1
    15    14    13    1
    16    14    15    1
    17    15    18    2
    18    16    17    1
    19    16    15    1
    20    19    14    2
    21    20    21    2
    22    20    19    1
    23    21    26    1
    24    22    21    1
    25    23    22    1
    26    24    23    1
    27    24    25    1
    28    26    27    1
    29    26    13    2
    30    29    41    1
    31    30    29    1
    32    31    32    2
    33    32    30    1
    34    33    31    1
    35    34    42    1
    36    34    31    1
    37    35    30    2
    38    36    43    2
    39    38    44    1
    40    39    37    1
    41    39    45    1
    42    40    38    2
    43    40    36    1
    44    41    37    1
    45    42    13    1
    46    42    35    1
    47    43    28    1
    48    44    28    2
    49    45    40    1
