@<TRIPOS>MOLECULE
outputs/IAG933/test6/raw/output_1870_IAG933_linker_design_.xyz
 43 47 0 0 0
SMALL
GASTEIGER

@<TRIPOS>ATOM
      1 C         -24.8550   -1.0120   30.1430 C.3     1  UNL1        0.0962
      2 C         -24.9730   -2.5050   29.7880 C.2     1  UNL1       -0.0064
      3 C         -23.9060   -3.1730   29.1460 C.2     1  UNL1       -0.0029
      4 C         -23.9890   -4.5490   28.8530 C.2     1  UNL1       -0.0003
      5 C         -25.1370   -5.2800   29.2050 C.2     1  UNL1       -0.0000
      6 C         -26.2320   -4.6110   29.7840 C.2     1  UNL1       -0.0003
      7 C         -26.1550   -3.2320   30.0650 C.2     1  UNL1       -0.0029
      8 C         -25.3870   -0.6790   31.5710 C.3     1  UNL1        0.0916
      9 C         -25.1890    0.7730   32.0280 C.3     1  UNL1        0.0206
     10 C         -25.3360    0.6840   33.5440 C.3     1  UNL1        0.0203
     11 C         -24.8290   -0.7150   33.9050 C.3     1  UNL1        0.0888
     12 N         -24.7580   -1.4810   32.6460 N.3     1  UNL1       -0.2178
     13 C         -25.6880    1.6140   26.4610 C.2     1  UNL1        0.0174
     14 C         -26.2500    2.9200   26.3950 C.2     1  UNL1        0.0726
     15 C         -25.6420    4.0930   27.1230 C.2     1  UNL1        0.2661
     16 N         -25.6140    5.2520   26.4490 N.am    1  UNL1       -0.1997
     17 C         -25.0260    6.4790   26.9630 C.3     1  UNL1        0.1388
     18 O         -25.1430    3.9660   28.2430 O.2     1  UNL1       -0.2683
     19 C         -27.4380    3.0910   25.6450 C.2     1  UNL1        0.1064
     20 N         -28.0750    2.0890   25.0030 N.2     1  UNL1       -0.2081
     21 C         -27.5430    0.8490   25.0790 C.2     1  UNL1        0.2530
     22 O         -28.1930   -0.2080   24.4770 O.2     1  UNL1       -0.4558
     23 C         -29.4600    0.0050   23.8660 C.3     1  UNL1        0.2426
     24 C         -30.0650   -1.3770   23.5730 C.3     1  UNL1        0.2292
     25 O         -30.7290   -1.8780   24.7210 O.3     1  UNL1       -0.2162
     26 C         -26.3540    0.5760   25.7770 C.2     1  UNL1        0.1892
     27 F         -25.8600   -0.6810   25.7950 F       1  UNL1       -0.1996
     28 C         -24.2798    0.0493   28.1407 C.3     1  UNL1        0.0629
     29 O         -27.1960    3.9090   30.0684 O.3     1  UNL1       -0.3538
     30 C         -23.1928    1.9607   27.5681 C.3     1  UNL1        0.0979
     31 N         -25.2991    0.0279   29.1839 N.3     1  UNL1       -0.2702
     32 C         -26.6132   -0.2749   28.5529 C.3     1  UNL1        0.0724
     33 C         -24.4911    1.2830   27.2734 C.3     1  UNL1        0.0493
     34 F         -21.2340    1.6266   26.2292 F       1  UNL1       -0.1636
     35 C         -29.2252    2.9776   31.0363 C.3     1  UNL1        0.0322
     36 C         -26.7783    2.6500   30.6003 C.3     1  UNL1        0.1421
     37 O         -23.0793    1.9929   25.2267 O.2     1  UNL1       -0.2591
     38 C         -28.9974    1.9951   29.9211 C.3     1  UNL1        0.0051
     39 C         -27.5915    1.5815   29.7863 C.3     1  UNL1        0.0311
     40 C         -28.4770    4.2805   30.6554 C.3     1  UNL1        0.1422
     41 C         -22.9335    0.8265   28.5206 C.3     1  UNL1        0.0269
     42 C         -22.4802    1.8257   26.3045 C.2     1  UNL1        0.3105
     43 C         -27.6753    0.0215   29.5543 C.3     1  UNL1        0.0198
@<TRIPOS>BOND
     1     1    31    1
     2     2     7    1
     3     2     1    1
     4     3     2    2
     5     4     3    1
     6     4     5    2
     7     5     6    1
     8     6     7    2
     9     8     1    1
    10     8     9    1
    11     8    12    1
    12     9    10    1
    13    10    11    1
    14    12    11    1
    15    14    13    1
    16    14    15    1
    17    15    18    2
    18    16    17    1
    19    16    15    1
    20    19    14    2
    21    20    21    2
    22    20    19    1
    23    21    26    1
    24    22    21    1
    25    23    22    1
    26    24    23    1
    27    24    25    1
    28    26    27    1
    29    26    13    2
    30    28    41    1
    31    28    31    1
    32    29    36    1
    33    29    40    1
    34    30    42    1
    35    30    41    1
    36    32    31    1
    37    32    43    1
    38    33    13    1
    39    33    30    1
    40    33    28    1
    41    34    42    1
    42    37    42    2
    43    38    35    1
    44    39    43    1
    45    39    38    1
    46    39    36    1
    47    40    35    1
