@<TRIPOS>MOLECULE
outputs/IAG933/test6/raw/output_1872_IAG933_linker_design_.xyz
 45 49 0 0 0
SMALL
GASTEIGER

@<TRIPOS>ATOM
      1 C         -24.8550   -1.0120   30.1430 C.3     1  UNL1        0.1533
      2 C         -24.9730   -2.5050   29.7880 C.2     1  UNL1        0.0059
      3 C         -23.9060   -3.1730   29.1460 C.2     1  UNL1       -0.0019
      4 C         -23.9890   -4.5490   28.8530 C.2     1  UNL1       -0.0002
      5 C         -25.1370   -5.2800   29.2050 C.2     1  UNL1       -0.0000
      6 C         -26.2320   -4.6110   29.7840 C.2     1  UNL1       -0.0002
      7 C         -26.1550   -3.2320   30.0650 C.2     1  UNL1       -0.0019
      8 C         -25.3870   -0.6790   31.5710 C.3     1  UNL1        0.1041
      9 C         -25.1890    0.7730   32.0280 C.3     1  UNL1        0.0217
     10 C         -25.3360    0.6840   33.5440 C.3     1  UNL1        0.0203
     11 C         -24.8290   -0.7150   33.9050 C.3     1  UNL1        0.0888
     12 N         -24.7580   -1.4810   32.6460 N.3     1  UNL1       -0.2166
     13 C         -25.6880    1.6140   26.4610 C.3     1  UNL1        0.1436
     14 C         -26.2500    2.9200   26.3950 C.2     1  UNL1        0.0730
     15 C         -25.6420    4.0930   27.1230 C.2     1  UNL1        0.2640
     16 N         -25.6140    5.2520   26.4490 N.am    1  UNL1       -0.1999
     17 C         -25.0260    6.4790   26.9630 C.3     1  UNL1        0.1388
     18 O         -25.1430    3.9660   28.2430 O.2     1  UNL1       -0.2686
     19 C         -27.4380    3.0910   25.6450 C.2     1  UNL1        0.1038
     20 N         -28.0750    2.0890   25.0030 N.2     1  UNL1       -0.2118
     21 C         -27.5430    0.8490   25.0790 C.2     1  UNL1        0.2358
     22 O         -28.1930   -0.2080   24.4770 O.2     1  UNL1       -0.4585
     23 C         -29.4600    0.0050   23.8660 C.3     1  UNL1        0.2423
     24 C         -30.0650   -1.3770   23.5730 C.3     1  UNL1        0.2292
     25 O         -30.7290   -1.8780   24.7210 O.3     1  UNL1       -0.2162
     26 C         -26.3540    0.5760   25.7770 C.3     1  UNL1        0.2580
     27 F         -25.8600   -0.6810   25.7950 F       1  UNL1       -0.2251
     28 O         -23.3948   -0.9369   30.2651 O.3     1  UNL1       -0.3503
     29 C         -22.0483    0.2380   28.8702 C.3     1  UNL1        0.0694
     30 C         -23.1534    1.3728   26.9755 C.3     1  UNL1        0.1014
     31 C         -24.0398    1.6659   29.0779 C.2     1  UNL1        0.2091
     32 C         -24.0239    2.0960   24.8908 C.2     1  UNL1        0.0618
     33 C         -23.2698    0.7476   28.2670 C.3     1  UNL1        0.0918
     34 C         -20.6286   -0.2946   28.4508 C.3     1  UNL1        0.1576
     35 C         -21.7454    2.4608   25.3415 C.2     1  UNL1       -0.0033
     36 O         -19.5450    2.3253   26.6940 O.3     1  UNL1       -0.3494
     37 C         -22.8054    2.4584   24.4693 C.2     1  UNL1        0.0153
     38 N         -24.2014    1.6478   26.1581 N.pl3   1  UNL1       -0.2991
     39 C         -20.5243    1.7225   27.1781 C.3     1  UNL1        0.1377
     40 C         -22.4379    0.1307   30.1988 C.3     1  UNL1        0.1455
     41 O         -21.1487   -1.0515   28.7340 O.3     1  UNL1       -0.2230
     42 C         -19.9431    0.3694   27.5934 C.3     1  UNL1        0.0668
     43 O         -23.4340    2.2809   29.9796 O.2     1  UNL1       -0.2882
     44 C         -21.8769    1.7830   26.5393 C.2     1  UNL1        0.0007
     45 C         -18.5769    2.5932   27.7395 C.3     1  UNL1        0.1744
@<TRIPOS>BOND
     1     1    28    1
     2     2     7    1
     3     2     1    1
     4     3     2    2
     5     4     3    1
     6     4     5    2
     7     5     6    1
     8     6     7    2
     9     8     1    1
    10     8     9    1
    11     8    12    1
    12     9    10    1
    13    10    11    1
    14    12    11    1
    15    13    38    1
    16    14    13    1
    17    14    15    1
    18    15    18    2
    19    16    17    1
    20    16    15    1
    21    19    14    2
    22    20    21    2
    23    20    19    1
    24    21    26    1
    25    22    21    1
    26    23    22    1
    27    24    23    1
    28    24    25    1
    29    26    27    1
    30    26    13    1
    31    29    40    1
    32    30    44    1
    33    30    33    1
    34    31    43    2
    35    32    38    1
    36    33    29    1
    37    33    31    1
    38    34    41    1
    39    34    29    1
    40    35    44    2
    41    36    45    1
    42    37    32    2
    43    37    35    1
    44    38    30    1
    45    39    36    1
    46    39    42    1
    47    40    28    1
    48    42    34    1
    49    44    39    1
