@<TRIPOS>MOLECULE
No_1873-gen_results/8p0m/2024-11-27-11-27-31/
 15 15 0 0 0
SMALL
GASTEIGER

@<TRIPOS>ATOM
      1 F         -28.0727   -1.2542   28.5316 F       1  UNL1       -0.1659
      2 C         -27.3591   -0.3792   28.7224 C.3     1  UNL1        0.4184
      3 F         -26.9761   -0.0935   27.6617 F       1  UNL1       -0.1659
      4 F         -27.9492    0.6817   29.3005 F       1  UNL1       -0.1659
      5 C         -26.1141   -0.8610   29.4268 C.ar    1  UNL1        0.0698
      6 C         -26.0833   -1.0524   30.6817 C.ar    1  UNL1        0.0112
      7 C         -24.8571   -1.4828   31.3414 C.ar    1  UNL1       -0.0019
      8 C         -23.7070   -1.5422   30.5822 C.ar    1  UNL1       -0.0003
      9 C         -24.8461   -0.8654   28.7429 C.ar    1  UNL1        0.0036
     10 C         -23.6602   -1.2226   29.2957 C.ar    1  UNL1       -0.0001
     11 C         -27.2778   -1.1319   31.5349 C.3     1  UNL1        0.1686
     12 O         -28.3334   -0.5192   31.2642 O.3     1  UNL1       -0.3477
     13 C         -29.5072   -0.8134   32.0262 C.3     1  UNL1        0.1601
     14 C         -30.5604   -0.5010   31.5057 C.3     1  UNL1        0.1268
     15 CL        -31.6951   -0.8597   31.2465 Cl      1  UNL1       -0.1110
@<TRIPOS>BOND
     1     1     2    1
     2     2     3    1
     3     2     4    1
     4     2     5    1
     5     6    11    1
     6    11    12    1
     7    12    13    1
     8    13    14    1
     9    14    15    1
    10     5     6   ar
    11     6     7   ar
    12     7     8   ar
    13     8    10   ar
    14    10     9   ar
    15     9     5   ar
