@<TRIPOS>MOLECULE
outputs/IAG933/test6/raw/output_1876_IAG933_linker_design_.xyz
 41 45 0 0 0
SMALL
GASTEIGER

@<TRIPOS>ATOM
      1 C         -24.8550   -1.0120   30.1430 C.3     1  UNL1        0.0495
      2 C         -24.9730   -2.5050   29.7880 C.2     1  UNL1       -0.0204
      3 C         -23.9060   -3.1730   29.1460 C.2     1  UNL1       -0.0042
      4 C         -23.9890   -4.5490   28.8530 C.2     1  UNL1       -0.0003
      5 C         -25.1370   -5.2800   29.2050 C.2     1  UNL1       -0.0000
      6 C         -26.2320   -4.6110   29.7840 C.2     1  UNL1       -0.0003
      7 C         -26.1550   -3.2320   30.0650 C.2     1  UNL1       -0.0042
      8 C         -25.3870   -0.6790   31.5710 C.3     1  UNL1        0.0775
      9 C         -25.1890    0.7730   32.0280 C.3     1  UNL1        0.0192
     10 C         -25.3360    0.6840   33.5440 C.3     1  UNL1        0.0202
     11 C         -24.8290   -0.7150   33.9050 C.3     1  UNL1        0.0887
     12 N         -24.7580   -1.4810   32.6460 N.3     1  UNL1       -0.2191
     13 C         -25.6880    1.6140   26.4610 C.2     1  UNL1        0.0724
     14 C         -26.2500    2.9200   26.3950 C.2     1  UNL1        0.0795
     15 C         -25.6420    4.0930   27.1230 C.2     1  UNL1        0.2665
     16 N         -25.6140    5.2520   26.4490 N.am    1  UNL1       -0.1997
     17 C         -25.0260    6.4790   26.9630 C.3     1  UNL1        0.1388
     18 O         -25.1430    3.9660   28.2430 O.2     1  UNL1       -0.2683
     19 C         -27.4380    3.0910   25.6450 C.2     1  UNL1        0.1068
     20 N         -28.0750    2.0890   25.0030 N.2     1  UNL1       -0.2081
     21 C         -27.5430    0.8490   25.0790 C.2     1  UNL1        0.2534
     22 O         -28.1930   -0.2080   24.4770 O.2     1  UNL1       -0.4558
     23 C         -29.4600    0.0050   23.8660 C.3     1  UNL1        0.2426
     24 C         -30.0650   -1.3770   23.5730 C.3     1  UNL1        0.2292
     25 O         -30.7290   -1.8780   24.7210 O.3     1  UNL1       -0.2162
     26 C         -26.3540    0.5760   25.7770 C.2     1  UNL1        0.1960
     27 F         -25.8600   -0.6810   25.7950 F       1  UNL1       -0.1991
     28 C         -22.3802    1.4117   27.5510 C.ar    1  UNL1        0.1738
     29 C         -25.4154   -0.0425   29.0992 C.3     1  UNL1        0.0912
     30 N         -20.2281    0.7807   28.2987 N.3     1  UNL1       -0.1674
     31 C         -26.8149    0.2198   29.0816 C.2     1  UNL1        0.1549
     32 O         -27.6853   -0.6544   28.9496 O.2     1  UNL1       -0.2957
     33 C         -22.9619    0.4737   28.3714 C.ar    1  UNL1        0.1713
     34 C         -27.3645    1.6657   29.3851 C.3     1  UNL1        0.0649
     35 O         -23.2868    1.9721   26.7846 O.2     1  UNL1       -0.4534
     36 C         -20.9904    1.6037   27.5862 C.3     1  UNL1        0.1598
     37 C         -24.5006    1.3875   27.1486 C.ar    1  UNL1        0.1468
     38 C         -28.7414    1.7419   28.8039 C.3     1  UNL1        0.0082
     39 C         -21.0053   -0.1500   28.8446 C.3     1  UNL1        0.2994
     40 C         -24.4058    0.5707   28.1965 C.ar    1  UNL1        0.0561
     41 O         -22.2392   -0.2778   29.1597 O.3     1  UNL1       -0.4544
@<TRIPOS>BOND
     1     1    29    1
     2     2     7    1
     3     2     1    1
     4     3     2    2
     5     4     3    1
     6     4     5    2
     7     5     6    1
     8     6     7    2
     9     8     1    1
    10     8     9    1
    11     8    12    1
    12     9    10    1
    13    10    11    1
    14    12    11    1
    15    13    37    1
    16    14    13    1
    17    14    15    1
    18    15    18    2
    19    16    17    1
    20    16    15    1
    21    19    14    2
    22    20    21    2
    23    20    19    1
    24    21    26    1
    25    22    21    1
    26    23    22    1
    27    24    23    1
    28    24    25    1
    29    26    27    1
    30    26    13    2
    31    28    36    1
    32    28    33   ar
    33    29    31    1
    34    30    39    1
    35    31    34    1
    36    32    31    2
    37    33    41    1
    38    35    37   ar
    39    35    28   ar
    40    36    30    1
    41    37    40   ar
    42    38    34    1
    43    39    41    1
    44    40    33   ar
    45    40    29    1
