@<TRIPOS>MOLECULE
outputs/IAG933/test6/raw/output_1879_IAG933_linker_design_.xyz
 43 48 0 0 0
SMALL
GASTEIGER

@<TRIPOS>ATOM
      1 C         -24.8550   -1.0120   30.1430 C.3     1  UNL1        0.0998
      2 C         -24.9730   -2.5050   29.7880 C.2     1  UNL1       -0.0063
      3 C         -23.9060   -3.1730   29.1460 C.2     1  UNL1       -0.0029
      4 C         -23.9890   -4.5490   28.8530 C.2     1  UNL1       -0.0003
      5 C         -25.1370   -5.2800   29.2050 C.2     1  UNL1       -0.0000
      6 C         -26.2320   -4.6110   29.7840 C.2     1  UNL1       -0.0003
      7 C         -26.1550   -3.2320   30.0650 C.2     1  UNL1       -0.0029
      8 C         -25.3870   -0.6790   31.5710 C.3     1  UNL1        0.0917
      9 C         -25.1890    0.7730   32.0280 C.3     1  UNL1        0.0206
     10 C         -25.3360    0.6840   33.5440 C.3     1  UNL1        0.0203
     11 C         -24.8290   -0.7150   33.9050 C.3     1  UNL1        0.0888
     12 N         -24.7580   -1.4810   32.6460 N.3     1  UNL1       -0.2178
     13 C         -25.6880    1.6140   26.4610 C.2     1  UNL1        0.0379
     14 C         -26.2500    2.9200   26.3950 C.2     1  UNL1        0.0764
     15 C         -25.6420    4.0930   27.1230 C.2     1  UNL1        0.2664
     16 N         -25.6140    5.2520   26.4490 N.am    1  UNL1       -0.1997
     17 C         -25.0260    6.4790   26.9630 C.3     1  UNL1        0.1388
     18 O         -25.1430    3.9660   28.2430 O.2     1  UNL1       -0.2683
     19 C         -27.4380    3.0910   25.6450 C.2     1  UNL1        0.1067
     20 N         -28.0750    2.0890   25.0030 N.2     1  UNL1       -0.2081
     21 C         -27.5430    0.8490   25.0790 C.2     1  UNL1        0.2533
     22 O         -28.1930   -0.2080   24.4770 O.2     1  UNL1       -0.4558
     23 C         -29.4600    0.0050   23.8660 C.3     1  UNL1        0.2426
     24 C         -30.0650   -1.3770   23.5730 C.3     1  UNL1        0.2292
     25 O         -30.7290   -1.8780   24.7210 O.3     1  UNL1       -0.2162
     26 C         -26.3540    0.5760   25.7770 C.2     1  UNL1        0.1929
     27 F         -25.8600   -0.6810   25.7950 F       1  UNL1       -0.1992
     28 C         -22.8215    0.4329   28.6039 C.2     1  UNL1        0.0261
     29 C         -26.5344    0.5394   29.1340 C.3     1  UNL1        0.2471
     30 N         -25.2311   -0.0121   29.1337 N.3     1  UNL1       -0.2269
     31 F         -20.8628    1.3722   27.7215 F       1  UNL1       -0.2021
     32 C         -24.4160    1.2557   27.2053 C.2     1  UNL1        0.0288
     33 C         -23.0617    1.7956   26.8907 C.2     1  UNL1        0.1648
     34 N         -26.4589    1.9530   29.3103 N.3     1  UNL1       -0.2082
     35 C         -29.0373    1.4259   29.8004 C.3     1  UNL1        0.0524
     36 C         -22.1883    1.2095   27.7228 C.2     1  UNL1        0.1645
     37 O         -27.6269    3.6532   31.3274 O.3     1  UNL1       -0.2034
     38 CA        -28.1638    2.5453   29.3518 C.3     1  UNL1        0.1118
     39 F         -22.6892    2.5311   25.9484 F       1  UNL1       -0.2021
     40 C         -27.1082    3.1043   30.0100 C.3     1  UNL1        0.2303
     41 C         -28.9390    0.2345   28.8490 C.3     1  UNL1        0.1467
     42 C         -24.2591    0.4900   28.2828 C.3     1  UNL1        0.1105
     43 O         -27.5949   -0.3347   28.8025 O.3     1  UNL1       -0.3277
@<TRIPOS>BOND
     1     1    30    1
     2     2     7    1
     3     2     1    1
     4     3     2    2
     5     4     3    1
     6     4     5    2
     7     5     6    1
     8     6     7    2
     9     8     1    1
    10     8     9    1
    11     8    12    1
    12     9    10    1
    13    10    11    1
    14    12    11    1
    15    13    32    1
    16    14    13    1
    17    14    15    1
    18    15    18    2
    19    16    17    1
    20    16    15    1
    21    19    14    2
    22    20    21    2
    23    20    19    1
    24    21    26    1
    25    22    21    1
    26    23    22    1
    27    24    23    1
    28    24    25    1
    29    26    27    1
    30    26    13    2
    31    29    30    1
    32    29    34    1
    33    31    36    1
    34    32    42    1
    35    33    32    2
    36    33    36    1
    37    34    38    1
    38    34    40    1
    39    36    28    2
    40    38    35    1
    41    38    40    1
    42    39    33    1
    43    40    37    1
    44    41    35    1
    45    42    28    1
    46    42    30    1
    47    43    41    1
    48    43    29    1
