@<TRIPOS>MOLECULE
outputs/IAG933/test6/raw/output_1881_IAG933_linker_design_.xyz
 41 44 0 0 0
SMALL
GASTEIGER

@<TRIPOS>ATOM
      1 C         -24.8550   -1.0120   30.1430 C.3     1  UNL1        0.1117
      2 C         -24.9730   -2.5050   29.7880 C.2     1  UNL1       -0.0051
      3 C         -23.9060   -3.1730   29.1460 C.2     1  UNL1       -0.0029
      4 C         -23.9890   -4.5490   28.8530 C.2     1  UNL1       -0.0003
      5 C         -25.1370   -5.2800   29.2050 C.2     1  UNL1       -0.0000
      6 C         -26.2320   -4.6110   29.7840 C.2     1  UNL1       -0.0003
      7 C         -26.1550   -3.2320   30.0650 C.2     1  UNL1       -0.0029
      8 C         -25.3870   -0.6790   31.5710 C.3     1  UNL1        0.0929
      9 C         -25.1890    0.7730   32.0280 C.3     1  UNL1        0.0206
     10 C         -25.3360    0.6840   33.5440 C.3     1  UNL1        0.0203
     11 C         -24.8290   -0.7150   33.9050 C.3     1  UNL1        0.0888
     12 N         -24.7580   -1.4810   32.6460 N.3     1  UNL1       -0.2177
     13 C         -25.6880    1.6140   26.4610 C.3     1  UNL1        0.1435
     14 C         -26.2500    2.9200   26.3950 C.2     1  UNL1        0.0730
     15 C         -25.6420    4.0930   27.1230 C.2     1  UNL1        0.2640
     16 N         -25.6140    5.2520   26.4490 N.am    1  UNL1       -0.1999
     17 C         -25.0260    6.4790   26.9630 C.3     1  UNL1        0.1388
     18 O         -25.1430    3.9660   28.2430 O.2     1  UNL1       -0.2686
     19 C         -27.4380    3.0910   25.6450 C.2     1  UNL1        0.1038
     20 N         -28.0750    2.0890   25.0030 N.2     1  UNL1       -0.2118
     21 C         -27.5430    0.8490   25.0790 C.2     1  UNL1        0.2358
     22 O         -28.1930   -0.2080   24.4770 O.2     1  UNL1       -0.4585
     23 C         -29.4600    0.0050   23.8660 C.3     1  UNL1        0.2423
     24 C         -30.0650   -1.3770   23.5730 C.3     1  UNL1        0.2292
     25 O         -30.7290   -1.8780   24.7210 O.3     1  UNL1       -0.2162
     26 C         -26.3540    0.5760   25.7770 C.3     1  UNL1        0.2580
     27 F         -25.8600   -0.6810   25.7950 F       1  UNL1       -0.2251
     28 C         -27.0614    1.7009   29.4781 C.2     1  UNL1        0.2470
     29 C         -28.7021    3.4828   30.2205 C.3     1  UNL1        0.1149
     30 N         -27.2732    2.9907   30.2027 N.am    1  UNL1       -0.2764
     31 N         -24.2941    1.5237   26.9295 N.pl3   1  UNL1       -0.3003
     32 C         -25.6139    1.1116   29.2710 C.3     1  UNL1        0.1849
     33 C         -26.1771    3.8911   30.7977 C.3     1  UNL1        0.0936
     34 C         -26.8071    5.3637   30.7995 C.3     1  UNL1        0.0233
     35 C         -21.8255    1.8361   26.5432 C.2     1  UNL1       -0.0047
     36 C         -22.7320    0.7835   28.6178 C.2     1  UNL1        0.0117
     37 O         -28.0021    1.0449   29.1165 O.2     1  UNL1       -0.2730
     38 C         -21.6031    1.2079   27.8450 C.2     1  UNL1       -0.0019
     39 C         -23.1872    1.8457   26.0974 C.3     1  UNL1        0.1175
     40 N         -25.7020   -0.3741   29.1293 N.3     1  UNL1       -0.2005
     41 C         -24.1438    1.1489   28.3558 C.2     1  UNL1        0.0503
@<TRIPOS>BOND
     1     1    40    1
     2     2     7    1
     3     2     1    1
     4     3     2    2
     5     4     3    1
     6     4     5    2
     7     5     6    1
     8     6     7    2
     9     8     1    1
    10     8     9    1
    11     8    12    1
    12     9    10    1
    13    10    11    1
    14    12    11    1
    15    13    31    1
    16    14    13    1
    17    14    15    1
    18    15    18    2
    19    16    17    1
    20    16    15    1
    21    19    14    2
    22    20    21    2
    23    20    19    1
    24    21    26    1
    25    22    21    1
    26    23    22    1
    27    24    23    1
    28    24    25    1
    29    26    27    1
    30    26    13    1
    31    28    30   am
    32    30    29    1
    33    30    33    1
    34    31    41    1
    35    32    40    1
    36    32    28    1
    37    33    34    1
    38    35    38    2
    39    37    28    2
    40    38    36    1
    41    39    35    1
    42    39    31    1
    43    41    36    2
    44    41    32    1
