@<TRIPOS>MOLECULE
outputs/IAG933/test6/raw/output_1884_IAG933_linker_design_.xyz
 39 43 0 0 0
SMALL
GASTEIGER

@<TRIPOS>ATOM
      1 C         -24.8550   -1.0120   30.1430 C.3     1  UNL1        0.1315
      2 C         -24.9730   -2.5050   29.7880 C.2     1  UNL1       -0.0014
      3 C         -23.9060   -3.1730   29.1460 C.2     1  UNL1       -0.0026
      4 C         -23.9890   -4.5490   28.8530 C.2     1  UNL1       -0.0003
      5 C         -25.1370   -5.2800   29.2050 C.2     1  UNL1       -0.0000
      6 C         -26.2320   -4.6110   29.7840 C.2     1  UNL1       -0.0003
      7 C         -26.1550   -3.2320   30.0650 C.2     1  UNL1       -0.0026
      8 C         -25.3870   -0.6790   31.5710 C.3     1  UNL1        0.0966
      9 C         -25.1890    0.7730   32.0280 C.3     1  UNL1        0.0210
     10 C         -25.3360    0.6840   33.5440 C.3     1  UNL1        0.0203
     11 C         -24.8290   -0.7150   33.9050 C.3     1  UNL1        0.0888
     12 N         -24.7580   -1.4810   32.6460 N.3     1  UNL1       -0.2174
     13 C         -25.6880    1.6140   26.4610 C.2     1  UNL1        0.0359
     14 C         -26.2500    2.9200   26.3950 C.2     1  UNL1        0.0740
     15 C         -25.6420    4.0930   27.1230 C.2     1  UNL1        0.2662
     16 N         -25.6140    5.2520   26.4490 N.am    1  UNL1       -0.1997
     17 C         -25.0260    6.4790   26.9630 C.3     1  UNL1        0.1388
     18 O         -25.1430    3.9660   28.2430 O.2     1  UNL1       -0.2683
     19 C         -27.4380    3.0910   25.6450 C.2     1  UNL1        0.1065
     20 N         -28.0750    2.0890   25.0030 N.2     1  UNL1       -0.2081
     21 C         -27.5430    0.8490   25.0790 C.2     1  UNL1        0.2530
     22 O         -28.1930   -0.2080   24.4770 O.2     1  UNL1       -0.4558
     23 C         -29.4600    0.0050   23.8660 C.3     1  UNL1        0.2426
     24 C         -30.0650   -1.3770   23.5730 C.3     1  UNL1        0.2292
     25 O         -30.7290   -1.8780   24.7210 O.3     1  UNL1       -0.2162
     26 C         -26.3540    0.5760   25.7770 C.2     1  UNL1        0.1906
     27 F         -25.8600   -0.6810   25.7950 F       1  UNL1       -0.1995
     28 C         -24.6388    1.1105   27.0462 C.3     1  UNL1        0.1483
     29 O         -21.4143    1.9961   26.4926 O.3     1  UNL1       -0.3235
     30 N         -24.3730   -0.0062   29.3055 N.am    1  UNL1       -0.2007
     31 N         -24.9100    0.1460   27.9525 N.3     1  UNL1       -0.1220
     32 O         -21.3729    0.6516   29.2972 O.3     1  UNL1       -0.2104
     33 C         -22.0442    2.3414   25.2519 C.3     1  UNL1        0.2941
     34 C         -23.5595    0.9476   29.7606 C.2     1  UNL1        0.2732
     35 C         -22.3917    1.5962   27.2019 C.3     1  UNL1        0.1860
     36 C         -22.3525    1.5374   28.7626 C.3     1  UNL1        0.2581
     37 O         -23.3655    2.1427   25.3074 O.3     1  UNL1       -0.3248
     38 C         -23.6239    1.4313   26.4559 C.3     1  UNL1        0.1699
     39 O         -23.6427    1.7541   30.5775 O.2     1  UNL1       -0.2707
@<TRIPOS>BOND
     1     1     2    1
     2     2     7    1
     3     3     2    2
     4     4     3    1
     5     4     5    2
     6     5     6    1
     7     6     7    2
     8     8     1    1
     9     8     9    1
    10     8    12    1
    11     9    10    1
    12    10    11    1
    13    12    11    1
    14    14    13    1
    15    14    15    1
    16    15    18    2
    17    16    17    1
    18    16    15    1
    19    19    14    2
    20    20    21    2
    21    20    19    1
    22    21    26    1
    23    22    21    1
    24    23    22    1
    25    24    23    1
    26    24    25    1
    27    26    27    1
    28    26    13    2
    29    28    13    1
    30    28    31    1
    31    30    34   am
    32    30     1    1
    33    31    30    1
    34    33    37    1
    35    33    29    1
    36    34    39    2
    37    35    29    1
    38    35    36    1
    39    36    32    1
    40    36    34    1
    41    38    37    1
    42    38    28    1
    43    38    35    1
