@<TRIPOS>MOLECULE
outputs/IAG933/test6/raw/output_1885_IAG933_linker_design_.xyz
 42 46 0 0 0
SMALL
GASTEIGER

@<TRIPOS>ATOM
      1 C         -24.8550   -1.0120   30.1430 C.3     1  UNL1        0.0544
      2 C         -24.9730   -2.5050   29.7880 C.2     1  UNL1       -0.0198
      3 C         -23.9060   -3.1730   29.1460 C.2     1  UNL1       -0.0042
      4 C         -23.9890   -4.5490   28.8530 C.2     1  UNL1       -0.0003
      5 C         -25.1370   -5.2800   29.2050 C.2     1  UNL1       -0.0000
      6 C         -26.2320   -4.6110   29.7840 C.2     1  UNL1       -0.0003
      7 C         -26.1550   -3.2320   30.0650 C.2     1  UNL1       -0.0042
      8 C         -25.3870   -0.6790   31.5710 C.3     1  UNL1        0.0782
      9 C         -25.1890    0.7730   32.0280 C.3     1  UNL1        0.0192
     10 C         -25.3360    0.6840   33.5440 C.3     1  UNL1        0.0202
     11 C         -24.8290   -0.7150   33.9050 C.3     1  UNL1        0.0887
     12 N         -24.7580   -1.4810   32.6460 N.3     1  UNL1       -0.2191
     13 C         -25.6880    1.6140   26.4610 C.2     1  UNL1        0.0300
     14 C         -26.2500    2.9200   26.3950 C.2     1  UNL1        0.0732
     15 C         -25.6420    4.0930   27.1230 C.2     1  UNL1        0.2661
     16 N         -25.6140    5.2520   26.4490 N.am    1  UNL1       -0.1997
     17 C         -25.0260    6.4790   26.9630 C.3     1  UNL1        0.1388
     18 O         -25.1430    3.9660   28.2430 O.2     1  UNL1       -0.2683
     19 C         -27.4380    3.0910   25.6450 C.2     1  UNL1        0.1064
     20 N         -28.0750    2.0890   25.0030 N.2     1  UNL1       -0.2081
     21 C         -27.5430    0.8490   25.0790 C.2     1  UNL1        0.2530
     22 O         -28.1930   -0.2080   24.4770 O.2     1  UNL1       -0.4558
     23 C         -29.4600    0.0050   23.8660 C.3     1  UNL1        0.2426
     24 C         -30.0650   -1.3770   23.5730 C.3     1  UNL1        0.2292
     25 O         -30.7290   -1.8780   24.7210 O.3     1  UNL1       -0.2162
     26 C         -26.3540    0.5760   25.7770 C.2     1  UNL1        0.1898
     27 F         -25.8600   -0.6810   25.7950 F       1  UNL1       -0.1996
     28 N         -23.8413    0.0863   28.9157 N.3     1  UNL1       -0.2218
     29 O         -23.9673    2.1734   29.4392 O.3     1  UNL1       -0.2042
     30 C         -22.3319    1.8128   27.7914 C.3     1  UNL1        0.2143
     31 C         -20.3494    0.0098   28.1189 C.3     1  UNL1        0.1791
     32 O         -22.2669    2.0457   26.4108 O.3     1  UNL1       -0.4478
     33 C         -23.6954    1.3872   28.2779 C.3     1  UNL1        0.2264
     34 C         -23.5106    1.8350   25.9967 C.2     1  UNL1        0.3247
     35 C         -21.2709    2.2118   28.4680 C.3     1  UNL1        0.0856
     36 O         -23.6225    2.0511   24.7136 O.2     1  UNL1       -0.2496
     37 C         -24.3927    1.5646   26.9857 C.3     1  UNL1        0.1695
     38 F         -19.2819    2.4619   27.8086 F       1  UNL1       -0.2345
     39 C         -20.1173    1.4515   27.6782 C.3     1  UNL1        0.1942
     40 C         -25.2829   -0.1970   28.9952 C.3     1  UNL1        0.0823
     41 O         -21.5561   -0.6260   28.5845 O.3     1  UNL1       -0.3343
     42 C         -22.4906   -0.1031   29.6759 C.3     1  UNL1        0.2219
@<TRIPOS>BOND
     1     1    40    1
     2     2     7    1
     3     2     1    1
     4     3     2    2
     5     4     3    1
     6     4     5    2
     7     5     6    1
     8     6     7    2
     9     8     1    1
    10     8     9    1
    11     8    12    1
    12     9    10    1
    13    10    11    1
    14    12    11    1
    15    14    13    1
    16    14    15    1
    17    15    18    2
    18    16    17    1
    19    16    15    1
    20    19    14    2
    21    20    21    2
    22    20    19    1
    23    21    26    1
    24    22    21    1
    25    23    22    1
    26    24    23    1
    27    24    25    1
    28    26    27    1
    29    26    13    2
    30    28    40    1
    31    28    42    1
    32    30    33    1
    33    30    35    1
    34    31    41    1
    35    32    30    1
    36    33    28    1
    37    33    29    1
    38    34    32    1
    39    34    37    1
    40    36    34    2
    41    37    13    1
    42    37    33    1
    43    39    38    1
    44    39    31    1
    45    39    35    1
    46    41    42    1
