@<TRIPOS>MOLECULE
outputs/IAG933/test6/raw/output_1886_IAG933_linker_design_.xyz
 40 43 0 0 0
SMALL
GASTEIGER

@<TRIPOS>ATOM
      1 C         -24.8550   -1.0120   30.1430 C.3     1  UNL1        0.0655
      2 C         -24.9730   -2.5050   29.7880 C.2     1  UNL1       -0.0188
      3 C         -23.9060   -3.1730   29.1460 C.2     1  UNL1       -0.0042
      4 C         -23.9890   -4.5490   28.8530 C.2     1  UNL1       -0.0003
      5 C         -25.1370   -5.2800   29.2050 C.2     1  UNL1       -0.0000
      6 C         -26.2320   -4.6110   29.7840 C.2     1  UNL1       -0.0003
      7 C         -26.1550   -3.2320   30.0650 C.2     1  UNL1       -0.0042
      8 C         -25.3870   -0.6790   31.5710 C.3     1  UNL1        0.0792
      9 C         -25.1890    0.7730   32.0280 C.3     1  UNL1        0.0193
     10 C         -25.3360    0.6840   33.5440 C.3     1  UNL1        0.0202
     11 C         -24.8290   -0.7150   33.9050 C.3     1  UNL1        0.0887
     12 N         -24.7580   -1.4810   32.6460 N.3     1  UNL1       -0.2191
     13 C         -25.6880    1.6140   26.4610 C.2     1  UNL1        0.0470
     14 C         -26.2500    2.9200   26.3950 C.2     1  UNL1        0.0752
     15 C         -25.6420    4.0930   27.1230 C.2     1  UNL1        0.2662
     16 N         -25.6140    5.2520   26.4490 N.am    1  UNL1       -0.1997
     17 C         -25.0260    6.4790   26.9630 C.3     1  UNL1        0.1388
     18 O         -25.1430    3.9660   28.2430 O.2     1  UNL1       -0.2683
     19 C         -27.4380    3.0910   25.6450 C.2     1  UNL1        0.1065
     20 N         -28.0750    2.0890   25.0030 N.2     1  UNL1       -0.2081
     21 C         -27.5430    0.8490   25.0790 C.2     1  UNL1        0.2531
     22 O         -28.1930   -0.2080   24.4770 O.2     1  UNL1       -0.4558
     23 C         -29.4600    0.0050   23.8660 C.3     1  UNL1        0.2426
     24 C         -30.0650   -1.3770   23.5730 C.3     1  UNL1        0.2292
     25 O         -30.7290   -1.8780   24.7210 O.3     1  UNL1       -0.2162
     26 C         -26.3540    0.5760   25.7770 C.2     1  UNL1        0.1917
     27 F         -25.8600   -0.6810   25.7950 F       1  UNL1       -0.1995
     28 C         -23.3133    1.5571   27.0727 C.ar    1  UNL1        0.0940
     29 C         -21.1521    1.6950   27.4304 C.ar    1  UNL1        0.3166
     30 C         -26.4696    2.3358   30.2047 C.3     1  UNL1        0.0026
     31 C         -22.6454    2.2521   25.9568 C.ar    1  UNL1        0.2382
     32 C         -26.0288    1.1721   29.7052 C.3     1  UNL1        0.0300
     33 C         -24.6315    1.2932   27.4131 C.3     1  UNL1        0.1688
     34 F         -22.4683    0.6046   29.1084 F       1  UNL1       -0.1985
     35 F         -20.0225    1.7541   27.9726 F       1  UNL1       -0.1603
     36 O         -24.9033    0.0494   28.0007 O.3     1  UNL1       -0.3492
     37 O         -21.3460    2.3209   26.2320 O.2     1  UNL1       -0.4106
     38 C         -25.4012    0.0787   29.2912 C.3     1  UNL1        0.1213
     39 C         -22.3052    1.1652   27.9125 C.ar    1  UNL1        0.2064
     40 N         -23.1976    2.5562   24.8109 N.pl3   1  UNL1       -0.0878
@<TRIPOS>BOND
     1     1    38    1
     2     2     7    1
     3     2     1    1
     4     3     2    2
     5     4     3    1
     6     4     5    2
     7     5     6    1
     8     6     7    2
     9     8     1    1
    10     8     9    1
    11     8    12    1
    12     9    10    1
    13    10    11    1
    14    12    11    1
    15    13    33    1
    16    14    13    1
    17    14    15    1
    18    15    18    2
    19    16    17    1
    20    16    15    1
    21    19    14    2
    22    20    21    2
    23    20    19    1
    24    21    26    1
    25    22    21    1
    26    23    22    1
    27    24    23    1
    28    24    25    1
    29    26    27    1
    30    26    13    2
    31    28    33    1
    32    28    39   ar
    33    29    39   ar
    34    29    35    1
    35    31    37   ar
    36    31    28   ar
    37    32    30    1
    38    33    36    1
    39    36    38    1
    40    37    29   ar
    41    38    32    1
    42    39    34    1
    43    40    31    1
