@<TRIPOS>MOLECULE
No_1887-gen_results/8p0m/2024-11-27-11-27-31/
 12 12 0 0 0
SMALL
GASTEIGER

@<TRIPOS>ATOM
      1 C         -28.0162   -0.8135   28.8779 C.3     1  UNL1        0.4186
      2 C         -27.0636   -0.1189   28.6079 C.ar    1  UNL1        0.0723
      3 C         -27.0010    0.6913   27.4910 C.ar    1  UNL1        0.0044
      4 C         -25.8548    1.4825   27.0830 C.ar    1  UNL1        0.0075
      5 C         -24.9008    1.3894   27.5922 C.ar    1  UNL1        0.0451
      6 C         -24.6783    0.5764   28.8299 C.ar    1  UNL1        0.0638
      7 C         -25.7704   -0.2051   29.2800 C.ar    1  UNL1        0.0157
      8 F         -29.0756   -0.7150   28.3046 F       1  UNL1       -0.1659
      9 F         -28.2856   -0.6549   30.3145 F       1  UNL1       -0.1659
     10 BR        -23.2590    2.3850   27.1985 Br      1  UNL1       -0.0481
     11 CL        -23.1599    0.5031   29.6745 Cl      1  UNL1       -0.0817
     12 F         -27.7668   -2.1449   29.2397 F       1  UNL1       -0.1659
@<TRIPOS>BOND
     1     1     2    1
     2     1     8    1
     3     1     9    1
     4     5    10    1
     5     6    11    1
     6     1    12    1
     7     2     3   ar
     8     3     4   ar
     9     4     5   ar
    10     5     6   ar
    11     6     7   ar
    12     7     2   ar
