@<TRIPOS>MOLECULE
outputs/IAG933/test6/raw/output_1889_IAG933_linker_design_.xyz
 44 46 0 0 0
SMALL
GASTEIGER

@<TRIPOS>ATOM
      1 C         -24.8550   -1.0120   30.1430 C.3     1  UNL1        0.0636
      2 C         -24.9730   -2.5050   29.7880 C.2     1  UNL1       -0.0168
      3 C         -23.9060   -3.1730   29.1460 C.2     1  UNL1       -0.0039
      4 C         -23.9890   -4.5490   28.8530 C.2     1  UNL1       -0.0003
      5 C         -25.1370   -5.2800   29.2050 C.2     1  UNL1       -0.0000
      6 C         -26.2320   -4.6110   29.7840 C.2     1  UNL1       -0.0003
      7 C         -26.1550   -3.2320   30.0650 C.2     1  UNL1       -0.0039
      8 C         -25.3870   -0.6790   31.5710 C.3     1  UNL1        0.0811
      9 C         -25.1890    0.7730   32.0280 C.3     1  UNL1        0.0195
     10 C         -25.3360    0.6840   33.5440 C.3     1  UNL1        0.0203
     11 C         -24.8290   -0.7150   33.9050 C.3     1  UNL1        0.0887
     12 N         -24.7580   -1.4810   32.6460 N.3     1  UNL1       -0.2188
     13 C         -25.6880    1.6140   26.4610 C.2     1  UNL1        0.0472
     14 C         -26.2500    2.9200   26.3950 C.2     1  UNL1        0.0752
     15 C         -25.6420    4.0930   27.1230 C.2     1  UNL1        0.2662
     16 N         -25.6140    5.2520   26.4490 N.am    1  UNL1       -0.1997
     17 C         -25.0260    6.4790   26.9630 C.3     1  UNL1        0.1388
     18 O         -25.1430    3.9660   28.2430 O.2     1  UNL1       -0.2683
     19 C         -27.4380    3.0910   25.6450 C.2     1  UNL1        0.1065
     20 N         -28.0750    2.0890   25.0030 N.2     1  UNL1       -0.2081
     21 C         -27.5430    0.8490   25.0790 C.2     1  UNL1        0.2531
     22 O         -28.1930   -0.2080   24.4770 O.2     1  UNL1       -0.4558
     23 C         -29.4600    0.0050   23.8660 C.3     1  UNL1        0.2426
     24 C         -30.0650   -1.3770   23.5730 C.3     1  UNL1        0.2292
     25 O         -30.7290   -1.8780   24.7210 O.3     1  UNL1       -0.2162
     26 C         -26.3540    0.5760   25.7770 C.2     1  UNL1        0.1917
     27 F         -25.8600   -0.6810   25.7950 F       1  UNL1       -0.1995
     28 C         -21.4829    0.2024   28.6290 C.2     1  UNL1        0.2981
     29 C         -27.9151    1.1278   30.6172 C.3     1  UNL1        0.0649
     30 C         -22.7830    2.4988   25.1870 C.3     1  UNL1        0.1749
     31 C         -27.8776   -0.0360   29.5527 C.3     1  UNL1        0.0127
     32 C         -24.2633    1.5914   27.0021 C.3     1  UNL1        0.1683
     33 C         -29.2114    3.2094   31.4587 C.3     1  UNL1        0.0722
     34 N         -20.3693   -0.0728   28.4482 N.am    1  UNL1       -0.0851
     35 F         -20.9665    2.2268   27.6602 F       1  UNL1       -0.2219
     36 O         -23.1562    2.7376   26.4150 O.3     1  UNL1       -0.3443
     37 C         -21.9977    1.3322   28.0562 C.3     1  UNL1        0.2674
     38 O         -30.1987    1.7162   29.9302 O.2     1  UNL1       -0.2960
     39 C         -25.3432   -0.2183   28.9127 C.2     1  UNL1       -0.0053
     40 C         -29.1438    1.9793   30.6125 C.2     1  UNL1        0.1511
     41 O         -21.9683   -0.5077   29.4075 O.2     1  UNL1       -0.2683
     42 C         -23.4545    1.0855   27.7893 C.2     1  UNL1        0.0615
     43 C         -24.1507    0.2917   28.1883 C.1     1  UNL1       -0.1128
     44 C         -26.7822   -0.0112   28.6106 C.3     1  UNL1        0.0305
@<TRIPOS>BOND
     1     1    39    1
     2     2     7    1
     3     2     1    1
     4     3     2    2
     5     4     3    1
     6     4     5    2
     7     5     6    1
     8     6     7    2
     9     8     1    1
    10     8     9    1
    11     8    12    1
    12     9    10    1
    13    10    11    1
    14    12    11    1
    15    13    32    1
    16    14    13    1
    17    14    15    1
    18    15    18    2
    19    16    17    1
    20    16    15    1
    21    19    14    2
    22    20    21    2
    23    20    19    1
    24    21    26    1
    25    22    21    1
    26    23    22    1
    27    24    23    1
    28    24    25    1
    29    26    27    1
    30    26    13    2
    31    28    41    2
    32    30    36    1
    33    31    29    1
    34    32    36    1
    35    32    42    1
    36    34    28    1
    37    37    35    1
    38    37    28    1
    39    38    40    2
    40    40    29    1
    41    40    33    1
    42    42    37    1
    43    42    43    2
    44    43    39    2
    45    44    39    1
    46    44    31    1
