@<TRIPOS>MOLECULE
outputs/IAG933/test6/raw/output_1890_IAG933_linker_design_.xyz
 46 49 0 0 0
SMALL
GASTEIGER

@<TRIPOS>ATOM
      1 C         -24.8550   -1.0120   30.1430 C.3     1  UNL1        0.0547
      2 C         -24.9730   -2.5050   29.7880 C.2     1  UNL1       -0.0198
      3 C         -23.9060   -3.1730   29.1460 C.2     1  UNL1       -0.0042
      4 C         -23.9890   -4.5490   28.8530 C.2     1  UNL1       -0.0003
      5 C         -25.1370   -5.2800   29.2050 C.2     1  UNL1       -0.0000
      6 C         -26.2320   -4.6110   29.7840 C.2     1  UNL1       -0.0003
      7 C         -26.1550   -3.2320   30.0650 C.2     1  UNL1       -0.0042
      8 C         -25.3870   -0.6790   31.5710 C.3     1  UNL1        0.0782
      9 C         -25.1890    0.7730   32.0280 C.3     1  UNL1        0.0192
     10 C         -25.3360    0.6840   33.5440 C.3     1  UNL1        0.0202
     11 C         -24.8290   -0.7150   33.9050 C.3     1  UNL1        0.0887
     12 N         -24.7580   -1.4810   32.6460 N.3     1  UNL1       -0.2191
     13 C         -25.6880    1.6140   26.4610 C.2     1  UNL1        0.0347
     14 C         -26.2500    2.9200   26.3950 C.2     1  UNL1        0.0740
     15 C         -25.6420    4.0930   27.1230 C.2     1  UNL1        0.2662
     16 N         -25.6140    5.2520   26.4490 N.am    1  UNL1       -0.1997
     17 C         -25.0260    6.4790   26.9630 C.3     1  UNL1        0.1388
     18 O         -25.1430    3.9660   28.2430 O.2     1  UNL1       -0.2683
     19 C         -27.4380    3.0910   25.6450 C.2     1  UNL1        0.1065
     20 N         -28.0750    2.0890   25.0030 N.2     1  UNL1       -0.2081
     21 C         -27.5430    0.8490   25.0790 C.2     1  UNL1        0.2530
     22 O         -28.1930   -0.2080   24.4770 O.2     1  UNL1       -0.4558
     23 C         -29.4600    0.0050   23.8660 C.3     1  UNL1        0.2426
     24 C         -30.0650   -1.3770   23.5730 C.3     1  UNL1        0.2292
     25 O         -30.7290   -1.8780   24.7210 O.3     1  UNL1       -0.2162
     26 C         -26.3540    0.5760   25.7770 C.2     1  UNL1        0.1905
     27 F         -25.8600   -0.6810   25.7950 F       1  UNL1       -0.1995
     28 C         -28.6451   -0.4133   29.5460 C.2     1  UNL1       -0.0427
     29 C         -24.4908    1.3473   27.2589 C.3     1  UNL1        0.1365
     30 F         -21.2765    2.5195   27.4996 F       1  UNL1       -0.2060
     31 N         -24.5863    0.1836   28.1418 N.3     1  UNL1       -0.2124
     32 C         -22.0586    0.6304   28.6222 C.2     1  UNL1        0.0300
     33 C         -29.6417   -0.9648   30.3401 C.3     1  UNL1        0.0434
     34 C         -29.6480    0.3228   27.5865 C.2     1  UNL1       -0.0052
     35 C         -32.4780   -2.2543   28.2605 C.3     1  UNL1        0.0304
     36 C         -23.1760    1.5009   26.5819 C.3     1  UNL1        0.2302
     37 C         -31.3205   -1.3214   28.6295 C.2     1  UNL1       -0.0294
     38 C         -22.3436    1.6054   27.8331 C.2     1  UNL1        0.1519
     39 C         -28.0500    1.7618   29.0480 C.3     1  UNL1        0.0304
     40 C         -27.0654   -0.7083   29.3213 C.3     1  UNL1        0.0398
     41 C         -25.5884   -0.0322   29.2035 C.3     1  UNL1        0.0825
     42 C         -32.0712   -1.4048   30.9941 C.3     1  UNL1        0.0264
     43 C         -30.9368   -1.2479   29.9180 C.2     1  UNL1       -0.0438
     44 C         -30.7699   -0.5084   27.6220 C.2     1  UNL1       -0.0052
     45 C         -28.6999    0.4450   28.6209 C.2     1  UNL1       -0.0294
     46 F         -22.7051    1.5261   25.4068 F       1  UNL1       -0.2281
@<TRIPOS>BOND
     1     1    41    1
     2     2     7    1
     3     2     1    1
     4     3     2    2
     5     4     3    1
     6     4     5    2
     7     5     6    1
     8     6     7    2
     9     8     1    1
    10     8     9    1
    11     8    12    1
    12     9    10    1
    13    10    11    1
    14    12    11    1
    15    13    29    1
    16    14    13    1
    17    14    15    1
    18    15    18    2
    19    16    17    1
    20    16    15    1
    21    19    14    2
    22    20    21    2
    23    20    19    1
    24    21    26    1
    25    22    21    1
    26    23    22    1
    27    24    23    1
    28    24    25    1
    29    26    27    1
    30    26    13    2
    31    28    33    1
    32    29    31    1
    33    30    38    1
    34    31    41    1
    35    34    44    2
    36    34    45    1
    37    35    37    1
    38    36    46    1
    39    36    29    1
    40    36    38    1
    41    37    43    2
    42    38    32    2
    43    40    28    1
    44    41    40    1
    45    43    33    1
    46    43    42    1
    47    44    37    1
    48    45    39    1
    49    45    28    2
