@<TRIPOS>MOLECULE
No_1891-gen_results/8p0m/2024-11-27-11-27-31/
 11 11 0 0 0
SMALL
GASTEIGER

@<TRIPOS>ATOM
      1 C         -28.0162   -0.8135   28.8779 C.ar    1  UNL1        0.0848
      2 C         -27.0636   -0.1189   28.6079 C.ar    1  UNL1        0.1506
      3 C         -27.0010    0.6913   27.4910 C.ar    1  UNL1        0.0303
      4 C         -28.1373    0.7363   26.6350 C.ar    1  UNL1        0.0007
      5 C         -29.2360    0.0765   27.0690 C.ar    1  UNL1        0.0113
      6 C         -29.2177   -0.6429   28.1747 C.ar    1  UNL1        0.0120
      7 C         -30.5230    0.0808   26.3695 C.3     1  UNL1        0.1927
      8 CL        -31.8506   -0.4058   26.7454 Cl      1  UNL1       -0.0890
      9 N         -30.3503    0.5529   24.9688 N.3     1  UNL1       -0.1101
     10 F         -25.8486   -0.1810   29.3393 F       1  UNL1       -0.2033
     11 CL        -28.2103   -1.7717   30.3429 Cl      1  UNL1       -0.0799
@<TRIPOS>BOND
     1     5     7    1
     2     7     8    1
     3     7     9    1
     4     2    10    1
     5     1    11    1
     6     1     2   ar
     7     2     3   ar
     8     3     4   ar
     9     4     5   ar
    10     5     6   ar
    11     6     1   ar
