@<TRIPOS>MOLECULE
outputs/IAG933/test6/raw/output_1892_IAG933_linker_design_.xyz
 46 50 0 0 0
SMALL
GASTEIGER

@<TRIPOS>ATOM
      1 C         -24.8550   -1.0120   30.1430 C.3     1  UNL1        0.0454
      2 C         -24.9730   -2.5050   29.7880 C.2     1  UNL1       -0.0207
      3 C         -23.9060   -3.1730   29.1460 C.2     1  UNL1       -0.0042
      4 C         -23.9890   -4.5490   28.8530 C.2     1  UNL1       -0.0003
      5 C         -25.1370   -5.2800   29.2050 C.2     1  UNL1       -0.0000
      6 C         -26.2320   -4.6110   29.7840 C.2     1  UNL1       -0.0003
      7 C         -26.1550   -3.2320   30.0650 C.2     1  UNL1       -0.0042
      8 C         -25.3870   -0.6790   31.5710 C.3     1  UNL1        0.0953
      9 C         -25.1890    0.7730   32.0280 C.3     1  UNL1        0.0936
     10 C         -25.3360    0.6840   33.5440 C.3     1  UNL1        0.0401
     11 C         -24.8290   -0.7150   33.9050 C.3     1  UNL1        0.0905
     12 N         -24.7580   -1.4810   32.6460 N.3     1  UNL1       -0.2174
     13 C         -25.6880    1.6140   26.4610 C.2     1  UNL1        0.0403
     14 C         -26.2500    2.9200   26.3950 C.2     1  UNL1        0.0766
     15 C         -25.6420    4.0930   27.1230 C.2     1  UNL1        0.2664
     16 N         -25.6140    5.2520   26.4490 N.am    1  UNL1       -0.1997
     17 C         -25.0260    6.4790   26.9630 C.3     1  UNL1        0.1388
     18 O         -25.1430    3.9660   28.2430 O.2     1  UNL1       -0.2683
     19 C         -27.4380    3.0910   25.6450 C.2     1  UNL1        0.1067
     20 N         -28.0750    2.0890   25.0030 N.2     1  UNL1       -0.2081
     21 C         -27.5430    0.8490   25.0790 C.2     1  UNL1        0.2533
     22 O         -28.1930   -0.2080   24.4770 O.2     1  UNL1       -0.4558
     23 C         -29.4600    0.0050   23.8660 C.3     1  UNL1        0.2426
     24 C         -30.0650   -1.3770   23.5730 C.3     1  UNL1        0.2292
     25 O         -30.7290   -1.8780   24.7210 O.3     1  UNL1       -0.2162
     26 C         -26.3540    0.5760   25.7770 C.2     1  UNL1        0.1931
     27 F         -25.8600   -0.6810   25.7950 F       1  UNL1       -0.1992
     28 C         -25.1442    3.8967   32.9418 C.2     1  UNL1        0.0956
     29 C         -23.2514    1.9640   26.4387 C.2     1  UNL1        0.1674
     30 N         -24.4737    1.8727   31.3331 N.am    1  UNL1       -0.2721
     31 C         -25.7745    3.6395   34.1897 C.2     1  UNL1        0.1241
     32 C         -24.4486    1.5414   27.0161 C.2     1  UNL1        0.0320
     33 C         -23.4043    1.8301   30.3397 C.3     1  UNL1        0.1205
     34 C         -23.3084    1.3999   29.0711 C.2     1  UNL1        0.0001
     35 C         -24.6472    5.2276   33.1217 C.2     1  UNL1        0.1091
     36 C         -24.9421    7.1120   34.9414 C.3     1  UNL1        0.1404
     37 F         -20.8762    2.0707   26.5101 F       1  UNL1       -0.2018
     38 BR        -24.3301    6.5483   31.9818 Br      1  UNL1       -0.0309
     39 O         -26.0150    3.3556   30.8772 O.2     1  UNL1       -0.2698
     40 F         -23.2130    2.7060   25.3695 F       1  UNL1       -0.2018
     41 C         -25.1852    3.0762   31.6836 C.2     1  UNL1        0.2526
     42 C         -24.4496    1.1661   28.3497 C.2     1  UNL1       -0.0002
     43 C         -22.0502    1.4323   28.4448 C.2     1  UNL1        0.0294
     44 N         -25.6622    4.7024   35.0326 N.2     1  UNL1       -0.1757
     45 C         -21.9952    1.7581   27.0811 C.2     1  UNL1        0.1671
     46 N         -25.0313    5.7012   34.3977 N.pl3   1  UNL1       -0.2032
@<TRIPOS>BOND
     1     2     7    1
     2     2     1    1
     3     3     2    2
     4     4     3    1
     5     4     5    2
     6     5     6    1
     7     6     7    2
     8     8     1    1
     9     8     9    1
    10     8    12    1
    11     9    30    1
    12     9    10    1
    13    10    11    1
    14    12    11    1
    15    13    32    1
    16    14    13    1
    17    14    15    1
    18    15    18    2
    19    16    17    1
    20    16    15    1
    21    19    14    2
    22    20    21    2
    23    20    19    1
    24    21    26    1
    25    22    21    1
    26    23    22    1
    27    24    23    1
    28    24    25    1
    29    26    27    1
    30    26    13    2
    31    28    35    2
    32    28    31    1
    33    29    32    2
    34    29    45    1
    35    30    41   am
    36    31    44    2
    37    32    42    1
    38    33    30    1
    39    34    33    1
    40    35    46    1
    41    37    45    1
    42    38    35    1
    43    39    41    2
    44    40    29    1
    45    41    28    1
    46    42    34    2
    47    43    34    1
    48    45    43    2
    49    46    36    1
    50    46    44    1
