@<TRIPOS>MOLECULE
No_1896-gen_results/8p0m/2024-11-27-11-27-31/
 8 8 0 0 0
SMALL
GASTEIGER

@<TRIPOS>ATOM
      1 C         -28.0162   -0.8135   28.8779 C.ar    1  UNL1        0.0369
      2 C         -28.4690   -0.7850   29.8287 C.ar    1  UNL1        0.1387
      3 C         -26.5042   -0.7777   28.8766 C.ar    1  UNL1        0.0031
      4 C         -25.8103   -0.8531   30.1028 C.ar    1  UNL1        0.0002
      5 C         -27.9906   -0.8916   31.2257 C.ar    1  UNL1        0.0369
      6 C         -26.6042   -0.8676   31.2652 C.ar    1  UNL1        0.0031
      7 O         -29.9385   -0.8194   29.8358 O.3     1  UNL1       -0.4714
      8 C         -30.6978   -1.6543   30.3501 C.3     1  UNL1        0.2525
@<TRIPOS>BOND
     1     2     7    1
     2     7     8    1
     3     1     2   ar
     4     2     5   ar
     5     5     6   ar
     6     6     4   ar
     7     4     3   ar
     8     3     1   ar
