@<TRIPOS>MOLECULE
outputs/IAG933/test6/raw/output_1897_IAG933_linker_design_.xyz
 47 52 0 0 0
SMALL
GASTEIGER

@<TRIPOS>ATOM
      1 C         -24.8550   -1.0120   30.1430 C.3     1  UNL1        0.0424
      2 C         -24.9730   -2.5050   29.7880 C.2     1  UNL1       -0.0208
      3 C         -23.9060   -3.1730   29.1460 C.2     1  UNL1       -0.0042
      4 C         -23.9890   -4.5490   28.8530 C.2     1  UNL1       -0.0003
      5 C         -25.1370   -5.2800   29.2050 C.2     1  UNL1       -0.0000
      6 C         -26.2320   -4.6110   29.7840 C.2     1  UNL1       -0.0003
      7 C         -26.1550   -3.2320   30.0650 C.2     1  UNL1       -0.0042
      8 C         -25.3870   -0.6790   31.5710 C.3     1  UNL1        0.0771
      9 C         -25.1890    0.7730   32.0280 C.3     1  UNL1        0.0192
     10 C         -25.3360    0.6840   33.5440 C.3     1  UNL1        0.0202
     11 C         -24.8290   -0.7150   33.9050 C.3     1  UNL1        0.0887
     12 N         -24.7580   -1.4810   32.6460 N.3     1  UNL1       -0.2191
     13 C         -25.6880    1.6140   26.4610 C.2     1  UNL1        0.0378
     14 C         -26.2500    2.9200   26.3950 C.2     1  UNL1        0.0765
     15 C         -25.6420    4.0930   27.1230 C.2     1  UNL1        0.2664
     16 N         -25.6140    5.2520   26.4490 N.am    1  UNL1       -0.1997
     17 C         -25.0260    6.4790   26.9630 C.3     1  UNL1        0.1388
     18 O         -25.1430    3.9660   28.2430 O.2     1  UNL1       -0.2683
     19 C         -27.4380    3.0910   25.6450 C.2     1  UNL1        0.1067
     20 N         -28.0750    2.0890   25.0030 N.2     1  UNL1       -0.2081
     21 C         -27.5430    0.8490   25.0790 C.2     1  UNL1        0.2533
     22 O         -28.1930   -0.2080   24.4770 O.2     1  UNL1       -0.4558
     23 C         -29.4600    0.0050   23.8660 C.3     1  UNL1        0.2426
     24 C         -30.0650   -1.3770   23.5730 C.3     1  UNL1        0.2292
     25 O         -30.7290   -1.8780   24.7210 O.3     1  UNL1       -0.2162
     26 C         -26.3540    0.5760   25.7770 C.2     1  UNL1        0.1930
     27 F         -25.8600   -0.6810   25.7950 F       1  UNL1       -0.1992
     28 O         -32.7640    0.1525   25.9243 O.3     1  UNL1       -0.1883
     29 C         -23.2850    1.8276   26.3285 C.2     1  UNL1       -0.0002
     30 C         -32.9617    0.3034   28.3402 C.3     1  UNL1        0.1539
     31 C         -28.6209    0.9395   31.1458 C.2     1  UNL1       -0.0197
     32 C         -28.0992    0.5044   29.7829 C.3     1  UNL1        0.0254
     33 C         -22.8796    0.6381   28.7920 C.2     1  UNL1       -0.0043
     34 S         -31.3126    0.4817   31.0889 S.3     1  UNL1       -0.0942
     35 O         -30.6798    0.1126   27.2718 O.3     1  UNL1       -0.3276
     36 C         -31.1998    0.9020   29.5349 C.3     1  UNL1        0.1512
     37 C         -22.0241    1.7139   26.8159 C.2     1  UNL1       -0.0000
     38 C         -28.9318   -0.1664   28.9288 C.3     1  UNL1        0.0364
     39 C         -25.4759   -0.0928   28.9564 C.3     1  UNL1        0.0280
     40 C         -29.8428    0.8470   31.6963 C.2     1  UNL1        0.0277
     41 C         -24.2192    0.6621   28.3007 C.2     1  UNL1       -0.0220
     42 C         -21.8117    1.1436   28.0640 C.2     1  UNL1       -0.0003
     43 C         -32.0969   -0.2089   27.1933 C.3     1  UNL1        0.2866
     44 C         -30.2393    0.3296   28.6381 C.3     1  UNL1        0.1446
     45 N         -32.3363    1.4792   28.9239 N.3     1  UNL1       -0.2003
     46 C         -26.7258    0.9166   29.2291 C.3     1  UNL1        0.0092
     47 C         -24.3852    1.3496   27.0489 C.2     1  UNL1       -0.0014
@<TRIPOS>BOND
     1     1    39    1
     2     2     7    1
     3     2     1    1
     4     3     2    2
     5     4     3    1
     6     4     5    2
     7     5     6    1
     8     6     7    2
     9     8     1    1
    10     8     9    1
    11     8    12    1
    12     9    10    1
    13    10    11    1
    14    12    11    1
    15    13    47    1
    16    14    13    1
    17    14    15    1
    18    15    18    2
    19    16    17    1
    20    16    15    1
    21    19    14    2
    22    20    21    2
    23    20    19    1
    24    21    26    1
    25    22    21    1
    26    23    22    1
    27    24    23    1
    28    24    25    1
    29    26    27    1
    30    26    13    2
    31    29    37    2
    32    29    47    1
    33    30    45    1
    34    31    40    2
    35    32    46    1
    36    32    31    1
    37    34    40    1
    38    35    44    1
    39    36    45    1
    40    36    34    1
    41    37    42    1
    42    38    32    1
    43    39    46    1
    44    41    33    1
    45    41    39    1
    46    42    33    2
    47    43    28    1
    48    43    35    1
    49    43    30    1
    50    44    38    1
    51    44    36    1
    52    47    41    2
