@<TRIPOS>MOLECULE
outputs/IAG933/test6/raw/output_1899_IAG933_linker_design_.xyz
 48 52 0 0 0
SMALL
GASTEIGER

@<TRIPOS>ATOM
      1 C         -24.8550   -1.0120   30.1430 C.3     1  UNL1        0.0968
      2 C         -24.9730   -2.5050   29.7880 C.2     1  UNL1       -0.0064
      3 C         -23.9060   -3.1730   29.1460 C.2     1  UNL1       -0.0029
      4 C         -23.9890   -4.5490   28.8530 C.2     1  UNL1       -0.0003
      5 C         -25.1370   -5.2800   29.2050 C.2     1  UNL1       -0.0000
      6 C         -26.2320   -4.6110   29.7840 C.2     1  UNL1       -0.0003
      7 C         -26.1550   -3.2320   30.0650 C.2     1  UNL1       -0.0029
      8 C         -25.3870   -0.6790   31.5710 C.3     1  UNL1        0.0916
      9 C         -25.1890    0.7730   32.0280 C.3     1  UNL1        0.0206
     10 C         -25.3360    0.6840   33.5440 C.3     1  UNL1        0.0203
     11 C         -24.8290   -0.7150   33.9050 C.3     1  UNL1        0.0888
     12 N         -24.7580   -1.4810   32.6460 N.3     1  UNL1       -0.2178
     13 C         -25.6880    1.6140   26.4610 C.2     1  UNL1        0.0371
     14 C         -26.2500    2.9200   26.3950 C.2     1  UNL1        0.0763
     15 C         -25.6420    4.0930   27.1230 C.2     1  UNL1        0.2664
     16 N         -25.6140    5.2520   26.4490 N.am    1  UNL1       -0.1997
     17 C         -25.0260    6.4790   26.9630 C.3     1  UNL1        0.1388
     18 O         -25.1430    3.9660   28.2430 O.2     1  UNL1       -0.2683
     19 C         -27.4380    3.0910   25.6450 C.2     1  UNL1        0.1067
     20 N         -28.0750    2.0890   25.0030 N.2     1  UNL1       -0.2081
     21 C         -27.5430    0.8490   25.0790 C.2     1  UNL1        0.2533
     22 O         -28.1930   -0.2080   24.4770 O.2     1  UNL1       -0.4558
     23 C         -29.4600    0.0050   23.8660 C.3     1  UNL1        0.2426
     24 C         -30.0650   -1.3770   23.5730 C.3     1  UNL1        0.2292
     25 O         -30.7290   -1.8780   24.7210 O.3     1  UNL1       -0.2162
     26 C         -26.3540    0.5760   25.7770 C.2     1  UNL1        0.1928
     27 F         -25.8600   -0.6810   25.7950 F       1  UNL1       -0.1992
     28 C         -28.8547    0.1053   27.8341 C.3     1  UNL1        0.1577
     29 O         -28.8737    1.4821   28.3413 O.3     1  UNL1       -0.2227
     30 C         -30.1274   -0.6942   27.7930 C.3     1  UNL1        0.0593
     31 C         -31.7108    2.9438   27.3579 C.2     1  UNL1        0.1788
     32 C         -26.6590   -0.3880   28.4414 C.3     1  UNL1        0.0757
     33 O         -31.8844    3.3051   29.6857 O.2     1  UNL1       -0.2842
     34 C         -31.2760    0.2586   27.7102 C.2     1  UNL1       -0.0163
     35 C         -23.1967    1.5778   26.6419 C.2     1  UNL1        0.0651
     36 C         -31.8372    2.0944   26.2356 C.2     1  UNL1        0.0326
     37 C         -20.9087    1.5672   27.4330 C.3     1  UNL1        0.1201
     38 C         -24.4540    1.2555   27.1247 C.2     1  UNL1        0.0184
     39 O         -22.3635   -0.0714   29.5196 O.2     1  UNL1       -0.2727
     40 F         -31.3332    4.2389   27.2149 F       1  UNL1       -0.2008
     41 C         -31.6931    0.7010   26.4088 C.2     1  UNL1       -0.0017
     42 C         -24.3726    0.5578   28.2822 C.3     1  UNL1        0.1597
     43 C         -31.8182    2.4242   28.6697 C.2     1  UNL1        0.2226
     44 N         -25.3382   -0.1708   29.0436 N.3     1  UNL1       -0.2594
     45 C         -27.8907   -0.6063   28.7225 C.3     1  UNL1        0.0506
     46 C         -22.9533    0.4998   28.5641 C.2     1  UNL1        0.2482
     47 N         -22.3529    1.1813   27.5672 N.am    1  UNL1       -0.2546
     48 C         -31.6587    1.0716   28.8928 C.2     1  UNL1        0.0402
@<TRIPOS>BOND
     1     1    44    1
     2     2     7    1
     3     2     1    1
     4     3     2    2
     5     4     3    1
     6     4     5    2
     7     5     6    1
     8     6     7    2
     9     8     1    1
    10     8     9    1
    11     8    12    1
    12     9    10    1
    13    10    11    1
    14    12    11    1
    15    13    38    1
    16    14    13    1
    17    14    15    1
    18    15    18    2
    19    16    17    1
    20    16    15    1
    21    19    14    2
    22    20    21    2
    23    20    19    1
    24    21    26    1
    25    22    21    1
    26    23    22    1
    27    24    23    1
    28    24    25    1
    29    26    27    1
    30    26    13    2
    31    28    29    1
    32    28    45    1
    33    30    28    1
    34    31    43    1
    35    32    45    1
    36    32    44    1
    37    34    30    1
    38    34    48    1
    39    35    38    2
    40    35    47    1
    41    36    41    1
    42    36    31    2
    43    37    47    1
    44    38    42    1
    45    40    31    1
    46    41    34    2
    47    42    46    1
    48    42    44    1
    49    43    48    2
    50    43    33    1
    51    46    39    2
    52    47    46   am
