@<TRIPOS>MOLECULE
No_19-gen_results/8p0m/2024-11-27-11-27-31/
 18 19 0 0 0
SMALL
GASTEIGER

@<TRIPOS>ATOM
      1 C         -28.0162   -0.8135   28.8779 C.ar    1  UNL1        0.1361
      2 C         -28.4690   -0.7850   29.8287 C.ar    1  UNL1        0.0293
      3 C         -28.1960    0.3478   28.0550 C.ar    1  UNL1        0.0053
      4 C         -29.0191    1.3501   28.3782 C.ar    1  UNL1       -0.0020
      5 C         -29.6249    1.2683   29.6012 C.ar    1  UNL1       -0.0002
      6 C         -29.3821    0.1816   30.4004 C.ar    1  UNL1        0.0023
      7 C         -27.4591    0.3787   26.7048 C.3     1  UNL1        0.0288
      8 C         -26.1350    0.3565   26.8181 C.3     1  UNL1        0.0106
      9 C         -25.3867    0.0259   27.9207 C.3     1  UNL1        0.0691
     10 C         -23.9774    0.0245   27.9125 C.3     1  UNL1        0.0313
     11 C         -23.2124   -0.3700   29.0872 C.2     1  UNL1       -0.0276
     12 C         -23.8134   -1.1940   30.0208 C.2     1  UNL1        0.0095
     13 C         -25.1798   -1.3032   30.0020 C.3     1  UNL1        0.2432
     14 C         -25.9389   -0.8003   29.0083 C.3     1  UNL1        0.2973
     15 F         -25.9672   -1.9271   28.5917 F       1  UNL1       -0.2010
     16 F         -28.7222   -1.5759   28.2537 F       1  UNL1       -0.2045
     17 F         -25.7769   -1.8578   31.0188 F       1  UNL1       -0.2265
     18 F         -25.9423    0.4716   29.8014 F       1  UNL1       -0.2010
@<TRIPOS>BOND
     1     3     7    1
     2     7     8    1
     3     9    10    1
     4    10    11    1
     5    11    12    2
     6    12    13    1
     7     9    14    1
     8    13    14    1
     9    14    15    1
    10     1    16    1
    11    13    17    1
    12    14    18    1
    13     8     9    1
    14     1     2   ar
    15     2     6   ar
    16     6     5   ar
    17     5     4   ar
    18     4     3   ar
    19     3     1   ar
