@<TRIPOS>MOLECULE
outputs/IAG933/test6/raw/output_1900_IAG933_linker_design_.xyz
 45 50 0 0 0
SMALL
GASTEIGER

@<TRIPOS>ATOM
      1 C         -24.8550   -1.0120   30.1430 C.3     1  UNL1        0.0409
      2 C         -24.9730   -2.5050   29.7880 C.2     1  UNL1       -0.0211
      3 C         -23.9060   -3.1730   29.1460 C.2     1  UNL1       -0.0042
      4 C         -23.9890   -4.5490   28.8530 C.2     1  UNL1       -0.0003
      5 C         -25.1370   -5.2800   29.2050 C.2     1  UNL1       -0.0000
      6 C         -26.2320   -4.6110   29.7840 C.2     1  UNL1       -0.0003
      7 C         -26.1550   -3.2320   30.0650 C.2     1  UNL1       -0.0042
      8 C         -25.3870   -0.6790   31.5710 C.3     1  UNL1        0.0769
      9 C         -25.1890    0.7730   32.0280 C.3     1  UNL1        0.0192
     10 C         -25.3360    0.6840   33.5440 C.3     1  UNL1        0.0202
     11 C         -24.8290   -0.7150   33.9050 C.3     1  UNL1        0.0887
     12 N         -24.7580   -1.4810   32.6460 N.3     1  UNL1       -0.2191
     13 C         -25.6880    1.6140   26.4610 C.3     1  UNL1        0.0703
     14 C         -26.2500    2.9200   26.3950 C.2     1  UNL1        0.0548
     15 C         -25.6420    4.0930   27.1230 C.2     1  UNL1        0.2624
     16 N         -25.6140    5.2520   26.4490 N.am    1  UNL1       -0.2000
     17 C         -25.0260    6.4790   26.9630 C.3     1  UNL1        0.1388
     18 O         -25.1430    3.9660   28.2430 O.2     1  UNL1       -0.2687
     19 C         -27.4380    3.0910   25.6450 C.2     1  UNL1        0.1021
     20 N         -28.0750    2.0890   25.0030 N.2     1  UNL1       -0.2119
     21 C         -27.5430    0.8490   25.0790 C.2     1  UNL1        0.2341
     22 O         -28.1930   -0.2080   24.4770 O.2     1  UNL1       -0.4585
     23 C         -29.4600    0.0050   23.8660 C.3     1  UNL1        0.2423
     24 C         -30.0650   -1.3770   23.5730 C.3     1  UNL1        0.2292
     25 O         -30.7290   -1.8780   24.7210 O.3     1  UNL1       -0.2162
     26 C         -26.3540    0.5760   25.7770 C.3     1  UNL1        0.2400
     27 F         -25.8600   -0.6810   25.7950 F       1  UNL1       -0.2269
     28 C         -29.8373    3.7654   31.0137 C.3     1  UNL1        0.0886
     29 F         -21.2819    2.0895   26.4147 F       1  UNL1       -0.2040
     30 C         -24.1939    1.5073   26.5358 C.3     1  UNL1        0.0132
     31 N         -26.2627    4.3423   30.8315 N.3     1  UNL1       -0.1107
     32 C         -24.5368    0.0724   29.2677 C.3     1  UNL1        0.0395
     33 C         -22.0002   -0.1062   29.0475 C.3     1  UNL1        0.1453
     34 C         -29.2816    2.3145   30.7230 C.2     1  UNL1        0.2284
     35 C         -21.7567    1.3641   27.3201 C.3     1  UNL1        0.2783
     36 O         -26.8794    0.6035   28.8287 O.3     1  UNL1       -0.3337
     37 O         -21.0687    0.3953   27.9895 O.3     1  UNL1       -0.3268
     38 C         -23.1154    1.0731   27.5463 C.3     1  UNL1        0.0647
     39 C         -23.2898    0.2583   28.6581 C.3     1  UNL1        0.0378
     40 N         -27.9823    2.4519   30.0042 N.am    1  UNL1       -0.2410
     41 C         -28.7461    4.6363   30.6799 C.3     1  UNL1        0.0493
     42 O         -29.9131    1.1698   31.2125 O.2     1  UNL1       -0.2748
     43 C         -27.7343    3.6192   31.0446 C.3     1  UNL1        0.1704
     44 C         -26.8978    1.4033   29.7834 C.3     1  UNL1        0.2230
     45 C         -25.6409    0.9943   29.0652 C.3     1  UNL1        0.1641
@<TRIPOS>BOND
     1     1    32    1
     2     2     7    1
     3     2     1    1
     4     3     2    2
     5     4     3    1
     6     4     5    2
     7     5     6    1
     8     6     7    2
     9     8     1    1
    10     8     9    1
    11     8    12    1
    12     9    10    1
    13    10    11    1
    14    12    11    1
    15    13    30    1
    16    14    13    1
    17    14    15    1
    18    15    18    2
    19    16    17    1
    20    16    15    1
    21    19    14    2
    22    20    21    2
    23    20    19    1
    24    21    26    1
    25    22    21    1
    26    23    22    1
    27    24    23    1
    28    24    25    1
    29    26    27    1
    30    26    13    1
    31    32    39    1
    32    34    28    1
    33    34    42    2
    34    35    29    1
    35    35    38    1
    36    35    37    1
    37    36    45    1
    38    36    44    1
    39    37    33    1
    40    38    30    1
    41    38    39    1
    42    39    33    1
    43    40    34   am
    44    40    43    1
    45    41    28    1
    46    41    43    1
    47    43    31    1
    48    44    40    1
    49    45    32    1
    50    45    44    1
