@<TRIPOS>MOLECULE
outputs/IAG933/test6/raw/output_1902_IAG933_linker_design_.xyz
 45 50 0 0 0
SMALL
GASTEIGER

@<TRIPOS>ATOM
      1 C         -24.8550   -1.0120   30.1430 C.3     1  UNL1        0.0585
      2 C         -24.9730   -2.5050   29.7880 C.2     1  UNL1       -0.0195
      3 C         -23.9060   -3.1730   29.1460 C.2     1  UNL1       -0.0042
      4 C         -23.9890   -4.5490   28.8530 C.2     1  UNL1       -0.0003
      5 C         -25.1370   -5.2800   29.2050 C.2     1  UNL1       -0.0000
      6 C         -26.2320   -4.6110   29.7840 C.2     1  UNL1       -0.0003
      7 C         -26.1550   -3.2320   30.0650 C.2     1  UNL1       -0.0042
      8 C         -25.3870   -0.6790   31.5710 C.3     1  UNL1        0.0785
      9 C         -25.1890    0.7730   32.0280 C.3     1  UNL1        0.0192
     10 C         -25.3360    0.6840   33.5440 C.3     1  UNL1        0.0202
     11 C         -24.8290   -0.7150   33.9050 C.3     1  UNL1        0.0887
     12 N         -24.7580   -1.4810   32.6460 N.3     1  UNL1       -0.2191
     13 C         -25.6880    1.6140   26.4610 C.2     1  UNL1        0.0378
     14 C         -26.2500    2.9200   26.3950 C.2     1  UNL1        0.0765
     15 C         -25.6420    4.0930   27.1230 C.2     1  UNL1        0.2664
     16 N         -25.6140    5.2520   26.4490 N.am    1  UNL1       -0.1997
     17 C         -25.0260    6.4790   26.9630 C.3     1  UNL1        0.1388
     18 O         -25.1430    3.9660   28.2430 O.2     1  UNL1       -0.2683
     19 C         -27.4380    3.0910   25.6450 C.2     1  UNL1        0.1067
     20 N         -28.0750    2.0890   25.0030 N.2     1  UNL1       -0.2081
     21 C         -27.5430    0.8490   25.0790 C.2     1  UNL1        0.2533
     22 O         -28.1930   -0.2080   24.4770 O.2     1  UNL1       -0.4558
     23 C         -29.4600    0.0050   23.8660 C.3     1  UNL1        0.2426
     24 C         -30.0650   -1.3770   23.5730 C.3     1  UNL1        0.2292
     25 O         -30.7290   -1.8780   24.7210 O.3     1  UNL1       -0.2162
     26 C         -26.3540    0.5760   25.7770 C.2     1  UNL1        0.1930
     27 F         -25.8600   -0.6810   25.7950 F       1  UNL1       -0.1992
     28 N         -30.0940   -0.1792   29.9973 N.am    1  UNL1       -0.2544
     29 N         -26.5323    0.1958   28.8141 N.3     1  UNL1       -0.2051
     30 C         -27.5771    0.5316   29.8245 C.3     1  UNL1        0.1741
     31 C         -30.7851   -1.5118   32.1641 C.3     1  UNL1        0.1652
     32 C         -28.6959    0.4139   29.0122 C.2     1  UNL1        0.2451
     33 C         -21.9605    1.8355   26.7916 C.2     1  UNL1       -0.0000
     34 O         -29.1185    0.1215   27.9081 O.2     1  UNL1       -0.2732
     35 C         -22.7264    0.5058   28.6476 C.2     1  UNL1       -0.0029
     36 C         -31.7097   -3.3167   30.6488 C.3     1  UNL1        0.0044
     37 C         -21.6726    1.0702   27.9311 C.2     1  UNL1       -0.0003
     38 C         -30.6868   -0.0293   31.3957 C.3     1  UNL1        0.2221
     39 C         -23.2720    1.9653   26.3019 C.2     1  UNL1       -0.0002
     40 C         -24.3370    1.3707   26.9969 C.2     1  UNL1       -0.0001
     41 C         -30.3475   -2.4799   30.9585 C.3     1  UNL1        0.0514
     42 C         -24.0429    0.6406   28.2040 C.2     1  UNL1       -0.0060
     43 C         -29.5920   -1.6306   29.8878 C.3     1  UNL1        0.0982
     44 C         -25.1201    0.1801   29.1062 C.3     1  UNL1        0.1008
     45 O         -31.9418   -0.6208   31.9570 O.3     1  UNL1       -0.3337
@<TRIPOS>BOND
     1     1    44    1
     2     2     7    1
     3     2     1    1
     4     3     2    2
     5     4     3    1
     6     4     5    2
     7     5     6    1
     8     6     7    2
     9     8     1    1
    10     8     9    1
    11     8    12    1
    12     9    10    1
    13    10    11    1
    14    12    11    1
    15    13    40    1
    16    14    13    1
    17    14    15    1
    18    15    18    2
    19    16    17    1
    20    16    15    1
    21    19    14    2
    22    20    21    2
    23    20    19    1
    24    21    26    1
    25    22    21    1
    26    23    22    1
    27    24    23    1
    28    24    25    1
    29    26    27    1
    30    26    13    2
    31    28    38    1
    32    29    30    1
    33    31    45    1
    34    32    30    1
    35    32    28   am
    36    33    37    1
    37    34    32    2
    38    37    35    2
    39    38    45    1
    40    38    31    1
    41    39    33    2
    42    39    40    1
    43    40    42    2
    44    41    36    1
    45    41    31    1
    46    42    35    1
    47    42    44    1
    48    43    28    1
    49    43    41    1
    50    44    29    1
