@<TRIPOS>MOLECULE
outputs/IAG933/test6/raw/output_1903_IAG933_linker_design_.xyz
 42 45 0 0 0
SMALL
GASTEIGER

@<TRIPOS>ATOM
      1 C         -24.8550   -1.0120   30.1430 C.3     1  UNL1        0.0427
      2 C         -24.9730   -2.5050   29.7880 C.2     1  UNL1       -0.0208
      3 C         -23.9060   -3.1730   29.1460 C.2     1  UNL1       -0.0042
      4 C         -23.9890   -4.5490   28.8530 C.2     1  UNL1       -0.0003
      5 C         -25.1370   -5.2800   29.2050 C.2     1  UNL1       -0.0000
      6 C         -26.2320   -4.6110   29.7840 C.2     1  UNL1       -0.0003
      7 C         -26.1550   -3.2320   30.0650 C.2     1  UNL1       -0.0042
      8 C         -25.3870   -0.6790   31.5710 C.3     1  UNL1        0.0771
      9 C         -25.1890    0.7730   32.0280 C.3     1  UNL1        0.0192
     10 C         -25.3360    0.6840   33.5440 C.3     1  UNL1        0.0202
     11 C         -24.8290   -0.7150   33.9050 C.3     1  UNL1        0.0887
     12 N         -24.7580   -1.4810   32.6460 N.3     1  UNL1       -0.2191
     13 C         -25.6880    1.6140   26.4610 C.3     1  UNL1        0.0920
     14 C         -26.2500    2.9200   26.3950 C.2     1  UNL1        0.0589
     15 C         -25.6420    4.0930   27.1230 C.2     1  UNL1        0.2628
     16 N         -25.6140    5.2520   26.4490 N.am    1  UNL1       -0.2000
     17 C         -25.0260    6.4790   26.9630 C.3     1  UNL1        0.1388
     18 O         -25.1430    3.9660   28.2430 O.2     1  UNL1       -0.2686
     19 C         -27.4380    3.0910   25.6450 C.2     1  UNL1        0.1025
     20 N         -28.0750    2.0890   25.0030 N.2     1  UNL1       -0.2118
     21 C         -27.5430    0.8490   25.0790 C.2     1  UNL1        0.2344
     22 O         -28.1930   -0.2080   24.4770 O.2     1  UNL1       -0.4585
     23 C         -29.4600    0.0050   23.8660 C.3     1  UNL1        0.2423
     24 C         -30.0650   -1.3770   23.5730 C.3     1  UNL1        0.2292
     25 O         -30.7290   -1.8780   24.7210 O.3     1  UNL1       -0.2162
     26 C         -26.3540    0.5760   25.7770 C.3     1  UNL1        0.2440
     27 F         -25.8600   -0.6810   25.7950 F       1  UNL1       -0.2265
     28 C         -22.0002    2.0498   25.5704 C.2     1  UNL1       -0.0218
     29 C         -23.3676    1.9262   25.5569 C.2     1  UNL1       -0.0084
     30 N         -23.7051    2.1675   30.5635 N.3     1  UNL1       -0.1837
     31 C         -24.8381   -0.2873   28.5695 C.3     1  UNL1        0.0315
     32 C         -25.2925    5.5400   32.7410 C.3     1  UNL1        0.2141
     33 C         -24.4694    3.2129   31.2739 C.3     1  UNL1        0.2349
     34 O         -24.7981    4.3579   30.7825 O.3     1  UNL1       -0.3336
     35 C         -23.0853    0.8834   29.8962 C.3     1  UNL1        0.1170
     36 C         -21.2144    1.8894   26.7157 C.3     1  UNL1        0.0517
     37 C         -23.9169    0.8362   27.8602 C.2     1  UNL1       -0.0283
     38 C         -24.2437    1.4491   26.6615 C.2     1  UNL1       -0.0196
     39 O         -24.0042    5.0083   32.9741 O.3     1  UNL1       -0.2176
     40 C         -25.6666    5.4449   31.2623 C.3     1  UNL1        0.1794
     41 C         -21.6100    1.6000   28.0146 C.2     1  UNL1       -0.0246
     42 C         -22.8198    1.1452   28.5453 C.2     1  UNL1       -0.0129
@<TRIPOS>BOND
     1     1    31    1
     2     2     7    1
     3     2     1    1
     4     3     2    2
     5     4     3    1
     6     4     5    2
     7     5     6    1
     8     6     7    2
     9     8     1    1
    10     8     9    1
    11     8    12    1
    12     9    10    1
    13    10    11    1
    14    12    11    1
    15    13    38    1
    16    14    13    1
    17    14    15    1
    18    15    18    2
    19    16    17    1
    20    16    15    1
    21    19    14    2
    22    20    21    2
    23    20    19    1
    24    21    26    1
    25    22    21    1
    26    23    22    1
    27    24    23    1
    28    24    25    1
    29    26    27    1
    30    26    13    1
    31    28    36    1
    32    29    28    2
    33    29    38    1
    34    30    33    1
    35    32    39    1
    36    34    40    1
    37    34    33    1
    38    35    30    1
    39    36    41    1
    40    37    42    1
    41    37    31    1
    42    38    37    2
    43    40    32    1
    44    41    42    2
    45    42    35    1
