@<TRIPOS>MOLECULE
outputs/IAG933/test6/raw/output_191_IAG933_linker_design_.xyz
 45 48 0 0 0
SMALL
GASTEIGER

@<TRIPOS>ATOM
      1 C         -24.8550   -1.0120   30.1430 C.3     1  UNL1        0.0543
      2 C         -24.9730   -2.5050   29.7880 C.2     1  UNL1       -0.0198
      3 C         -23.9060   -3.1730   29.1460 C.2     1  UNL1       -0.0042
      4 C         -23.9890   -4.5490   28.8530 C.2     1  UNL1       -0.0003
      5 C         -25.1370   -5.2800   29.2050 C.2     1  UNL1       -0.0000
      6 C         -26.2320   -4.6110   29.7840 C.2     1  UNL1       -0.0003
      7 C         -26.1550   -3.2320   30.0650 C.2     1  UNL1       -0.0042
      8 C         -25.3870   -0.6790   31.5710 C.3     1  UNL1        0.0782
      9 C         -25.1890    0.7730   32.0280 C.3     1  UNL1        0.0192
     10 C         -25.3360    0.6840   33.5440 C.3     1  UNL1        0.0202
     11 C         -24.8290   -0.7150   33.9050 C.3     1  UNL1        0.0887
     12 N         -24.7580   -1.4810   32.6460 N.3     1  UNL1       -0.2191
     13 C         -25.6880    1.6140   26.4610 C.3     1  UNL1        0.0861
     14 C         -26.2500    2.9200   26.3950 C.2     1  UNL1        0.0562
     15 C         -25.6420    4.0930   27.1230 C.2     1  UNL1        0.2625
     16 N         -25.6140    5.2520   26.4490 N.am    1  UNL1       -0.2000
     17 C         -25.0260    6.4790   26.9630 C.3     1  UNL1        0.1388
     18 O         -25.1430    3.9660   28.2430 O.2     1  UNL1       -0.2687
     19 C         -27.4380    3.0910   25.6450 C.2     1  UNL1        0.1022
     20 N         -28.0750    2.0890   25.0030 N.2     1  UNL1       -0.2119
     21 C         -27.5430    0.8490   25.0790 C.2     1  UNL1        0.2341
     22 O         -28.1930   -0.2080   24.4770 O.2     1  UNL1       -0.4585
     23 C         -29.4600    0.0050   23.8660 C.3     1  UNL1        0.2423
     24 C         -30.0650   -1.3770   23.5730 C.3     1  UNL1        0.2292
     25 O         -30.7290   -1.8780   24.7210 O.3     1  UNL1       -0.2162
     26 C         -26.3540    0.5760   25.7770 C.3     1  UNL1        0.2413
     27 F         -25.8600   -0.6810   25.7950 F       1  UNL1       -0.2268
     28 N         -24.9286    1.1107   28.7149 N.3     1  UNL1       -0.2201
     29 C         -21.0560    1.6569   27.2373 C.3     1  UNL1        0.0000
     30 C         -29.6474    4.4129   29.7367 C.2     1  UNL1       -0.0220
     31 C         -24.6836    1.2104   27.4280 C.3     1  UNL1        0.0801
     32 C         -30.9967    6.4874   30.9116 C.2     1  UNL1        0.1957
     33 C         -23.3947    0.8765   26.9184 C.3     1  UNL1        0.0178
     34 C         -26.7853   -0.6325   28.6609 C.3     1  UNL1        0.0178
     35 C         -22.2679    1.0610   27.9655 C.3     1  UNL1        0.0014
     36 C         -29.0627    5.1127   30.7871 C.2     1  UNL1       -0.0010
     37 C         -25.3316   -0.1337   28.9638 C.3     1  UNL1        0.0781
     38 C         -27.6537    0.0420   29.7150 C.3     1  UNL1        0.0015
     39 C         -29.1362    2.9793   29.4644 C.3     1  UNL1        0.0264
     40 C         -27.1894    1.4894   29.5735 C.3     1  UNL1        0.0004
     41 C         -27.8184    2.7686   30.2040 C.3     1  UNL1        0.0047
     42 C         -30.7347    4.9789   29.0782 C.2     1  UNL1       -0.0010
     43 O         -31.7318    7.4813   31.5511 O.2     1  UNL1       -0.2866
     44 C         -29.7553    6.1196   31.4205 C.2     1  UNL1        0.0417
     45 C         -31.4994    5.9406   29.7427 C.2     1  UNL1        0.0417
@<TRIPOS>BOND
     1     1    37    1
     2     2     7    1
     3     2     1    1
     4     3     2    2
     5     4     3    1
     6     4     5    2
     7     5     6    1
     8     6     7    2
     9     8     1    1
    10     8     9    1
    11     8    12    1
    12     9    10    1
    13    10    11    1
    14    12    11    1
    15    13    31    1
    16    14    13    1
    17    14    15    1
    18    15    18    2
    19    16    17    1
    20    16    15    1
    21    19    14    2
    22    20    21    2
    23    20    19    1
    24    21    26    1
    25    22    21    1
    26    23    22    1
    27    24    23    1
    28    24    25    1
    29    26    27    1
    30    26    13    1
    31    28    37    1
    32    29    35    1
    33    30    36    1
    34    31    33    1
    35    31    28    1
    36    32    44    1
    37    32    43    1
    38    33    35    1
    39    34    38    1
    40    36    44    2
    41    37    34    1
    42    39    30    1
    43    39    41    1
    44    40    38    1
    45    40    41    1
    46    42    30    2
    47    42    45    1
    48    45    32    2
