@<TRIPOS>MOLECULE
outputs/IAG933/test6/raw/output_1910_IAG933_linker_design_.xyz
 44 48 0 0 0
SMALL
GASTEIGER

@<TRIPOS>ATOM
      1 C         -24.8550   -1.0120   30.1430 C.3     1  UNL1        0.0534
      2 C         -24.9730   -2.5050   29.7880 C.2     1  UNL1       -0.0198
      3 C         -23.9060   -3.1730   29.1460 C.2     1  UNL1       -0.0042
      4 C         -23.9890   -4.5490   28.8530 C.2     1  UNL1       -0.0003
      5 C         -25.1370   -5.2800   29.2050 C.2     1  UNL1       -0.0000
      6 C         -26.2320   -4.6110   29.7840 C.2     1  UNL1       -0.0003
      7 C         -26.1550   -3.2320   30.0650 C.2     1  UNL1       -0.0042
      8 C         -25.3870   -0.6790   31.5710 C.3     1  UNL1        0.0781
      9 C         -25.1890    0.7730   32.0280 C.3     1  UNL1        0.0192
     10 C         -25.3360    0.6840   33.5440 C.3     1  UNL1        0.0202
     11 C         -24.8290   -0.7150   33.9050 C.3     1  UNL1        0.0887
     12 N         -24.7580   -1.4810   32.6460 N.3     1  UNL1       -0.2191
     13 C         -25.6880    1.6140   26.4610 C.2     1  UNL1        0.0306
     14 C         -26.2500    2.9200   26.3950 C.2     1  UNL1        0.0738
     15 C         -25.6420    4.0930   27.1230 C.2     1  UNL1        0.2662
     16 N         -25.6140    5.2520   26.4490 N.am    1  UNL1       -0.1997
     17 C         -25.0260    6.4790   26.9630 C.3     1  UNL1        0.1388
     18 O         -25.1430    3.9660   28.2430 O.2     1  UNL1       -0.2683
     19 C         -27.4380    3.0910   25.6450 C.2     1  UNL1        0.1065
     20 N         -28.0750    2.0890   25.0030 N.2     1  UNL1       -0.2081
     21 C         -27.5430    0.8490   25.0790 C.2     1  UNL1        0.2530
     22 O         -28.1930   -0.2080   24.4770 O.2     1  UNL1       -0.4558
     23 C         -29.4600    0.0050   23.8660 C.3     1  UNL1        0.2426
     24 C         -30.0650   -1.3770   23.5730 C.3     1  UNL1        0.2292
     25 O         -30.7290   -1.8780   24.7210 O.3     1  UNL1       -0.2162
     26 C         -26.3540    0.5760   25.7770 C.2     1  UNL1        0.1904
     27 F         -25.8600   -0.6810   25.7950 F       1  UNL1       -0.1995
     28 C         -27.5426    2.1693   29.2918 C.3     1  UNL1        0.0087
     29 C         -25.8375   -0.0960   29.1210 C.3     1  UNL1        0.0700
     30 C         -29.1987    1.5084   30.9723 C.3     1  UNL1        0.0078
     31 C         -29.5920    0.7469   29.6530 C.3     1  UNL1        0.0645
     32 C         -20.9147    1.8135   27.2867 C.2     1  UNL1       -0.0090
     33 C         -23.8345    0.9236   29.3976 C.3     1  UNL1        0.0767
     34 C         -23.1784    2.3720   25.5895 C.3     1  UNL1        0.0061
     35 C         -24.7613    1.2458   27.2861 C.3     1  UNL1        0.0863
     36 O         -28.4787   -1.3567   29.0358 O.2     1  UNL1       -0.2960
     37 C         -28.8372    4.0503   30.5405 C.3     1  UNL1        0.0000
     38 C         -28.2510    2.6140   30.5272 C.3     1  UNL1        0.0009
     39 C         -27.2763    0.7940   29.2688 C.3     1  UNL1        0.0726
     40 C         -22.1387    1.3134   27.5594 C.2     1  UNL1       -0.0415
     41 N         -24.7351    0.6401   28.5102 N.3     1  UNL1       -0.2702
     42 C         -28.3636   -0.1068   29.2574 C.2     1  UNL1        0.1516
     43 C         -23.3365    1.3384   26.7502 C.3     1  UNL1        0.0373
     44 C         -22.3808    0.7189   28.9738 C.3     1  UNL1        0.0394
@<TRIPOS>BOND
     1     1    29    1
     2     2     7    1
     3     2     1    1
     4     3     2    2
     5     4     3    1
     6     4     5    2
     7     5     6    1
     8     6     7    2
     9     8     1    1
    10     8     9    1
    11     8    12    1
    12     9    10    1
    13    10    11    1
    14    12    11    1
    15    14    13    1
    16    14    15    1
    17    15    18    2
    18    16    17    1
    19    16    15    1
    20    19    14    2
    21    20    21    2
    22    20    19    1
    23    21    26    1
    24    22    21    1
    25    23    22    1
    26    24    23    1
    27    24    25    1
    28    26    27    1
    29    26    13    2
    30    28    38    1
    31    29    41    1
    32    31    30    1
    33    32    40    2
    34    35    13    1
    35    35    41    1
    36    36    42    2
    37    38    37    1
    38    38    30    1
    39    39    29    1
    40    39    28    1
    41    40    44    1
    42    41    33    1
    43    42    39    1
    44    42    31    1
    45    43    34    1
    46    43    35    1
    47    43    40    1
    48    44    33    1
