@<TRIPOS>MOLECULE
No_1911-gen_results/8p0m/2024-11-27-11-27-31/
 35 39 0 0 0
SMALL
GASTEIGER

@<TRIPOS>ATOM
      1 C         -28.0162   -0.8135   28.8779 C.ar    1  UNL1        0.0372
      2 C         -27.0636   -0.1190   28.6079 C.ar    1  UNL1       -0.0004
      3 C         -26.8756    1.1325   28.9134 C.ar    1  UNL1       -0.0111
      4 C         -27.9014    1.8066   29.6436 C.ar    1  UNL1       -0.0004
      5 C         -28.9449    1.0388   30.0360 C.ar    1  UNL1        0.0372
      6 C         -29.0273   -0.2890   29.7051 C.ar    1  UNL1        0.1454
      7 C         -25.6959    1.9505   28.4764 C.3     1  UNL1        0.1030
      8 C         -24.7049    1.7243   28.1388 C.ar    1  UNL1       -0.0113
      9 C         -23.6089    2.6292   27.6365 C.ar    1  UNL1       -0.0035
     10 C         -22.3590    2.1173   27.2592 C.ar    1  UNL1       -0.0003
     11 C         -21.9815    0.7956   27.7434 C.ar    1  UNL1       -0.0000
     12 C         -22.8198    0.0178   28.4707 C.ar    1  UNL1       -0.0003
     13 C         -24.0719    0.4333   28.7052 C.ar    1  UNL1       -0.0035
     14 C         -26.1526    3.5033   28.3965 C.ar    1  UNL1        0.1483
     15 O         -30.0236   -1.1334   30.0767 O.3     1  UNL1       -0.4507
     16 C         -29.8267   -2.1854   30.8625 C.ar    1  UNL1        0.1775
     17 C         -28.9142   -2.2954   31.6042 C.ar    1  UNL1        0.1375
     18 C         -30.7825   -3.3108   30.5844 C.ar    1  UNL1        0.0860
     19 N         -28.7444   -3.5942   32.2403 N.ar    1  UNL1       -0.2390
     20 N         -31.7890   -3.1618   29.6541 N.pl3   1  UNL1       -0.3051
     21 C         -30.6309   -4.5300   31.2782 C.ar    1  UNL1        0.0383
     22 C         -29.5902   -4.5836   32.1764 C.ar    1  UNL1        0.1004
     23 C         -32.3277   -2.0756   29.3284 C.3     1  UNL1        0.0909
     24 C         -33.3272   -2.1084   28.2701 C.3     1  UNL1        0.0215
     25 C         -32.1850   -4.2537   28.8517 C.3     1  UNL1        0.0909
     26 C         -33.0251   -4.2796   27.8591 C.3     1  UNL1        0.0215
     27 C         -33.6278   -3.1260   27.5396 C.3     1  UNL1        0.0035
     28 N         -26.2661    4.2488   29.1777 N.ar    1  UNL1       -0.2136
     29 C         -26.5319    5.3567   29.3011 C.ar    1  UNL1        0.1547
     30 N         -26.2513    3.8256   27.1200 N.ar    1  UNL1       -0.2284
     31 C         -26.7341    6.0142   28.0529 C.ar    1  UNL1        0.0568
     32 C         -26.5090    5.1679   26.9327 C.ar    1  UNL1        0.1032
     33 N         -26.6333    6.1001   30.4323 N.pl3   1  UNL1       -0.1927
     34 C         -26.3283    6.1329   31.5055 C.2     1  UNL1        0.0874
     35 C         -25.8718    5.1315   32.1735 C.2     1  UNL1        0.0193
@<TRIPOS>BOND
     1     3     7    1
     2     7    14    1
     3     6    15    1
     4    15    16    1
     5    18    20    1
     6    20    23    1
     7    20    25    1
     8    24    27    1
     9    26    27    1
    10    29    33    1
    11    33    34    1
    12    34    35    2
    13     7     8    1
    14    23    24    1
    15    26    25    1
    16     1     2   ar
    17     2     3   ar
    18     3     4   ar
    19     4     5   ar
    20     5     6   ar
    21     6     1   ar
    22    14    28   ar
    23    28    29   ar
    24    29    31   ar
    25    31    32   ar
    26    32    30   ar
    27    30    14   ar
    28    16    17   ar
    29    17    19   ar
    30    19    22   ar
    31    22    21   ar
    32    21    18   ar
    33    18    16   ar
    34     8     9   ar
    35     9    10   ar
    36    10    11   ar
    37    11    12   ar
    38    12    13   ar
    39    13     8   ar
