@<TRIPOS>MOLECULE
outputs/IAG933/test6/raw/output_1913_IAG933_linker_design_.xyz
 42 46 0 0 0
SMALL
GASTEIGER

@<TRIPOS>ATOM
      1 C         -24.8550   -1.0120   30.1430 C.3     1  UNL1        0.0623
      2 C         -24.9730   -2.5050   29.7880 C.2     1  UNL1       -0.0193
      3 C         -23.9060   -3.1730   29.1460 C.2     1  UNL1       -0.0042
      4 C         -23.9890   -4.5490   28.8530 C.2     1  UNL1       -0.0003
      5 C         -25.1370   -5.2800   29.2050 C.2     1  UNL1       -0.0000
      6 C         -26.2320   -4.6110   29.7840 C.2     1  UNL1       -0.0003
      7 C         -26.1550   -3.2320   30.0650 C.2     1  UNL1       -0.0042
      8 C         -25.3870   -0.6790   31.5710 C.3     1  UNL1        0.0786
      9 C         -25.1890    0.7730   32.0280 C.3     1  UNL1        0.0193
     10 C         -25.3360    0.6840   33.5440 C.3     1  UNL1        0.0202
     11 C         -24.8290   -0.7150   33.9050 C.3     1  UNL1        0.0887
     12 N         -24.7580   -1.4810   32.6460 N.3     1  UNL1       -0.2191
     13 C         -25.6880    1.6140   26.4610 C.2     1  UNL1        0.2209
     14 C         -26.2500    2.9200   26.3950 C.2     1  UNL1        0.1175
     15 C         -25.6420    4.0930   27.1230 C.2     1  UNL1        0.2699
     16 N         -25.6140    5.2520   26.4490 N.am    1  UNL1       -0.1996
     17 C         -25.0260    6.4790   26.9630 C.3     1  UNL1        0.1388
     18 O         -25.1430    3.9660   28.2430 O.2     1  UNL1       -0.2682
     19 C         -27.4380    3.0910   25.6450 C.2     1  UNL1        0.1103
     20 N         -28.0750    2.0890   25.0030 N.2     1  UNL1       -0.2078
     21 C         -27.5430    0.8490   25.0790 C.2     1  UNL1        0.2569
     22 O         -28.1930   -0.2080   24.4770 O.2     1  UNL1       -0.4557
     23 C         -29.4600    0.0050   23.8660 C.3     1  UNL1        0.2426
     24 C         -30.0650   -1.3770   23.5730 C.3     1  UNL1        0.2292
     25 O         -30.7290   -1.8780   24.7210 O.3     1  UNL1       -0.2162
     26 C         -26.3540    0.5760   25.7770 C.2     1  UNL1        0.2336
     27 F         -25.8600   -0.6810   25.7950 F       1  UNL1       -0.1954
     28 C         -22.8512    2.1923   25.8929 C.2     1  UNL1        0.2637
     29 C         -27.0657   -0.2990   28.7340 C.2     1  UNL1        0.1382
     30 N         -28.9239   -0.4573   29.5078 N.2     1  UNL1       -0.1463
     31 C         -23.1133    0.8455   29.1717 C.3     1  UNL1        0.2275
     32 O         -21.4472    2.1468   26.2216 O.2     1  UNL1       -0.4249
     33 C         -21.2936    1.7009   27.4391 C.3     1  UNL1        0.4247
     34 N         -22.5797    1.4197   27.8927 N.pl3   1  UNL1       -0.1489
     35 C         -29.1019    0.8377   29.9143 C.2     1  UNL1        0.1235
     36 N         -24.5551    1.3841   26.9576 N.pl3   1  UNL1       -0.0052
     37 N         -25.5021    1.3912   29.1040 N.pl3   1  UNL1       -0.2331
     38 C         -23.5388    1.6762   26.9319 C.2     1  UNL1        0.3548
     39 N         -28.0738   -1.0441   28.8348 N.2     1  UNL1       -0.1450
     40 C         -24.5205    0.1858   29.1459 C.3     1  UNL1        0.1445
     41 C         -28.0335    1.6589   29.7253 C.2     1  UNL1        0.0402
     42 C         -26.8933    0.9586   29.1956 C.2     1  UNL1        0.0879
@<TRIPOS>BOND
     1     1    40    1
     2     2     7    1
     3     2     1    1
     4     3     2    2
     5     4     3    1
     6     4     5    2
     7     5     6    1
     8     6     7    2
     9     8     1    1
    10     8     9    1
    11     8    12    1
    12     9    10    1
    13    10    11    1
    14    12    11    1
    15    13    36    1
    16    14    13    1
    17    14    15    1
    18    15    18    2
    19    16    17    1
    20    16    15    1
    21    19    14    2
    22    20    21    2
    23    20    19    1
    24    21    26    1
    25    22    21    1
    26    23    22    1
    27    24    23    1
    28    24    25    1
    29    26    27    1
    30    26    13    2
    31    28    32    1
    32    28    38    2
    33    29    39    2
    34    29    42    1
    35    30    35    2
    36    32    33    1
    37    33    34    1
    38    34    31    1
    39    37    40    1
    40    37    42    1
    41    38    36    1
    42    38    34    1
    43    39    30    1
    44    40    31    1
    45    41    35    1
    46    42    41    2
