@<TRIPOS>MOLECULE
outputs/IAG933/test6/raw/output_1914_IAG933_linker_design_.xyz
 42 45 0 0 0
SMALL
GASTEIGER

@<TRIPOS>ATOM
      1 C         -24.8550   -1.0120   30.1430 C.3     1  UNL1        0.1226
      2 C         -24.9730   -2.5050   29.7880 C.2     1  UNL1       -0.0024
      3 C         -23.9060   -3.1730   29.1460 C.2     1  UNL1       -0.0026
      4 C         -23.9890   -4.5490   28.8530 C.2     1  UNL1       -0.0003
      5 C         -25.1370   -5.2800   29.2050 C.2     1  UNL1       -0.0000
      6 C         -26.2320   -4.6110   29.7840 C.2     1  UNL1       -0.0003
      7 C         -26.1550   -3.2320   30.0650 C.2     1  UNL1       -0.0026
      8 C         -25.3870   -0.6790   31.5710 C.3     1  UNL1        0.0956
      9 C         -25.1890    0.7730   32.0280 C.3     1  UNL1        0.0209
     10 C         -25.3360    0.6840   33.5440 C.3     1  UNL1        0.0203
     11 C         -24.8290   -0.7150   33.9050 C.3     1  UNL1        0.0888
     12 N         -24.7580   -1.4810   32.6460 N.3     1  UNL1       -0.2174
     13 C         -25.6880    1.6140   26.4610 C.2     1  UNL1        0.1236
     14 C         -26.2500    2.9200   26.3950 C.2     1  UNL1        0.0943
     15 C         -25.6420    4.0930   27.1230 C.2     1  UNL1        0.2679
     16 N         -25.6140    5.2520   26.4490 N.am    1  UNL1       -0.1997
     17 C         -25.0260    6.4790   26.9630 C.3     1  UNL1        0.1388
     18 O         -25.1430    3.9660   28.2430 O.2     1  UNL1       -0.2683
     19 C         -27.4380    3.0910   25.6450 C.2     1  UNL1        0.1083
     20 N         -28.0750    2.0890   25.0030 N.2     1  UNL1       -0.2080
     21 C         -27.5430    0.8490   25.0790 C.2     1  UNL1        0.2548
     22 O         -28.1930   -0.2080   24.4770 O.2     1  UNL1       -0.4558
     23 C         -29.4600    0.0050   23.8660 C.3     1  UNL1        0.2426
     24 C         -30.0650   -1.3770   23.5730 C.3     1  UNL1        0.2292
     25 O         -30.7290   -1.8780   24.7210 O.3     1  UNL1       -0.2162
     26 C         -26.3540    0.5760   25.7770 C.2     1  UNL1        0.2107
     27 F         -25.8600   -0.6810   25.7950 F       1  UNL1       -0.1976
     28 C         -29.3216    0.9599   31.3893 C.2     1  UNL1        0.0182
     29 C         -21.8124    1.4872   27.2165 C.3     1  UNL1        0.0513
     30 O         -23.3753    0.3830   28.7787 O.2     1  UNL1       -0.4494
     31 C         -28.2259    0.9839   30.5826 C.2     1  UNL1        0.0059
     32 C         -30.6628    1.0327   29.4290 C.2     1  UNL1        0.0182
     33 C         -22.4869    1.5299   28.5915 C.3     1  UNL1        0.2086
     34 N         -24.7283    1.1964   27.2853 N.2     1  UNL1       -0.1951
     35 O         -27.5921   -1.5093   29.1798 O.2     1  UNL1       -0.2694
     36 N         -31.3006    2.1297   31.5928 N.pl3   1  UNL1       -0.1281
     37 C         -29.5831    0.5370   28.6809 C.2     1  UNL1        0.0059
     38 C         -24.5941    0.4843   28.4087 C.2     1  UNL1        0.2941
     39 N         -25.5745   -0.2359   29.1641 N.am    1  UNL1       -0.2068
     40 C         -27.1851   -0.5077   29.1076 C.2     1  UNL1        0.2562
     41 C         -28.3093    0.4664   29.2999 C.2     1  UNL1        0.0541
     42 C         -30.4803    1.3019   30.8029 C.2     1  UNL1        0.0891
@<TRIPOS>BOND
     1     1    39    1
     2     2     7    1
     3     2     1    1
     4     3     2    2
     5     4     3    1
     6     4     5    2
     7     5     6    1
     8     6     7    2
     9     8     1    1
    10     8     9    1
    11     8    12    1
    12     9    10    1
    13    10    11    1
    14    12    11    1
    15    13    34    1
    16    14    13    1
    17    14    15    1
    18    15    18    2
    19    16    17    1
    20    16    15    1
    21    19    14    2
    22    20    21    2
    23    20    19    1
    24    21    26    1
    25    22    21    1
    26    23    22    1
    27    24    23    1
    28    24    25    1
    29    26    27    1
    30    26    13    2
    31    29    33    1
    32    31    28    2
    33    32    42    2
    34    33    30    1
    35    34    38    2
    36    37    41    2
    37    37    32    1
    38    38    30    1
    39    38    39    1
    40    40    39   am
    41    40    35    2
    42    40    41    1
    43    41    31    1
    44    42    28    1
    45    42    36    1
