@<TRIPOS>MOLECULE
outputs/IAG933/test6/raw/output_1916_IAG933_linker_design_.xyz
 41 45 0 0 0
SMALL
GASTEIGER

@<TRIPOS>ATOM
      1 C         -24.8550   -1.0120   30.1430 C.3     1  UNL1        0.1142
      2 C         -24.9730   -2.5050   29.7880 C.2     1  UNL1       -0.0029
      3 C         -23.9060   -3.1730   29.1460 C.2     1  UNL1       -0.0026
      4 C         -23.9890   -4.5490   28.8530 C.2     1  UNL1       -0.0003
      5 C         -25.1370   -5.2800   29.2050 C.2     1  UNL1       -0.0000
      6 C         -26.2320   -4.6110   29.7840 C.2     1  UNL1       -0.0003
      7 C         -26.1550   -3.2320   30.0650 C.2     1  UNL1       -0.0026
      8 C         -25.3870   -0.6790   31.5710 C.3     1  UNL1        0.0951
      9 C         -25.1890    0.7730   32.0280 C.3     1  UNL1        0.0209
     10 C         -25.3360    0.6840   33.5440 C.3     1  UNL1        0.0203
     11 C         -24.8290   -0.7150   33.9050 C.3     1  UNL1        0.0888
     12 N         -24.7580   -1.4810   32.6460 N.3     1  UNL1       -0.2174
     13 C         -25.6880    1.6140   26.4610 C.3     1  UNL1        0.0964
     14 C         -26.2500    2.9200   26.3950 C.2     1  UNL1        0.0590
     15 C         -25.6420    4.0930   27.1230 C.2     1  UNL1        0.2628
     16 N         -25.6140    5.2520   26.4490 N.am    1  UNL1       -0.2000
     17 C         -25.0260    6.4790   26.9630 C.3     1  UNL1        0.1388
     18 O         -25.1430    3.9660   28.2430 O.2     1  UNL1       -0.2686
     19 C         -27.4380    3.0910   25.6450 C.2     1  UNL1        0.1025
     20 N         -28.0750    2.0890   25.0030 N.2     1  UNL1       -0.2118
     21 C         -27.5430    0.8490   25.0790 C.2     1  UNL1        0.2344
     22 O         -28.1930   -0.2080   24.4770 O.2     1  UNL1       -0.4585
     23 C         -29.4600    0.0050   23.8660 C.3     1  UNL1        0.2423
     24 C         -30.0650   -1.3770   23.5730 C.3     1  UNL1        0.2292
     25 O         -30.7290   -1.8780   24.7210 O.3     1  UNL1       -0.2162
     26 C         -26.3540    0.5760   25.7770 C.3     1  UNL1        0.2441
     27 F         -25.8600   -0.6810   25.7950 F       1  UNL1       -0.2265
     28 C         -25.2844    0.6795   28.5976 C.2     1  UNL1        0.2454
     29 C         -23.3742    1.2970   27.1993 C.2     1  UNL1        0.0512
     30 F         -23.4158    2.1427   25.0079 F       1  UNL1       -0.1962
     31 C         -22.8133    1.9333   26.0319 C.3     1  UNL1        0.3305
     32 C         -21.7746   -0.9527   29.4325 C.3     1  UNL1        0.1649
     33 O         -26.5144    0.3728   28.6429 O.2     1  UNL1       -0.2702
     34 C         -21.0164    0.9024   27.9967 C.3     1  UNL1        0.1782
     35 C         -22.4272    1.0483   28.3544 C.3     1  UNL1        0.1923
     36 N         -24.3140   -0.1426   29.2431 N.am    1  UNL1       -0.2691
     37 C         -24.6751    1.1771   27.4848 C.2     1  UNL1        0.0380
     38 O         -20.6152   -0.2309   28.4735 O.3     1  UNL1       -0.3489
     39 O         -21.6093    2.3692   26.3076 O.3     1  UNL1       -0.1794
     40 C         -22.9062   -0.2582   29.0218 C.3     1  UNL1        0.1394
     41 O         -22.5434    2.0839   29.3665 O.3     1  UNL1       -0.2169
@<TRIPOS>BOND
     1     1     2    1
     2     2     7    1
     3     3     2    2
     4     4     3    1
     5     4     5    2
     6     5     6    1
     7     6     7    2
     8     8     1    1
     9     8     9    1
    10     8    12    1
    11     9    10    1
    12    10    11    1
    13    12    11    1
    14    13    37    1
    15    14    13    1
    16    14    15    1
    17    15    18    2
    18    16    17    1
    19    16    15    1
    20    19    14    2
    21    20    21    2
    22    20    19    1
    23    21    26    1
    24    22    21    1
    25    23    22    1
    26    24    23    1
    27    24    25    1
    28    26    27    1
    29    26    13    1
    30    28    33    2
    31    28    36   am
    32    29    37    2
    33    29    35    1
    34    31    30    1
    35    31    39    1
    36    31    29    1
    37    34    35    1
    38    34    38    1
    39    35    40    1
    40    35    41    1
    41    36     1    1
    42    37    28    1
    43    38    32    1
    44    40    36    1
    45    40    32    1
