@<TRIPOS>MOLECULE
No_1918-gen_results/8p0m/2024-11-27-11-27-31/
 10 10 0 0 0
SMALL
GASTEIGER

@<TRIPOS>ATOM
      1 C         -28.0162   -0.8135   28.8779 C.ar    1  UNL1       -0.0001
      2 C         -28.4690   -0.7850   29.8287 C.ar    1  UNL1       -0.0000
      3 C         -27.1356    0.2359   28.5352 C.ar    1  UNL1        0.0039
      4 C         -26.8745    1.2825   29.3982 C.ar    1  UNL1        0.0714
      5 C         -25.9742    2.3797   29.0831 C.3     1  UNL1        0.4186
      6 C         -28.3915    0.1302   30.9603 C.ar    1  UNL1       -0.0001
      7 C         -27.5035    1.2424   30.6700 C.ar    1  UNL1        0.0039
      8 F         -25.7177    3.1112   30.0353 F       1  UNL1       -0.1659
      9 F         -26.5719    3.2063   28.1479 F       1  UNL1       -0.1659
     10 F         -24.8401    1.9102   28.5437 F       1  UNL1       -0.1659
@<TRIPOS>BOND
     1     4     5    1
     2     5     8    1
     3     5     9    1
     4     5    10    1
     5     1     2   ar
     6     2     6   ar
     7     6     7   ar
     8     7     4   ar
     9     4     3   ar
    10     3     1   ar
