@<TRIPOS>MOLECULE
No_1920-gen_results/8p0m/2024-11-27-11-27-31/
 16 17 0 0 0
SMALL
GASTEIGER

@<TRIPOS>ATOM
      1 C         -28.0162   -0.8135   28.8779 C.ar    1  UNL1        0.0039
      2 C         -27.0636   -0.1190   28.6079 C.ar    1  UNL1       -0.0001
      3 C         -25.7923   -0.4302   29.0761 C.ar    1  UNL1       -0.0000
      4 C         -25.5756   -1.5654   29.9363 C.ar    1  UNL1       -0.0001
      5 C         -26.7354   -2.3004   30.2173 C.ar    1  UNL1        0.0039
      6 C         -27.9184   -1.9537   29.7629 C.ar    1  UNL1        0.0714
      7 C         -27.1057    1.1023   27.7593 C.ar    1  UNL1       -0.0000
      8 C         -26.7157    2.2350   27.9945 C.ar    1  UNL1       -0.0000
      9 C         -26.6929    3.3459   27.0337 C.ar    1  UNL1       -0.0000
     10 C         -27.1962    3.0779   25.7437 C.ar    1  UNL1        0.0000
     11 C         -27.7806    0.8281   26.4619 C.ar    1  UNL1       -0.0000
     12 C         -27.7471    1.8245   25.4924 C.ar    1  UNL1       -0.0000
     13 C         -29.0616   -2.7838   30.2116 C.3     1  UNL1        0.4186
     14 F         -30.0575   -2.4925   29.8033 F       1  UNL1       -0.1659
     15 F         -28.9877   -2.7694   31.5869 F       1  UNL1       -0.1659
     16 F         -28.7620   -4.0743   29.9103 F       1  UNL1       -0.1659
@<TRIPOS>BOND
     1     2     7    1
     2     6    13    1
     3    13    14    1
     4    13    15    1
     5    13    16    1
     6     7     8   ar
     7     8     9   ar
     8     9    10   ar
     9    10    12   ar
    10    12    11   ar
    11    11     7   ar
    12     1     2   ar
    13     2     3   ar
    14     3     4   ar
    15     4     5   ar
    16     5     6   ar
    17     6     1   ar
