@<TRIPOS>MOLECULE
outputs/IAG933/test6/raw/output_1921_IAG933_linker_design_.xyz
 43 47 0 0 0
SMALL
GASTEIGER

@<TRIPOS>ATOM
      1 C         -24.8550   -1.0120   30.1430 C.3     1  UNL1        0.1153
      2 C         -24.9730   -2.5050   29.7880 C.2     1  UNL1       -0.0125
      3 C         -23.9060   -3.1730   29.1460 C.2     1  UNL1       -0.0038
      4 C         -23.9890   -4.5490   28.8530 C.2     1  UNL1       -0.0003
      5 C         -25.1370   -5.2800   29.2050 C.2     1  UNL1       -0.0000
      6 C         -26.2320   -4.6110   29.7840 C.2     1  UNL1       -0.0003
      7 C         -26.1550   -3.2320   30.0650 C.2     1  UNL1       -0.0038
      8 C         -25.3870   -0.6790   31.5710 C.3     1  UNL1        0.0855
      9 C         -25.1890    0.7730   32.0280 C.3     1  UNL1        0.0197
     10 C         -25.3360    0.6840   33.5440 C.3     1  UNL1        0.0203
     11 C         -24.8290   -0.7150   33.9050 C.3     1  UNL1        0.0887
     12 N         -24.7580   -1.4810   32.6460 N.3     1  UNL1       -0.2186
     13 C         -25.6880    1.6140   26.4610 C.2     1  UNL1        0.0204
     14 C         -26.2500    2.9200   26.3950 C.2     1  UNL1        0.0707
     15 C         -25.6420    4.0930   27.1230 C.2     1  UNL1        0.2230
     16 N         -25.6140    5.2520   26.4490 N.2     1  UNL1       -0.2356
     17 C         -25.0260    6.4790   26.9630 C.3     1  UNL1        0.1550
     18 O         -25.1430    3.9660   28.2430 O.2     1  UNL1       -0.4439
     19 C         -27.4380    3.0910   25.6450 C.2     1  UNL1        0.1065
     20 N         -28.0750    2.0890   25.0030 N.2     1  UNL1       -0.2081
     21 C         -27.5430    0.8490   25.0790 C.2     1  UNL1        0.2530
     22 O         -28.1930   -0.2080   24.4770 O.2     1  UNL1       -0.4558
     23 C         -29.4600    0.0050   23.8660 C.3     1  UNL1        0.2426
     24 C         -30.0650   -1.3770   23.5730 C.3     1  UNL1        0.2292
     25 O         -30.7290   -1.8780   24.7210 O.3     1  UNL1       -0.2162
     26 C         -26.3540    0.5760   25.7770 C.2     1  UNL1        0.1894
     27 F         -25.8600   -0.6810   25.7950 F       1  UNL1       -0.1996
     28 C         -23.3977    0.9111   28.1593 C.2     1  UNL1        0.0533
     29 C         -23.3465    1.4013   27.1692 C.2     1  UNL1       -0.0039
     30 C         -26.2297    5.1020   31.6800 C.3     1  UNL1        0.0647
     31 O         -26.7374   -0.2290   28.8581 O.2     1  UNL1       -0.2741
     32 C         -24.4266    1.3102   27.0888 C.3     1  UNL1        0.0565
     33 C         -21.0320    0.6662   28.2070 C.2     1  UNL1        0.0013
     34 O         -27.5281    3.5794   30.2679 O.2     1  UNL1       -0.2959
     35 C         -25.0557    2.7104   28.9951 C.3     1  UNL1        0.2592
     36 C         -21.0246    1.5409   27.1209 C.2     1  UNL1       -0.0002
     37 C         -22.2243    1.8620   26.5561 C.2     1  UNL1       -0.0027
     38 C         -26.4283    3.9335   30.6911 C.2     1  UNL1        0.1562
     39 C         -25.5541   -0.0858   29.1448 C.2     1  UNL1        0.2368
     40 C         -25.1761    3.1844   30.4298 C.3     1  UNL1        0.1303
     41 C         -22.2339    0.3034   28.7847 C.2     1  UNL1        0.0147
     42 C         -27.2704    6.1728   31.3653 C.3     1  UNL1        0.0082
     43 N         -24.5856    1.0935   29.0589 N.am    1  UNL1       -0.2251
@<TRIPOS>BOND
     1     1    39    1
     2     2     7    1
     3     2     1    1
     4     3     2    2
     5     4     3    1
     6     4     5    2
     7     5     6    1
     8     6     7    2
     9     8     1    1
    10     8     9    1
    11     8    12    1
    12     9    10    1
    13    10    11    1
    14    12    11    1
    15    13    32    1
    16    14    13    1
    17    14    15    1
    18    15    18    1
    19    16    17    1
    20    16    15    2
    21    18    35    1
    22    19    14    2
    23    20    21    2
    24    20    19    1
    25    21    26    1
    26    22    21    1
    27    23    22    1
    28    24    23    1
    29    24    25    1
    30    26    27    1
    31    26    13    2
    32    28    41    1
    33    28    43    1
    34    29    28    2
    35    31    39    2
    36    32    29    1
    37    33    41    2
    38    34    38    2
    39    35    43    1
    40    35    40    1
    41    36    33    1
    42    37    36    2
    43    37    29    1
    44    38    30    1
    45    40    38    1
    46    42    30    1
    47    43    39   am
