@<TRIPOS>MOLECULE
outputs/IAG933/test6/raw/output_1929_IAG933_linker_design_.xyz
 39 42 0 0 0
SMALL
GASTEIGER

@<TRIPOS>ATOM
      1 C         -24.8550   -1.0120   30.1430 C.3     1  UNL1        0.0713
      2 C         -24.9730   -2.5050   29.7880 C.2     1  UNL1       -0.0163
      3 C         -23.9060   -3.1730   29.1460 C.2     1  UNL1       -0.0039
      4 C         -23.9890   -4.5490   28.8530 C.2     1  UNL1       -0.0003
      5 C         -25.1370   -5.2800   29.2050 C.2     1  UNL1       -0.0000
      6 C         -26.2320   -4.6110   29.7840 C.2     1  UNL1       -0.0003
      7 C         -26.1550   -3.2320   30.0650 C.2     1  UNL1       -0.0039
      8 C         -25.3870   -0.6790   31.5710 C.3     1  UNL1        0.0816
      9 C         -25.1890    0.7730   32.0280 C.3     1  UNL1        0.0195
     10 C         -25.3360    0.6840   33.5440 C.3     1  UNL1        0.0203
     11 C         -24.8290   -0.7150   33.9050 C.3     1  UNL1        0.0887
     12 N         -24.7580   -1.4810   32.6460 N.3     1  UNL1       -0.2188
     13 C         -25.6880    1.6140   26.4610 C.2     1  UNL1        0.0932
     14 C         -26.2500    2.9200   26.3950 C.2     1  UNL1        0.0903
     15 C         -25.6420    4.0930   27.1230 C.2     1  UNL1        0.2676
     16 N         -25.6140    5.2520   26.4490 N.am    1  UNL1       -0.1997
     17 C         -25.0260    6.4790   26.9630 C.3     1  UNL1        0.1388
     18 O         -25.1430    3.9660   28.2430 O.2     1  UNL1       -0.2683
     19 C         -27.4380    3.0910   25.6450 C.2     1  UNL1        0.1080
     20 N         -28.0750    2.0890   25.0030 N.2     1  UNL1       -0.2080
     21 C         -27.5430    0.8490   25.0790 C.2     1  UNL1        0.2546
     22 O         -28.1930   -0.2080   24.4770 O.2     1  UNL1       -0.4558
     23 C         -29.4600    0.0050   23.8660 C.3     1  UNL1        0.2426
     24 C         -30.0650   -1.3770   23.5730 C.3     1  UNL1        0.2292
     25 O         -30.7290   -1.8780   24.7210 O.3     1  UNL1       -0.2162
     26 C         -26.3540    0.5760   25.7770 C.2     1  UNL1        0.2067
     27 F         -25.8600   -0.6810   25.7950 F       1  UNL1       -0.1979
     28 N         -24.5791    1.3350   27.0501 N.pl3   1  UNL1       -0.2403
     29 C         -23.3971    1.6489   26.4342 C.3     1  UNL1        0.3533
     30 N         -22.1995    1.7269   27.0356 N.2     1  UNL1       -0.1787
     31 F         -23.3467    2.0105   25.1385 F       1  UNL1       -0.1856
     32 C         -25.5957   -0.1413   29.0716 C.2     1  UNL1        0.0626
     33 N         -28.1106   -0.6414   28.7804 N.1     1  UNL1       -0.1911
     34 C         -26.9500   -0.3951   28.8937 C.1     1  UNL1        0.0974
     35 C         -23.3297    0.4196   28.7389 C.3     1  UNL1        0.1576
     36 F         -20.5014    0.9506   27.9024 F       1  UNL1       -0.1646
     37 C         -24.6081    0.6419   28.2097 C.2     1  UNL1        0.0607
     38 C         -21.7836    0.9389   27.9852 C.2     1  UNL1        0.2950
     39 N         -22.3149    0.2265   28.8066 N.pl3   1  UNL1       -0.1892
@<TRIPOS>BOND
     1     1    32    1
     2     2     7    1
     3     2     1    1
     4     3     2    2
     5     4     3    1
     6     4     5    2
     7     5     6    1
     8     6     7    2
     9     8     1    1
    10     8     9    1
    11     8    12    1
    12     9    10    1
    13    10    11    1
    14    12    11    1
    15    13    28    1
    16    14    13    1
    17    14    15    1
    18    15    18    2
    19    16    17    1
    20    16    15    1
    21    19    14    2
    22    20    21    2
    23    20    19    1
    24    21    26    1
    25    22    21    1
    26    23    22    1
    27    24    23    1
    28    24    25    1
    29    26    27    1
    30    26    13    2
    31    28    37    1
    32    29    31    1
    33    29    30    1
    34    29    28    1
    35    30    38    2
    36    33    34    3
    37    34    32    1
    38    35    39    1
    39    36    38    1
    40    37    35    1
    41    37    32    2
    42    38    39    1
