@<TRIPOS>MOLECULE
outputs/IAG933/test6/raw/output_193_IAG933_linker_design_.xyz
 40 43 0 0 0
SMALL
GASTEIGER

@<TRIPOS>ATOM
      1 C         -24.8550   -1.0120   30.1430 C.3     1  UNL1        0.1210
      2 C         -24.9730   -2.5050   29.7880 C.2     1  UNL1       -0.0025
      3 C         -23.9060   -3.1730   29.1460 C.2     1  UNL1       -0.0026
      4 C         -23.9890   -4.5490   28.8530 C.2     1  UNL1       -0.0003
      5 C         -25.1370   -5.2800   29.2050 C.2     1  UNL1       -0.0000
      6 C         -26.2320   -4.6110   29.7840 C.2     1  UNL1       -0.0003
      7 C         -26.1550   -3.2320   30.0650 C.2     1  UNL1       -0.0026
      8 C         -25.3870   -0.6790   31.5710 C.3     1  UNL1        0.0956
      9 C         -25.1890    0.7730   32.0280 C.3     1  UNL1        0.0209
     10 C         -25.3360    0.6840   33.5440 C.3     1  UNL1        0.0203
     11 C         -24.8290   -0.7150   33.9050 C.3     1  UNL1        0.0888
     12 N         -24.7580   -1.4810   32.6460 N.3     1  UNL1       -0.2174
     13 C         -25.6880    1.6140   26.4610 C.2     1  UNL1        0.1059
     14 C         -26.2500    2.9200   26.3950 C.2     1  UNL1        0.0928
     15 C         -25.6420    4.0930   27.1230 C.2     1  UNL1        0.2678
     16 N         -25.6140    5.2520   26.4490 N.am    1  UNL1       -0.1997
     17 C         -25.0260    6.4790   26.9630 C.3     1  UNL1        0.1388
     18 O         -25.1430    3.9660   28.2430 O.2     1  UNL1       -0.2683
     19 C         -27.4380    3.0910   25.6450 C.2     1  UNL1        0.1082
     20 N         -28.0750    2.0890   25.0030 N.2     1  UNL1       -0.2080
     21 C         -27.5430    0.8490   25.0790 C.2     1  UNL1        0.2548
     22 O         -28.1930   -0.2080   24.4770 O.2     1  UNL1       -0.4558
     23 C         -29.4600    0.0050   23.8660 C.3     1  UNL1        0.2426
     24 C         -30.0650   -1.3770   23.5730 C.3     1  UNL1        0.2292
     25 O         -30.7290   -1.8780   24.7210 O.3     1  UNL1       -0.2162
     26 C         -26.3540    0.5760   25.7770 C.2     1  UNL1        0.2091
     27 F         -25.8600   -0.6810   25.7950 F       1  UNL1       -0.1977
     28 N         -27.1798    1.4326   29.1952 N.am    1  UNL1       -0.0688
     29 O         -27.3728   -0.7724   28.4473 O.2     1  UNL1       -0.2486
     30 N         -25.3086    0.0193   29.1583 N.am    1  UNL1       -0.2217
     31 C         -24.3569    0.6466   28.4050 C.ar    1  UNL1        0.1453
     32 N         -22.3949   -0.1766   29.8786 N.pl3   1  UNL1       -0.1226
     33 O         -22.8656    2.4415   25.8973 O.3     1  UNL1       -0.4554
     34 C         -22.2843    1.2423   27.8739 C.ar    1  UNL1        0.2109
     35 C         -23.2480    1.6511   26.9370 C.ar    1  UNL1        0.2408
     36 C         -23.0217    0.5027   28.8227 C.ar    1  UNL1        0.1516
     37 F         -20.9658    1.5019   27.9209 F       1  UNL1       -0.1977
     38 C         -26.6702    0.1913   28.9387 C.2     1  UNL1        0.3480
     39 C         -23.1256    2.2837   24.4891 C.3     1  UNL1        0.2543
     40 N         -24.4958    1.2915   27.2517 N.ar    1  UNL1       -0.2603
@<TRIPOS>BOND
     1     1    30    1
     2     2     7    1
     3     2     1    1
     4     3     2    2
     5     4     3    1
     6     4     5    2
     7     5     6    1
     8     6     7    2
     9     8     1    1
    10     8     9    1
    11     8    12    1
    12     9    10    1
    13    10    11    1
    14    12    11    1
    15    13    40    1
    16    14    13    1
    17    14    15    1
    18    15    18    2
    19    16    17    1
    20    16    15    1
    21    19    14    2
    22    20    21    2
    23    20    19    1
    24    21    26    1
    25    22    21    1
    26    23    22    1
    27    24    23    1
    28    24    25    1
    29    26    27    1
    30    26    13    2
    31    29    38    2
    32    31    36   ar
    33    31    30    1
    34    33    35    1
    35    34    37    1
    36    34    36   ar
    37    35    40   ar
    38    35    34   ar
    39    36    32    1
    40    38    30   am
    41    38    28    1
    42    39    33    1
    43    40    31   ar
