@<TRIPOS>MOLECULE
outputs/IAG933/test6/raw/output_1933_IAG933_linker_design_.xyz
 44 47 0 0 0
SMALL
GASTEIGER

@<TRIPOS>ATOM
      1 C         -24.8550   -1.0120   30.1430 C.3     1  UNL1        0.0424
      2 C         -24.9730   -2.5050   29.7880 C.2     1  UNL1       -0.0208
      3 C         -23.9060   -3.1730   29.1460 C.2     1  UNL1       -0.0042
      4 C         -23.9890   -4.5490   28.8530 C.2     1  UNL1       -0.0003
      5 C         -25.1370   -5.2800   29.2050 C.2     1  UNL1       -0.0000
      6 C         -26.2320   -4.6110   29.7840 C.2     1  UNL1       -0.0003
      7 C         -26.1550   -3.2320   30.0650 C.2     1  UNL1       -0.0042
      8 C         -25.3870   -0.6790   31.5710 C.3     1  UNL1        0.0771
      9 C         -25.1890    0.7730   32.0280 C.3     1  UNL1        0.0192
     10 C         -25.3360    0.6840   33.5440 C.3     1  UNL1        0.0202
     11 C         -24.8290   -0.7150   33.9050 C.3     1  UNL1        0.0887
     12 N         -24.7580   -1.4810   32.6460 N.3     1  UNL1       -0.2191
     13 C         -25.6880    1.6140   26.4610 C.2     1  UNL1        0.0378
     14 C         -26.2500    2.9200   26.3950 C.2     1  UNL1        0.0765
     15 C         -25.6420    4.0930   27.1230 C.2     1  UNL1        0.2664
     16 N         -25.6140    5.2520   26.4490 N.am    1  UNL1       -0.1997
     17 C         -25.0260    6.4790   26.9630 C.3     1  UNL1        0.1388
     18 O         -25.1430    3.9660   28.2430 O.2     1  UNL1       -0.2683
     19 C         -27.4380    3.0910   25.6450 C.2     1  UNL1        0.1067
     20 N         -28.0750    2.0890   25.0030 N.2     1  UNL1       -0.2081
     21 C         -27.5430    0.8490   25.0790 C.2     1  UNL1        0.2533
     22 O         -28.1930   -0.2080   24.4770 O.2     1  UNL1       -0.4558
     23 C         -29.4600    0.0050   23.8660 C.3     1  UNL1        0.2426
     24 C         -30.0650   -1.3770   23.5730 C.3     1  UNL1        0.2292
     25 O         -30.7290   -1.8780   24.7210 O.3     1  UNL1       -0.2162
     26 C         -26.3540    0.5760   25.7770 C.2     1  UNL1        0.1930
     27 F         -25.8600   -0.6810   25.7950 F       1  UNL1       -0.1992
     28 C         -22.1622    1.7173   27.6150 C.2     1  UNL1        0.2235
     29 N         -22.3063    1.4788   28.8107 N.2     1  UNL1       -0.2169
     30 C         -27.1902    4.2529   30.5241 C.3     1  UNL1        0.1741
     31 C         -26.6718   -0.5382   28.5368 C.3     1  UNL1        0.0049
     32 C         -23.1735    1.6058   26.6884 C.2     1  UNL1        0.0892
     33 C         -22.9951    1.6222   25.2347 C.3     1  UNL1        0.3447
     34 C         -25.3014   -0.3067   29.0075 C.3     1  UNL1        0.0292
     35 C         -24.3911    0.5282   28.3863 C.2     1  UNL1       -0.0029
     36 F         -21.5835    1.8371   25.2716 F       1  UNL1       -0.1931
     37 C         -24.4299    1.3207   27.1848 C.2     1  UNL1        0.0050
     38 C         -28.4706    2.3905   29.5151 C.3     1  UNL1        0.1423
     39 F         -20.8386    1.9492   27.4171 F       1  UNL1       -0.1834
     40 F         -23.6964    0.5827   24.5823 F       1  UNL1       -0.1931
     41 C         -28.1512    0.9384   29.5135 C.3     1  UNL1        0.0321
     42 C         -27.4301    0.5525   28.2970 C.3     1  UNL1        0.0029
     43 C         -23.2262    0.5389   29.1073 C.2     1  UNL1        0.0970
     44 O         -27.3577    3.1654   29.7986 O.3     1  UNL1       -0.3511
@<TRIPOS>BOND
     1     1    34    1
     2     2     7    1
     3     2     1    1
     4     3     2    2
     5     4     3    1
     6     4     5    2
     7     5     6    1
     8     6     7    2
     9     8     1    1
    10     8     9    1
    11     8    12    1
    12     9    10    1
    13    10    11    1
    14    12    11    1
    15    13    37    1
    16    14    13    1
    17    14    15    1
    18    15    18    2
    19    16    17    1
    20    16    15    1
    21    19    14    2
    22    20    21    2
    23    20    19    1
    24    21    26    1
    25    22    21    1
    26    23    22    1
    27    24    23    1
    28    24    25    1
    29    26    27    1
    30    26    13    2
    31    28    29    1
    32    29    43    2
    33    32    37    1
    34    32    28    2
    35    33    36    1
    36    33    32    1
    37    34    31    1
    38    35    34    1
    39    35    43    1
    40    37    35    2
    41    38    44    1
    42    39    28    1
    43    40    33    1
    44    41    38    1
    45    42    31    1
    46    42    41    1
    47    44    30    1
