@<TRIPOS>MOLECULE
outputs/IAG933/test6/raw/output_1936_IAG933_linker_design_.xyz
 43 47 0 0 0
SMALL
GASTEIGER

@<TRIPOS>ATOM
      1 C         -24.8550   -1.0120   30.1430 C.3     1  UNL1        0.0963
      2 C         -24.9730   -2.5050   29.7880 C.2     1  UNL1       -0.0064
      3 C         -23.9060   -3.1730   29.1460 C.2     1  UNL1       -0.0029
      4 C         -23.9890   -4.5490   28.8530 C.2     1  UNL1       -0.0003
      5 C         -25.1370   -5.2800   29.2050 C.2     1  UNL1       -0.0000
      6 C         -26.2320   -4.6110   29.7840 C.2     1  UNL1       -0.0003
      7 C         -26.1550   -3.2320   30.0650 C.2     1  UNL1       -0.0029
      8 C         -25.3870   -0.6790   31.5710 C.3     1  UNL1        0.0916
      9 C         -25.1890    0.7730   32.0280 C.3     1  UNL1        0.0206
     10 C         -25.3360    0.6840   33.5440 C.3     1  UNL1        0.0203
     11 C         -24.8290   -0.7150   33.9050 C.3     1  UNL1        0.0888
     12 N         -24.7580   -1.4810   32.6460 N.3     1  UNL1       -0.2178
     13 C         -25.6880    1.6140   26.4610 C.3     1  UNL1        0.0729
     14 C         -26.2500    2.9200   26.3950 C.2     1  UNL1        0.0549
     15 C         -25.6420    4.0930   27.1230 C.2     1  UNL1        0.2624
     16 N         -25.6140    5.2520   26.4490 N.am    1  UNL1       -0.2000
     17 C         -25.0260    6.4790   26.9630 C.3     1  UNL1        0.1388
     18 O         -25.1430    3.9660   28.2430 O.2     1  UNL1       -0.2687
     19 C         -27.4380    3.0910   25.6450 C.2     1  UNL1        0.1021
     20 N         -28.0750    2.0890   25.0030 N.2     1  UNL1       -0.2119
     21 C         -27.5430    0.8490   25.0790 C.2     1  UNL1        0.2341
     22 O         -28.1930   -0.2080   24.4770 O.2     1  UNL1       -0.4585
     23 C         -29.4600    0.0050   23.8660 C.3     1  UNL1        0.2423
     24 C         -30.0650   -1.3770   23.5730 C.3     1  UNL1        0.2292
     25 O         -30.7290   -1.8780   24.7210 O.3     1  UNL1       -0.2162
     26 C         -26.3540    0.5760   25.7770 C.3     1  UNL1        0.2401
     27 F         -25.8600   -0.6810   25.7950 F       1  UNL1       -0.2269
     28 N         -24.8429    0.1963   29.3526 N.3     1  UNL1       -0.2677
     29 S         -28.1581   -0.8137   28.9253 S.3     1  UNL1       -0.0622
     30 C         -25.5065    0.5580   28.6587 C.3     1  UNL1        0.0801
     31 C         -22.6062    0.6651   28.4255 C.3     1  UNL1        0.1992
     32 O         -30.7762    1.7431   27.9483 O.3     1  UNL1       -0.3354
     33 C         -29.5443   -0.3068   27.9503 C.2     1  UNL1        0.2370
     34 O         -30.7595   -0.8006   27.5833 O.2     1  UNL1       -0.2809
     35 C         -24.0407    0.7695   28.3388 C.3     1  UNL1        0.0927
     36 C         -29.6063    1.0667   28.1230 C.3     1  UNL1        0.2318
     37 O         -20.3264    1.3999   28.1712 O.3     1  UNL1       -0.2175
     38 C         -27.1316    0.6426   28.7799 C.3     1  UNL1        0.1189
     39 C         -31.2661    1.8434   29.2828 C.3     1  UNL1        0.1757
     40 S         -28.2014    1.9381   28.5956 S.3     1  UNL1       -0.0916
     41 C         -21.6157    1.6072   27.7456 C.3     1  UNL1        0.2161
     42 O         -22.0826   -0.2451   29.2085 O.3     1  UNL1       -0.2189
     43 C         -24.9309    1.3582   27.5729 C.3     1  UNL1        0.0410
@<TRIPOS>BOND
     1     1     2    1
     2     2     7    1
     3     3     2    2
     4     4     3    1
     5     4     5    2
     6     5     6    1
     7     6     7    2
     8     8     1    1
     9     8     9    1
    10     8    12    1
    11     9    10    1
    12    10    11    1
    13    12    11    1
    14    13    14    1
    15    14    15    1
    16    15    18    2
    17    16    17    1
    18    16    15    1
    19    19    14    2
    20    20    21    2
    21    20    19    1
    22    21    26    1
    23    22    21    1
    24    23    22    1
    25    24    23    1
    26    24    25    1
    27    26    27    1
    28    26    13    1
    29    28     1    1
    30    30    38    1
    31    30    28    1
    32    31    42    1
    33    32    39    1
    34    33    36    1
    35    33    29    1
    36    34    33    2
    37    35    31    1
    38    35    28    1
    39    36    32    1
    40    36    40    1
    41    38    40    1
    42    38    29    1
    43    41    37    1
    44    41    31    1
    45    43    13    1
    46    43    35    1
    47    43    30    1
