@<TRIPOS>MOLECULE
No_1937-gen_results/8p0m/2024-11-27-11-27-31/
 20 22 0 0 0
SMALL
GASTEIGER

@<TRIPOS>ATOM
      1 C         -28.0162   -0.8135   28.8779 C.ar    1  UNL1        0.0045
      2 C         -27.0636   -0.1189   28.6079 C.ar    1  UNL1        0.0001
      3 C         -25.7647   -0.3897   29.0360 C.ar    1  UNL1        0.0000
      4 C         -25.5296   -1.5302   29.9014 C.ar    1  UNL1        0.0001
      5 C         -26.6577   -2.2915   30.2035 C.ar    1  UNL1        0.0045
      6 C         -27.8548   -1.9555   29.7630 C.ar    1  UNL1        0.0536
      7 C         -24.5441    0.4126   28.7379 C.ar    1  UNL1        0.0000
      8 C         -24.4731    1.2065   27.7114 C.ar    1  UNL1        0.0000
      9 C         -23.2779    1.8420   27.3661 C.ar    1  UNL1        0.0000
     10 C         -22.1821    1.5539   28.0423 C.ar    1  UNL1        0.0000
     11 C         -23.3822    0.3526   29.6390 C.ar    1  UNL1        0.0000
     12 C         -22.1679    0.8728   29.2085 C.ar    1  UNL1        0.0000
     13 C         -29.0251   -2.7823   30.1644 C.2     1  UNL1        0.2490
     14 N         -29.3619   -2.7284   31.3383 N.am    1  UNL1       -0.2761
     15 C         -29.8931   -3.7466   31.9877 C.3     1  UNL1        0.0937
     16 C         -29.2633   -1.5584   32.0575 C.3     1  UNL1        0.0937
     17 C         -29.6950   -1.4977   33.4079 C.3     1  UNL1        0.0216
     18 C         -30.3188   -3.7733   33.3993 C.3     1  UNL1        0.0216
     19 C         -30.1904   -2.5850   34.0690 C.3     1  UNL1        0.0035
     20 O         -29.5283   -3.5228   29.3659 O.2     1  UNL1       -0.2699
@<TRIPOS>BOND
     1     3     7    1
     2     6    13    1
     3    13    14   am
     4    14    15    1
     5    14    16    1
     6    17    19    1
     7    18    19    1
     8    13    20    2
     9    15    18    1
    10    17    16    1
    11     7     8   ar
    12     8     9   ar
    13     9    10   ar
    14    10    12   ar
    15    12    11   ar
    16    11     7   ar
    17     1     2   ar
    18     2     3   ar
    19     3     4   ar
    20     4     5   ar
    21     5     6   ar
    22     6     1   ar
