@<TRIPOS>MOLECULE
No_1938-gen_results/8p0m/2024-11-27-11-27-31/
 14 15 0 0 0
SMALL
GASTEIGER

@<TRIPOS>ATOM
      1 C         -28.0162   -0.8135   28.8779 C.ar    1  UNL1        0.0075
      2 C         -27.0636   -0.1189   28.6079 C.ar    1  UNL1       -0.0169
      3 C         -25.7923   -0.4302   29.0761 C.ar    1  UNL1       -0.0039
      4 C         -25.5756   -1.5654   29.9363 C.ar    1  UNL1        0.0006
      5 C         -26.7354   -2.3004   30.2173 C.ar    1  UNL1        0.0114
      6 C         -27.9184   -1.9537   29.7629 C.ar    1  UNL1        0.0574
      7 CL        -29.2090   -2.9956   30.2439 Cl      1  UNL1       -0.0823
      8 C         -27.1188    1.1066   27.7637 C.3     1  UNL1        0.0526
      9 C         -26.6210    2.1820   27.8854 C.ar    1  UNL1       -0.0178
     10 C         -26.6570    3.2808   26.9327 C.ar    1  UNL1       -0.0039
     11 C         -25.9531    4.5554   27.0979 C.ar    1  UNL1       -0.0003
     12 C         -25.1349    4.6248   28.2136 C.ar    1  UNL1       -0.0000
     13 C         -25.0253    3.5791   29.1061 C.ar    1  UNL1       -0.0003
     14 C         -25.6561    2.4356   28.9718 C.ar    1  UNL1       -0.0039
@<TRIPOS>BOND
     1     6     7    1
     2     2     8    1
     3     8     9    1
     4     1     2   ar
     5     2     3   ar
     6     3     4   ar
     7     4     5   ar
     8     5     6   ar
     9     6     1   ar
    10     9    10   ar
    11    10    11   ar
    12    11    12   ar
    13    12    13   ar
    14    13    14   ar
    15    14     9   ar
