@<TRIPOS>MOLECULE
No_194-gen_results/8p0m/2024-11-27-11-27-31/
 16 16 0 0 0
SMALL
GASTEIGER

@<TRIPOS>ATOM
      1 C         -28.0162   -0.8135   28.8779 C.ar    1  UNL1        0.0045
      2 C         -28.4690   -0.7850   29.8287 C.ar    1  UNL1        0.0539
      3 C         -26.5455   -0.8762   28.8500 C.ar    1  UNL1        0.0001
      4 C         -25.8041   -1.0324   30.0571 C.ar    1  UNL1        0.0000
      5 C         -27.9437   -0.9869   31.2075 C.ar    1  UNL1        0.0045
      6 C         -26.5825   -1.0386   31.2231 C.ar    1  UNL1        0.0001
      7 C         -30.0606   -0.7371   29.9024 C.2     1  UNL1        0.2528
      8 O         -30.7252   -1.5544   30.2697 O.2     1  UNL1       -0.2696
      9 N         -30.5245    0.5663   29.6971 N.am    1  UNL1       -0.2522
     10 C         -31.9302    0.7636   29.6237 C.3     1  UNL1        0.1204
     11 C         -29.6836    1.6912   29.3393 C.2     1  UNL1        0.0678
     12 C         -29.5347    2.2109   28.2744 C.2     1  UNL1        0.0162
     13 C         -28.5885    3.2634   28.0150 C.2     1  UNL1        0.0013
     14 C         -28.2886    3.7890   26.7633 C.2     1  UNL1        0.0000
     15 C         -29.0642    3.2837   25.6333 C.2     1  UNL1        0.0000
     16 C         -29.9819    2.3059   25.8576 C.2     1  UNL1        0.0000
@<TRIPOS>BOND
     1     2     7    1
     2     7     8    2
     3     7     9   am
     4     9    10    1
     5     9    11    1
     6    11    12    2
     7    12    13    1
     8    13    14    2
     9    14    15    1
    10    15    16    2
    11     1     2   ar
    12     2     5   ar
    13     5     6   ar
    14     6     4   ar
    15     4     3   ar
    16     3     1   ar
