@<TRIPOS>MOLECULE
No_1941-gen_results/8p0m/2024-11-27-11-27-31/
 35 37 0 0 0
SMALL
GASTEIGER

@<TRIPOS>ATOM
      1 C         -28.0162   -0.8135   28.8779 C.ar    1  UNL1        0.0088
      2 C         -27.0636   -0.1189   28.6079 C.ar    1  UNL1        0.0299
      3 C         -27.0010    0.6913   27.4910 C.ar    1  UNL1        0.0022
      4 C         -27.1778    1.9037   27.5632 C.ar    1  UNL1        0.0001
      5 C         -28.0594   -1.3960   30.2136 C.ar    1  UNL1        0.0780
      6 C         -29.1724   -2.2387   30.6532 C.2     1  UNL1        0.3414
      7 C         -26.8829   -1.3391   31.0806 C.ar    1  UNL1        0.0384
      8 C         -25.7799   -0.6702   30.6617 C.ar    1  UNL1        0.1676
      9 C         -25.7889    0.0256   29.4631 C.ar    1  UNL1        0.1673
     10 C         -26.7019    0.0450   26.1854 C.ar    1  UNL1        0.0001
     11 C         -27.1896    2.7861   26.3632 C.ar    1  UNL1        0.0000
     12 C         -26.7293    0.7718   24.9736 C.ar    1  UNL1        0.0000
     13 C         -26.9269    2.1809   25.0417 C.ar    1  UNL1        0.0000
     14 O         -29.0564   -3.4376   30.8165 O.2     1  UNL1       -0.2449
     15 O         -30.3669   -1.7786   30.3401 O.3     1  UNL1       -0.4427
     16 F         -24.8346    0.7199   29.1032 F       1  UNL1       -0.2018
     17 F         -24.7498   -0.5910   31.3832 F       1  UNL1       -0.2018
     18 C         -31.4174   -2.0617   31.0000 C.3     1  UNL1        0.2397
     19 C         -32.3922   -2.1636   30.3120 C.3     1  UNL1        0.1818
     20 O         -32.6053   -1.4594   29.3304 O.3     1  UNL1       -0.3481
     21 C         -32.6907   -3.6791   29.7525 C.3     1  UNL1        0.1846
     22 C         -33.5616   -3.7355   28.8597 C.3     1  UNL1        0.4129
     23 F         -33.9913   -4.7729   28.4413 F       1  UNL1       -0.1684
     24 F         -32.9654   -3.1432   27.6099 F       1  UNL1       -0.1684
     25 F         -34.7373   -2.9547   28.8519 F       1  UNL1       -0.1684
     26 N         -33.0520   -4.5123   30.8948 N.3     1  UNL1       -0.2648
     27 C         -33.5979   -4.2708   31.9527 C.3     1  UNL1        0.0729
     28 C         -33.7908   -5.3409   32.8519 C.3     1  UNL1        0.0286
     29 C         -32.4517   -5.8991   30.8030 C.3     1  UNL1        0.0729
     30 C         -32.6365   -6.8602   31.6590 C.3     1  UNL1        0.0286
     31 C         -33.3253   -6.5405   32.7856 C.3     1  UNL1        0.1062
     32 C         -33.5613   -7.5824   33.7886 C.2     1  UNL1        0.3644
     33 O         -33.6636   -7.3765   34.9071 O.co2   1  UNL1       -0.2457
     34 O         -33.8960   -8.7451   33.2362 O.co2   1  UNL1       -0.2457
     35 C         -33.2338   -0.2574   29.5321 C.3     1  UNL1        0.1742
@<TRIPOS>BOND
     1     2     3    1
     2     5     6    1
     3     6    14    2
     4     6    15    1
     5     9    16    1
     6     8    17    1
     7    15    18    1
     8    18    19    1
     9    19    20    1
    10    19    21    1
    11    21    22    1
    12    22    23    1
    13    22    24    1
    14    22    25    1
    15    21    26    1
    16    26    27    1
    17    26    29    1
    18    28    31    1
    19    30    31    1
    20    31    32    1
    21    32    33   ar
    22    32    34   ar
    23    20    35    1
    24    27    28    1
    25    30    29    1
    26     1     2   ar
    27     2     9   ar
    28     9     8   ar
    29     8     7   ar
    30     7     5   ar
    31     5     1   ar
    32     3     4   ar
    33     4    11   ar
    34    11    13   ar
    35    13    12   ar
    36    12    10   ar
    37    10     3   ar
