@<TRIPOS>MOLECULE
No_1945-gen_results/8p0m/2024-11-27-11-27-31/
 15 16 0 0 0
SMALL
GASTEIGER

@<TRIPOS>ATOM
      1 O         -28.1229   -1.3353   28.4874 O.2     1  UNL1       -0.2680
      2 C         -28.5208   -0.4363   29.0779 C.2     1  UNL1        0.2690
      3 C         -28.5894    0.5916   28.9464 C.ar    1  UNL1        0.0554
      4 N         -29.1246   -0.9399   30.4266 N.am    1  UNL1       -0.1754
      5 C         -27.6200    1.2738   28.1389 C.ar    1  UNL1        0.0046
      6 C         -27.1304    2.5005   28.1391 C.ar    1  UNL1        0.0001
      7 C         -27.3522    3.2713   29.2975 C.ar    1  UNL1        0.0000
      8 C         -28.3576    2.8028   30.1255 C.ar    1  UNL1        0.0001
      9 C         -28.7582    1.5192   30.0619 C.ar    1  UNL1        0.0046
     10 C         -29.2926   -1.9755   30.8641 C.ar    1  UNL1        0.0737
     11 C         -28.8773   -3.1566   30.1914 C.ar    1  UNL1        0.0166
     12 C         -29.4993   -4.4782   30.5660 C.ar    1  UNL1        0.0013
     13 C         -29.5946   -4.7702   31.7688 C.ar    1  UNL1        0.0001
     14 C         -29.8306   -3.6526   32.7267 C.ar    1  UNL1        0.0013
     15 C         -29.7636   -2.3441   32.2499 C.ar    1  UNL1        0.0166
@<TRIPOS>BOND
     1     1     2    2
     2     2     3    1
     3     2     4   am
     4     4    10    1
     5     3     5   ar
     6     5     6   ar
     7     6     7   ar
     8     7     8   ar
     9     8     9   ar
    10     9     3   ar
    11    10    11   ar
    12    11    12   ar
    13    12    13   ar
    14    13    14   ar
    15    14    15   ar
    16    15    10   ar
