@<TRIPOS>MOLECULE
outputs/IAG933/test6/raw/output_1948_IAG933_linker_design_.xyz
 39 41 0 0 0
SMALL
GASTEIGER

@<TRIPOS>ATOM
      1 C         -24.8550   -1.0120   30.1430 C.3     1  UNL1        0.1334
      2 C         -24.9730   -2.5050   29.7880 C.2     1  UNL1       -0.0012
      3 C         -23.9060   -3.1730   29.1460 C.2     1  UNL1       -0.0026
      4 C         -23.9890   -4.5490   28.8530 C.2     1  UNL1       -0.0003
      5 C         -25.1370   -5.2800   29.2050 C.2     1  UNL1       -0.0000
      6 C         -26.2320   -4.6110   29.7840 C.2     1  UNL1       -0.0003
      7 C         -26.1550   -3.2320   30.0650 C.2     1  UNL1       -0.0026
      8 C         -25.3870   -0.6790   31.5710 C.3     1  UNL1        0.0969
      9 C         -25.1890    0.7730   32.0280 C.3     1  UNL1        0.0210
     10 C         -25.3360    0.6840   33.5440 C.3     1  UNL1        0.0203
     11 C         -24.8290   -0.7150   33.9050 C.3     1  UNL1        0.0888
     12 N         -24.7580   -1.4810   32.6460 N.3     1  UNL1       -0.2174
     13 C         -25.6880    1.6140   26.4610 C.2     1  UNL1        0.0120
     14 C         -26.2500    2.9200   26.3950 C.2     1  UNL1        0.0531
     15 C         -25.6420    4.0930   27.1230 C.2     1  UNL1        0.2622
     16 N         -25.6140    5.2520   26.4490 N.am    1  UNL1       -0.2000
     17 C         -25.0260    6.4790   26.9630 C.3     1  UNL1        0.1388
     18 O         -25.1430    3.9660   28.2430 O.2     1  UNL1       -0.2687
     19 C         -27.4380    3.0910   25.6450 C.3     1  UNL1        0.1588
     20 N         -28.0750    2.0890   25.0030 N.2     1  UNL1       -0.2341
     21 C         -27.5430    0.8490   25.0790 C.2     1  UNL1        0.2338
     22 O         -28.1930   -0.2080   24.4770 O.2     1  UNL1       -0.4585
     23 C         -29.4600    0.0050   23.8660 C.3     1  UNL1        0.2423
     24 C         -30.0650   -1.3770   23.5730 C.3     1  UNL1        0.2292
     25 O         -30.7290   -1.8780   24.7210 O.3     1  UNL1       -0.2162
     26 C         -26.3540    0.5760   25.7770 C.3     1  UNL1        0.2546
     27 F         -25.8600   -0.6810   25.7950 F       1  UNL1       -0.2227
     28 O         -26.6535   -0.6382   28.2031 O.2     1  UNL1       -0.2726
     29 C         -23.1118    1.7625   24.8592 C.3     1  UNL1        0.3422
     30 O         -22.4398    0.2327   29.9824 O.2     1  UNL1       -0.2316
     31 O         -21.9494    1.8452   25.6929 O.3     1  UNL1       -0.3024
     32 C         -25.5067    0.2148   28.2972 C.2     1  UNL1        0.2497
     33 C         -23.3169    1.1960   27.6964 C.2     1  UNL1        0.0877
     34 N         -25.1372   -0.1486   29.1034 N.am    1  UNL1       -0.2007
     35 F         -23.5670    0.7806   24.7731 F       1  UNL1       -0.1979
     36 C         -22.1552    1.4450   27.0270 C.3     1  UNL1        0.2389
     37 N         -20.9150    1.1979   27.5959 N.3     1  UNL1       -0.0947
     38 C         -24.7699    1.2592   27.3509 C.3     1  UNL1        0.1315
     39 C         -23.1020    0.5795   28.9099 C.1     1  UNL1        0.1293
@<TRIPOS>BOND
     1     1    34    1
     2     2     7    1
     3     2     1    1
     4     3     2    2
     5     4     3    1
     6     4     5    2
     7     5     6    1
     8     6     7    2
     9     8     1    1
    10     8     9    1
    11     8    12    1
    12     9    10    1
    13    10    11    1
    14    12    11    1
    15    13    38    1
    16    14    13    2
    17    14    15    1
    18    15    18    2
    19    16    17    1
    20    16    15    1
    21    19    14    1
    22    20    21    2
    23    20    19    1
    24    21    26    1
    25    22    21    1
    26    23    22    1
    27    24    23    1
    28    24    25    1
    29    26    27    1
    30    26    13    1
    31    28    32    2
    32    29    31    1
    33    31    36    1
    34    32    34    1
    35    33    39    2
    36    35    29    1
    37    36    37    1
    38    36    33    1
    39    38    33    1
    40    38    32    1
    41    39    30    2
