@<TRIPOS>MOLECULE
No_1950-gen_results/8p0m/2024-11-27-11-27-31/
 14 15 0 0 0
SMALL
GASTEIGER

@<TRIPOS>ATOM
      1 C         -28.0162   -0.8135   28.8779 C.ar    1  UNL1        0.0025
      2 C         -27.0636   -0.1189   28.6079 C.ar    1  UNL1        0.0308
      3 C         -26.9716    0.7139   27.5060 C.2     1  UNL1        0.1733
      4 C         -25.8205    1.4910   27.1160 C.3     1  UNL1        0.0807
      5 C         -24.6562    1.4242   27.9180 C.3     1  UNL1        0.1154
      6 C         -24.6847    0.5901   29.0659 C.3     1  UNL1        0.0381
      7 C         -25.8099   -0.1265   29.3338 C.ar    1  UNL1       -0.0189
      8 C         -28.0445   -1.5734   30.1690 C.ar    1  UNL1        0.0001
      9 C         -26.8172   -1.7595   30.8704 C.ar    1  UNL1       -0.0003
     10 C         -25.7477   -0.9917   30.5376 C.ar    1  UNL1       -0.0042
     11 C         -23.4587    2.2281   27.5845 C.2     1  UNL1        0.3651
     12 O         -22.3400    1.9846   28.1432 O.co2   1  UNL1       -0.2456
     13 O         -23.5395    3.0997   26.6568 O.co2   1  UNL1       -0.2456
     14 O         -27.9884    0.7835   26.6586 O.2     1  UNL1       -0.2913
@<TRIPOS>BOND
     1     2     3    1
     2     3     4    1
     3     4     5    1
     4     5     6    1
     5     5    11    1
     6    11    12   ar
     7    11    13   ar
     8     3    14    2
     9     7     6    1
    10     1     2   ar
    11     2     7   ar
    12     7    10   ar
    13    10     9   ar
    14     9     8   ar
    15     8     1   ar
