@<TRIPOS>MOLECULE
outputs/IAG933/test6/raw/output_1954_IAG933_linker_design_.xyz
 42 45 0 0 0
SMALL
GASTEIGER

@<TRIPOS>ATOM
      1 C         -24.8550   -1.0120   30.1430 C.3     1  UNL1        0.1984
      2 C         -24.9730   -2.5050   29.7880 C.2     1  UNL1        0.0213
      3 C         -23.9060   -3.1730   29.1460 C.2     1  UNL1       -0.0004
      4 C         -23.9890   -4.5490   28.8530 C.2     1  UNL1       -0.0002
      5 C         -25.1370   -5.2800   29.2050 C.2     1  UNL1       -0.0000
      6 C         -26.2320   -4.6110   29.7840 C.2     1  UNL1       -0.0002
      7 C         -26.1550   -3.2320   30.0650 C.2     1  UNL1       -0.0004
      8 C         -25.3870   -0.6790   31.5710 C.3     1  UNL1        0.1197
      9 C         -25.1890    0.7730   32.0280 C.3     1  UNL1        0.0233
     10 C         -25.3360    0.6840   33.5440 C.3     1  UNL1        0.0204
     11 C         -24.8290   -0.7150   33.9050 C.3     1  UNL1        0.0889
     12 N         -24.7580   -1.4810   32.6460 N.3     1  UNL1       -0.2150
     13 C         -25.6880    1.6140   26.4610 C.2     1  UNL1        0.0484
     14 C         -26.2500    2.9200   26.3950 C.2     1  UNL1        0.0769
     15 C         -25.6420    4.0930   27.1230 C.2     1  UNL1        0.2664
     16 N         -25.6140    5.2520   26.4490 N.am    1  UNL1       -0.1997
     17 C         -25.0260    6.4790   26.9630 C.3     1  UNL1        0.1388
     18 O         -25.1430    3.9660   28.2430 O.2     1  UNL1       -0.2683
     19 C         -27.4380    3.0910   25.6450 C.2     1  UNL1        0.1067
     20 N         -28.0750    2.0890   25.0030 N.2     1  UNL1       -0.2081
     21 C         -27.5430    0.8490   25.0790 C.2     1  UNL1        0.2533
     22 O         -28.1930   -0.2080   24.4770 O.2     1  UNL1       -0.4558
     23 C         -29.4600    0.0050   23.8660 C.3     1  UNL1        0.2426
     24 C         -30.0650   -1.3770   23.5730 C.3     1  UNL1        0.2292
     25 O         -30.7290   -1.8780   24.7210 O.3     1  UNL1       -0.2162
     26 C         -26.3540    0.5760   25.7770 C.2     1  UNL1        0.1934
     27 F         -25.8600   -0.6810   25.7950 F       1  UNL1       -0.1992
     28 C         -31.5265    1.0649   33.0843 C.3     1  UNL1        0.1741
     29 C         -29.7239    0.1125   30.7856 C.3     1  UNL1        0.0322
     30 C         -26.6198   -0.3987   28.4461 C.3     1  UNL1        0.2025
     31 N         -23.0203    0.3448   28.8459 N.2     1  UNL1       -0.0361
     32 N         -25.2954   -0.1571   28.9705 N.pl3   1  UNL1       -0.1890
     33 C         -29.0460   -0.0083   29.5460 C.3     1  UNL1        0.0068
     34 C         -27.5736    0.4864   29.3019 C.3     1  UNL1        0.0509
     35 C         -24.2903    0.5640   28.2860 C.2     1  UNL1        0.3273
     36 C         -23.2375    1.9188   26.5447 C.2     1  UNL1        0.2067
     37 C         -24.4395    1.3525   27.1494 C.2     1  UNL1        0.1237
     38 C         -21.9707    0.9898   28.3778 C.2     1  UNL1        0.2390
     39 C         -29.8628    1.4972   31.3013 C.3     1  UNL1        0.1423
     40 O         -30.9025    1.6010   32.2087 O.3     1  UNL1       -0.3511
     41 O         -23.2496    2.5039   25.3660 O.2     1  UNL1       -0.2862
     42 C         -22.0518    1.7949   27.2491 C.2     1  UNL1        0.0927
@<TRIPOS>BOND
     1     1    32    1
     2     2     7    1
     3     2     1    1
     4     3     2    2
     5     4     3    1
     6     4     5    2
     7     5     6    1
     8     6     7    2
     9     8     1    1
    10     8     9    1
    11     8    12    1
    12     9    10    1
    13    10    11    1
    14    12    11    1
    15    13    37    1
    16    14    13    1
    17    14    15    1
    18    15    18    2
    19    16    17    1
    20    16    15    1
    21    19    14    2
    22    20    21    2
    23    20    19    1
    24    21    26    1
    25    22    21    1
    26    23    22    1
    27    24    23    1
    28    24    25    1
    29    26    27    1
    30    26    13    2
    31    29    39    1
    32    30    32    1
    33    30    34    1
    34    33    29    1
    35    34    33    1
    36    35    31    2
    37    35    32    1
    38    36    37    2
    39    36    42    1
    40    37    35    1
    41    38    31    1
    42    39    40    1
    43    40    28    1
    44    41    36    1
    45    42    38    2
