@<TRIPOS>MOLECULE
No_1961-gen_results/8p0m/2024-11-27-11-27-31/
 18 19 0 0 0
SMALL
GASTEIGER

@<TRIPOS>ATOM
      1 C         -28.0162   -0.8135   28.8779 C.ar    1  UNL1        0.0114
      2 C         -28.4690   -0.7850   29.8287 C.ar    1  UNL1        0.0009
      3 C         -28.1960    0.3478   28.0550 C.ar    1  UNL1        0.0577
      4 C         -29.0191    1.3501   28.3782 C.ar    1  UNL1        0.0114
      5 C         -29.4107    0.1803   30.3782 C.ar    1  UNL1        0.0000
      6 C         -29.6059    1.2495   29.6193 C.ar    1  UNL1        0.0009
      7 CL        -27.2503    0.2232   26.6092 Cl      1  UNL1       -0.0822
      8 C         -30.0440   -0.0195   31.7549 C.ar    1  UNL1       -0.0003
      9 C         -30.1707   -1.0256   32.3231 C.ar    1  UNL1       -0.0000
     10 C         -30.8354   -1.1656   33.5839 C.ar    1  UNL1       -0.0003
     11 C         -31.3449   -0.0115   34.1805 C.ar    1  UNL1       -0.0029
     12 C         -31.2068    1.1576   33.5474 C.ar    1  UNL1       -0.0019
     13 C         -30.5561    1.2550   32.3382 C.ar    1  UNL1       -0.0029
     14 C         -31.7310    2.4157   34.1414 C.3     1  UNL1        0.1686
     15 CL        -32.1116    2.5792   35.5933 Cl      1  UNL1       -0.1042
     16 C         -31.9253    3.5294   33.2131 C.3     1  UNL1        0.3373
     17 F         -32.7430    4.1578   33.4878 F       1  UNL1       -0.1967
     18 F         -30.6867    4.2277   33.2565 F       1  UNL1       -0.1967
@<TRIPOS>BOND
     1     3     7    1
     2     5     8    1
     3    12    14    1
     4    14    15    1
     5    14    16    1
     6    16    17    1
     7    16    18    1
     8     8     9   ar
     9     9    10   ar
    10    10    11   ar
    11    11    12   ar
    12    12    13   ar
    13    13     8   ar
    14     1     2   ar
    15     2     5   ar
    16     5     6   ar
    17     6     4   ar
    18     4     3   ar
    19     3     1   ar
