@<TRIPOS>MOLECULE
No_1962-gen_results/8p0m/2024-11-27-11-27-31/
 8 7 0 0 0
SMALL
GASTEIGER

@<TRIPOS>ATOM
      1 CL        -28.1493   -0.8198   28.9079 Cl      1  UNL1       -0.0719
      2 C         -28.5324   -0.0471   29.7727 C.3     1  UNL1        0.2617
      3 F         -29.6682   -0.0995   30.1894 F       1  UNL1       -0.2143
      4 C         -27.6716    0.9796   30.3307 C.2     1  UNL1        0.0253
      5 C         -27.6814    1.3448   31.2901 C.2     1  UNL1       -0.0009
      6 C         -26.7580    2.3849   31.9162 C.2     1  UNL1       -0.0048
      7 C         -25.7125    2.8516   31.0490 C.2     1  UNL1       -0.0258
      8 C         -25.6548    2.2797   29.7978 C.3     1  UNL1        0.0307
@<TRIPOS>BOND
     1     1     2    1
     2     2     3    1
     3     2     4    1
     4     4     5    2
     5     5     6    1
     6     6     7    2
     7     7     8    1
