@<TRIPOS>MOLECULE
No_1963-gen_results/8p0m/2024-11-27-11-27-31/
 24 26 0 0 0
SMALL
GASTEIGER

@<TRIPOS>ATOM
      1 C         -28.0162   -0.8135   28.8779 C.ar    1  UNL1        0.0116
      2 C         -28.4690   -0.7850   29.8287 C.ar    1  UNL1        0.0640
      3 C         -26.5455   -0.8762   28.8500 C.ar    1  UNL1        0.0008
      4 C         -25.6825   -0.7773   27.6829 C.ar    1  UNL1        0.0002
      5 C         -27.9181   -1.0034   31.1877 C.ar    1  UNL1        0.0903
      6 C         -26.5308   -1.0794   31.2463 C.ar    1  UNL1        0.0074
      7 C         -25.7798   -1.0462   30.0905 C.ar    1  UNL1        0.0004
      8 C         -24.3676   -0.2501   27.7917 C.ar    1  UNL1        0.0046
      9 C         -23.6808   -0.4762   29.0175 C.ar    1  UNL1        0.0554
     10 C         -24.3689   -0.7866   30.1443 C.ar    1  UNL1        0.0046
     11 C         -22.2229   -0.1809   29.0568 C.2     1  UNL1        0.2690
     12 N         -21.4661    0.2330   28.3139 N.am    1  UNL1       -0.1754
     13 O         -21.6629   -0.9347   30.0777 O.2     1  UNL1       -0.2680
     14 CL        -30.2915   -0.8589   29.9066 Cl      1  UNL1       -0.0820
     15 C         -21.9181    1.2940   27.3859 C.ar    1  UNL1        0.0759
     16 C         -22.7462    2.2260   27.7997 C.ar    1  UNL1        0.0462
     17 C         -23.3734    3.1875   26.9761 C.ar    1  UNL1        0.1414
     18 C         -23.2474    2.8673   25.5246 C.ar    1  UNL1        0.0297
     19 C         -22.3872    1.9366   25.1619 C.ar    1  UNL1        0.0036
     20 C         -21.6873    1.2286   26.0610 C.ar    1  UNL1        0.0168
     21 F         -24.2830    4.0683   27.3774 F       1  UNL1       -0.2041
     22 C         -28.7280   -1.1727   32.4715 C.2     1  UNL1        0.3886
     23 O         -28.8168   -2.2901   32.9796 O.co2   1  UNL1       -0.2405
     24 O         -29.5392   -0.2395   32.7244 O.co2   1  UNL1       -0.2405
@<TRIPOS>BOND
     1     9    11    1
     2    11    12   am
     3    11    13    2
     4     2    14    1
     5    12    15    1
     6    17    21    1
     7     5    22    1
     8    22    23   ar
     9    22    24   ar
    10    15    16   ar
    11    16    17   ar
    12    17    18   ar
    13    18    19   ar
    14    19    20   ar
    15    20    15   ar
    16     1     2   ar
    17     2     5   ar
    18     5     6   ar
    19     6     7   ar
    20     3     1   ar
    21     3     4   ar
    22     4     8   ar
    23     8     9   ar
    24     9    10   ar
    25    10     7   ar
    26     7     3   ar
