@<TRIPOS>MOLECULE
outputs/IAG933/test6/raw/output_1964_IAG933_linker_design_.xyz
 44 49 0 0 0
SMALL
GASTEIGER

@<TRIPOS>ATOM
      1 C         -24.8550   -1.0120   30.1430 C.3     1  UNL1        0.0531
      2 C         -24.9730   -2.5050   29.7880 C.2     1  UNL1       -0.0198
      3 C         -23.9060   -3.1730   29.1460 C.2     1  UNL1       -0.0042
      4 C         -23.9890   -4.5490   28.8530 C.2     1  UNL1       -0.0003
      5 C         -25.1370   -5.2800   29.2050 C.2     1  UNL1       -0.0000
      6 C         -26.2320   -4.6110   29.7840 C.2     1  UNL1       -0.0003
      7 C         -26.1550   -3.2320   30.0650 C.2     1  UNL1       -0.0042
      8 C         -25.3870   -0.6790   31.5710 C.3     1  UNL1        0.0781
      9 C         -25.1890    0.7730   32.0280 C.3     1  UNL1        0.0192
     10 C         -25.3360    0.6840   33.5440 C.3     1  UNL1        0.0202
     11 C         -24.8290   -0.7150   33.9050 C.3     1  UNL1        0.0887
     12 N         -24.7580   -1.4810   32.6460 N.3     1  UNL1       -0.2191
     13 C         -25.6880    1.6140   26.4610 C.2     1  UNL1        0.0468
     14 C         -26.2500    2.9200   26.3950 C.2     1  UNL1        0.0752
     15 C         -25.6420    4.0930   27.1230 C.2     1  UNL1        0.2662
     16 N         -25.6140    5.2520   26.4490 N.am    1  UNL1       -0.1997
     17 C         -25.0260    6.4790   26.9630 C.3     1  UNL1        0.1388
     18 O         -25.1430    3.9660   28.2430 O.2     1  UNL1       -0.2683
     19 C         -27.4380    3.0910   25.6450 C.2     1  UNL1        0.1065
     20 N         -28.0750    2.0890   25.0030 N.2     1  UNL1       -0.2081
     21 C         -27.5430    0.8490   25.0790 C.2     1  UNL1        0.2531
     22 O         -28.1930   -0.2080   24.4770 O.2     1  UNL1       -0.4558
     23 C         -29.4600    0.0050   23.8660 C.3     1  UNL1        0.2426
     24 C         -30.0650   -1.3770   23.5730 C.3     1  UNL1        0.2292
     25 O         -30.7290   -1.8780   24.7210 O.3     1  UNL1       -0.2162
     26 C         -26.3540    0.5760   25.7770 C.2     1  UNL1        0.1917
     27 F         -25.8600   -0.6810   25.7950 F       1  UNL1       -0.1995
     28 C         -28.9492    4.8295   31.5965 C.3     1  UNL1        0.1447
     29 C         -22.3831    1.4684   27.6932 C.3     1  UNL1        0.0905
     30 C         -27.3538    0.8960   29.8532 C.3     1  UNL1        0.1167
     31 C         -28.5066    0.5608   30.2643 C.3     1  UNL1        0.0322
     32 C         -28.8909    1.2836   31.6218 C.3     1  UNL1        0.0346
     33 N         -23.3400    2.0571   26.9439 N.3     1  UNL1       -0.1993
     34 C         -27.3738    3.1110   30.7825 C.3     1  UNL1        0.1446
     35 C         -27.6692    4.6398   30.7225 C.3     1  UNL1        0.0641
     36 N         -24.3515    0.5413   28.2478 N.3     1  UNL1       -0.2562
     37 C         -22.8768    0.4128   28.5450 C.3     1  UNL1        0.0909
     38 C         -20.9510    1.6755   27.4521 C.3     1  UNL1        0.0203
     39 C         -28.6342    2.7737   31.3659 C.3     1  UNL1        0.1423
     40 O         -28.9145    3.6758   32.4074 O.3     1  UNL1       -0.3537
     41 C         -24.5080    1.3692   27.2027 C.3     1  UNL1        0.1578
     42 O         -27.0123    2.3116   29.5605 O.3     1  UNL1       -0.3561
     43 C         -25.3475   -0.1405   28.9100 C.3     1  UNL1        0.0668
     44 C         -26.8713   -0.1951   28.7284 C.3     1  UNL1        0.0459
@<TRIPOS>BOND
     1     1    43    1
     2     2     7    1
     3     2     1    1
     4     3     2    2
     5     4     3    1
     6     4     5    2
     7     5     6    1
     8     6     7    2
     9     8     1    1
    10     8     9    1
    11     8    12    1
    12     9    10    1
    13    10    11    1
    14    12    11    1
    15    14    13    1
    16    14    15    1
    17    15    18    2
    18    16    17    1
    19    16    15    1
    20    19    14    2
    21    20    21    2
    22    20    19    1
    23    21    26    1
    24    22    21    1
    25    23    22    1
    26    24    23    1
    27    24    25    1
    28    26    27    1
    29    26    13    2
    30    28    40    1
    31    29    38    1
    32    29    37    1
    33    30    44    1
    34    30    31    1
    35    31    32    1
    36    33    41    1
    37    33    29    1
    38    34    35    1
    39    34    39    1
    40    35    28    1
    41    36    37    1
    42    36    43    1
    43    39    32    1
    44    39    40    1
    45    41    13    1
    46    41    36    1
    47    42    30    1
    48    42    34    1
    49    43    44    1
