@<TRIPOS>MOLECULE
No_1968-gen_results/8p0m/2024-11-27-11-27-31/
 28 31 0 0 0
SMALL
GASTEIGER

@<TRIPOS>ATOM
      1 C         -28.0162   -0.8135   28.8779 C.ar    1  UNL1       -0.0020
      2 C         -28.4690   -0.7850   29.8287 C.ar    1  UNL1       -0.0006
      3 C         -27.0871    0.2903   28.6377 C.ar    1  UNL1        0.0042
      4 C         -26.2516    0.4114   27.4223 C.3     1  UNL1        0.1372
      5 C         -28.3913    0.1041   30.9805 C.ar    1  UNL1       -0.0042
      6 C         -27.5332    1.1666   30.7866 C.ar    1  UNL1       -0.0206
      7 C         -26.8281    1.2557   29.6454 C.ar    1  UNL1       -0.0062
      8 C         -25.6444    1.6653   27.2216 C.3     1  UNL1        0.0319
      9 C         -24.6322    1.7370   26.2648 C.3     1  UNL1        0.0074
     10 C         -23.7012    0.8404   26.1703 C.3     1  UNL1        0.0264
     11 C         -23.2359    0.4418   27.1982 C.ar    1  UNL1       -0.0222
     12 C         -22.0271    1.1069   27.8011 C.ar    1  UNL1       -0.0043
     13 C         -21.3671    0.6572   28.9210 C.ar    1  UNL1       -0.0003
     14 C         -21.8314   -0.5128   29.5675 C.ar    1  UNL1       -0.0000
     15 C         -22.9761   -1.1475   29.1078 C.ar    1  UNL1       -0.0003
     16 C         -23.6678   -0.6425   28.0256 C.ar    1  UNL1       -0.0043
     17 C         -26.6726    2.7635   27.1908 C.3     1  UNL1        0.0054
     18 O         -27.0879    0.1902   26.3061 O.3     1  UNL1       -0.3543
     19 C         -28.0139    1.0514   26.0425 C.3     1  UNL1        0.1156
     20 C         -27.5599    2.4466   26.0267 C.3     1  UNL1        0.0297
     21 C         -28.8591    0.6930   24.8508 C.3     1  UNL1        0.0321
     22 C         -26.6762    3.9277   27.9033 C.3     1  UNL1        0.0049
     23 C         -27.3035    2.1271   31.9273 C.3     1  UNL1        0.0497
     24 C         -27.2909    3.2431   31.9737 C.3     1  UNL1        0.1169
     25 N         -27.7206    4.0966   31.1036 N.pl3   1  UNL1       -0.2363
     26 C         -27.2845    5.3057   30.8362 C.2     1  UNL1        0.0755
     27 C         -27.7194    6.0003   29.7091 C.2     1  UNL1       -0.0088
     28 C         -26.8891    5.4068   28.5266 C.3     1  UNL1        0.0274
@<TRIPOS>BOND
     1     3     4    1
     2     4     8    1
     3     8     9    1
     4     9    10    1
     5    10    11    1
     6     8    17    1
     7     4    18    1
     8    18    19    1
     9    17    20    1
    10    19    20    1
    11    19    21    1
    12    17    22    1
    13     6    23    1
    14    23    24    1
    15    24    25    1
    16    25    26    1
    17    26    27    2
    18    22    28    1
    19    27    28    1
    20    11    12   ar
    21    12    13   ar
    22    13    14   ar
    23    14    15   ar
    24    15    16   ar
    25    16    11   ar
    26     1     2   ar
    27     2     5   ar
    28     5     6   ar
    29     6     7   ar
    30     7     3   ar
    31     3     1   ar
