@<TRIPOS>MOLECULE
No_1970-gen_results/8p0m/2024-11-27-11-27-31/
 35 37 0 0 0
SMALL
GASTEIGER

@<TRIPOS>ATOM
      1 C         -28.0162   -0.8135   28.8779 C.ar    1  UNL1        0.0332
      2 C         -28.4690   -0.7850   29.8287 C.ar    1  UNL1        0.0736
      3 C         -26.5042   -0.7777   28.8766 C.ar    1  UNL1        0.1361
      4 C         -25.8103   -0.8531   30.1028 C.ar    1  UNL1        0.0061
      5 C         -27.9906   -0.8916   31.2257 C.ar    1  UNL1        0.0037
      6 C         -24.3976   -0.8364   30.1775 C.3     1  UNL1        0.0443
      7 C         -26.5754   -0.8899   31.2661 C.ar    1  UNL1       -0.0021
      8 C         -23.7964    0.4357   29.9090 C.3     1  UNL1        0.1300
      9 C         -23.2593    0.7531   28.7294 C.2     1  UNL1       -0.0115
     10 C         -21.8836    0.5969   28.6350 C.2     1  UNL1       -0.0040
     11 C         -23.8470    1.7698   27.9402 C.ar    1  UNL1       -0.0032
     12 C         -25.1230    2.2797   28.1559 C.ar    1  UNL1        0.0062
     13 C         -25.6606    3.2241   27.3025 C.ar    1  UNL1        0.0760
     14 C         -24.9937    3.4846   26.1195 C.ar    1  UNL1        0.0065
     15 C         -23.7740    2.9543   25.8018 C.ar    1  UNL1        0.0002
     16 C         -23.1367    2.1068   26.6799 C.ar    1  UNL1       -0.0003
     17 F         -25.8156   -0.7572   27.7812 F       1  UNL1       -0.2045
     18 C         -23.8938    1.3556   31.0571 C.2     1  UNL1        0.3687
     19 C         -30.0961   -0.7421   29.8153 C.3     1  UNL1        0.4186
     20 F         -30.3700   -0.5119   28.7528 F       1  UNL1       -0.1659
     21 F         -30.4850    0.2207   30.6645 F       1  UNL1       -0.1659
     22 F         -30.5769   -1.8966   30.2373 F       1  UNL1       -0.1659
     23 C         -26.9946    3.7979   27.5417 C.2     1  UNL1        0.3457
     24 O         -27.1131    4.8137   28.0315 O.2     1  UNL1       -0.2445
     25 O         -27.9292    2.8590   27.6131 O.3     1  UNL1       -0.4210
     26 O         -23.4726    2.5738   30.9207 O.co2   1  UNL1       -0.2453
     27 O         -24.3597    0.9939   32.1566 O.co2   1  UNL1       -0.2453
     28 C         -29.2846    3.3004   27.3480 C.ar    1  UNL1        0.1485
     29 C         -30.0297    2.2129   26.8500 C.ar    1  UNL1        0.0333
     30 C         -30.6175    2.4824   25.6422 C.ar    1  UNL1       -0.0192
     31 C         -30.9623    3.7402   25.5347 C.ar    1  UNL1       -0.0041
     32 C         -30.8375    4.5420   26.3796 C.ar    1  UNL1        0.0028
     33 C         -29.7478    4.5036   27.3953 C.ar    1  UNL1        0.0376
     34 C         -31.2079    1.4068   24.8570 C.3     1  UNL1        0.0265
     35 C         -30.5488    0.2184   24.9956 C.3     1  UNL1        0.0050
@<TRIPOS>BOND
     1     4     6    1
     2     6     8    1
     3     8     9    1
     4     9    10    2
     5     9    11    1
     6     3    17    1
     7     8    18    1
     8     2    19    1
     9    19    20    1
    10    19    21    1
    11    19    22    1
    12    13    23    1
    13    23    24    2
    14    23    25    1
    15    18    26   ar
    16    18    27   ar
    17    25    28    1
    18    30    34    1
    19    34    35    1
    20    28    29   ar
    21    29    30   ar
    22    30    31   ar
    23    31    32   ar
    24    32    33   ar
    25    33    28   ar
    26    11    12   ar
    27    12    13   ar
    28    13    14   ar
    29    14    15   ar
    30    15    16   ar
    31    16    11   ar
    32     1     2   ar
    33     2     5   ar
    34     5     7   ar
    35     7     4   ar
    36     4     3   ar
    37     3     1   ar
