@<TRIPOS>MOLECULE
No_1971-gen_results/8p0m/2024-11-27-11-27-31/
 33 36 0 0 0
SMALL
GASTEIGER

@<TRIPOS>ATOM
      1 C         -28.0162   -0.8135   28.8779 C.ar    1  UNL1        0.0764
      2 C         -27.0636   -0.1189   28.6079 C.ar    1  UNL1        0.0087
      3 C         -26.9716    0.7139   27.5060 C.ar    1  UNL1        0.0279
      4 C         -28.1053    0.7744   26.6421 C.ar    1  UNL1        0.1463
      5 C         -29.2008    0.1044   27.0527 C.ar    1  UNL1        0.1032
      6 C         -28.0219   -1.5899   30.0879 C.2     1  UNL1        0.3457
      7 C         -29.1640   -0.6394   28.1484 C.ar    1  UNL1        0.0152
      8 O         -28.8247   -1.8905   30.7103 O.2     1  UNL1       -0.2445
      9 O         -26.7836   -2.2523   30.3242 O.3     1  UNL1       -0.4210
     10 C         -30.4994    0.1349   26.3564 C.2     1  UNL1        0.3434
     11 O         -30.5416    0.0500   25.3028 O.2     1  UNL1       -0.2448
     12 O         -31.5717    0.1737   27.0729 O.3     1  UNL1       -0.4450
     13 C         -25.7158    1.4414   27.0821 C.ar    1  UNL1        0.0022
     14 C         -25.3160    2.5198   27.9155 C.ar    1  UNL1        0.0001
     15 C         -24.4241    3.1581   28.1111 C.ar    1  UNL1        0.0000
     16 C         -23.2619    2.7537   27.2271 C.ar    1  UNL1        0.0000
     17 C         -23.5434    1.6798   26.2755 C.ar    1  UNL1        0.0000
     18 C         -24.7169    0.9664   26.2830 C.ar    1  UNL1        0.0001
     19 C         -25.7044   -1.5259   30.5692 C.ar    1  UNL1        0.1488
     20 C         -25.4313   -0.9455   31.4047 C.ar    1  UNL1        0.0376
     21 C         -24.1589   -0.1902   31.5397 C.ar    1  UNL1        0.0031
     22 C         -23.2943   -0.2142   30.3892 C.ar    1  UNL1        0.0002
     23 C         -24.6751   -1.5835   29.3876 C.ar    1  UNL1        0.0376
     24 C         -23.5545   -1.0021   29.3754 C.ar    1  UNL1        0.0031
     25 F         -28.0717    1.5822   25.6219 F       1  UNL1       -0.2040
     26 C         -32.7945   -0.1811   26.6047 C.3     1  UNL1        0.2134
     27 C         -33.7128    0.7042   26.4065 C.3     1  UNL1        0.0738
     28 C         -33.6114    1.8736   27.1704 C.ar    1  UNL1       -0.0184
     29 C         -33.5836    2.9741   27.0257 C.ar    1  UNL1       -0.0041
     30 C         -33.4548    4.1682   27.9158 C.ar    1  UNL1       -0.0003
     31 C         -33.2918    3.8383   29.2664 C.ar    1  UNL1       -0.0000
     32 C         -33.2781    2.4956   29.6147 C.ar    1  UNL1       -0.0003
     33 C         -33.3892    1.5053   28.6694 C.ar    1  UNL1       -0.0041
@<TRIPOS>BOND
     1     1     6    1
     2     6     8    2
     3     6     9    1
     4     5    10    1
     5    10    11    2
     6    10    12    1
     7     3    13    1
     8     9    19    1
     9     4    25    1
    10    12    26    1
    11    26    27    1
    12    27    28    1
    13    28    29   ar
    14    29    30   ar
    15    30    31   ar
    16    31    32   ar
    17    32    33   ar
    18    33    28   ar
    19    13    14   ar
    20    14    15   ar
    21    15    16   ar
    22    16    17   ar
    23    17    18   ar
    24    18    13   ar
    25     1     2   ar
    26     2     3   ar
    27     3     4   ar
    28     4     5   ar
    29     5     7   ar
    30     7     1   ar
    31    19    20   ar
    32    20    21   ar
    33    21    22   ar
    34    22    24   ar
    35    24    23   ar
    36    23    19   ar
