@<TRIPOS>MOLECULE
outputs/IAG933/test6/raw/output_1974_IAG933_linker_design_.xyz
 42 46 0 0 0
SMALL
GASTEIGER

@<TRIPOS>ATOM
      1 C         -24.8550   -1.0120   30.1430 C.3     1  UNL1        0.0543
      2 C         -24.9730   -2.5050   29.7880 C.2     1  UNL1       -0.0198
      3 C         -23.9060   -3.1730   29.1460 C.2     1  UNL1       -0.0042
      4 C         -23.9890   -4.5490   28.8530 C.2     1  UNL1       -0.0003
      5 C         -25.1370   -5.2800   29.2050 C.2     1  UNL1       -0.0000
      6 C         -26.2320   -4.6110   29.7840 C.2     1  UNL1       -0.0003
      7 C         -26.1550   -3.2320   30.0650 C.2     1  UNL1       -0.0042
      8 C         -25.3870   -0.6790   31.5710 C.3     1  UNL1        0.0782
      9 C         -25.1890    0.7730   32.0280 C.3     1  UNL1        0.0192
     10 C         -25.3360    0.6840   33.5440 C.3     1  UNL1        0.0202
     11 C         -24.8290   -0.7150   33.9050 C.3     1  UNL1        0.0887
     12 N         -24.7580   -1.4810   32.6460 N.3     1  UNL1       -0.2191
     13 C         -25.6880    1.6140   26.4610 C.2     1  UNL1        0.0304
     14 C         -26.2500    2.9200   26.3950 C.2     1  UNL1        0.0738
     15 C         -25.6420    4.0930   27.1230 C.2     1  UNL1        0.2662
     16 N         -25.6140    5.2520   26.4490 N.am    1  UNL1       -0.1997
     17 C         -25.0260    6.4790   26.9630 C.3     1  UNL1        0.1388
     18 O         -25.1430    3.9660   28.2430 O.2     1  UNL1       -0.2683
     19 C         -27.4380    3.0910   25.6450 C.2     1  UNL1        0.1065
     20 N         -28.0750    2.0890   25.0030 N.2     1  UNL1       -0.2081
     21 C         -27.5430    0.8490   25.0790 C.2     1  UNL1        0.2530
     22 O         -28.1930   -0.2080   24.4770 O.2     1  UNL1       -0.4558
     23 C         -29.4600    0.0050   23.8660 C.3     1  UNL1        0.2426
     24 C         -30.0650   -1.3770   23.5730 C.3     1  UNL1        0.2292
     25 O         -30.7290   -1.8780   24.7210 O.3     1  UNL1       -0.2162
     26 C         -26.3540    0.5760   25.7770 C.2     1  UNL1        0.1904
     27 F         -25.8600   -0.6810   25.7950 F       1  UNL1       -0.1995
     28 N         -24.6114    0.4717   28.0692 N.3     1  UNL1       -0.2697
     29 C         -29.0908    0.5749   28.5698 C.3     1  UNL1        0.0721
     30 C         -23.1083    1.7765   26.7216 C.3     1  UNL1        0.0558
     31 C         -29.5954    2.9383   29.2740 C.3     1  UNL1        0.0029
     32 C         -22.3503    0.3182   28.5212 C.3     1  UNL1        0.0526
     33 C         -28.3513    2.9481   30.1463 C.3     1  UNL1        0.0174
     34 C         -30.0977    1.5055   29.2249 C.3     1  UNL1        0.0174
     35 C         -23.5364   -0.2649   28.3341 C.3     1  UNL1        0.0752
     36 N         -27.7047    1.0170   28.7272 N.3     1  UNL1       -0.2715
     37 C         -26.9232   -0.2482   28.6596 C.3     1  UNL1        0.0886
     38 C         -24.5697    1.3463   27.2249 C.3     1  UNL1        0.0854
     39 C         -25.4517   -0.0715   29.0831 C.3     1  UNL1        0.0791
     40 C         -22.1502    1.5536   27.7326 C.3     1  UNL1        0.1641
     41 C         -27.5761    1.6542   30.0475 C.3     1  UNL1        0.0721
     42 F         -20.8413    1.6351   27.3339 F       1  UNL1       -0.2372
@<TRIPOS>BOND
     1     1    39    1
     2     2     7    1
     3     2     1    1
     4     3     2    2
     5     4     3    1
     6     4     5    2
     7     5     6    1
     8     6     7    2
     9     8     1    1
    10     8     9    1
    11     8    12    1
    12     9    10    1
    13    10    11    1
    14    12    11    1
    15    14    13    1
    16    14    15    1
    17    15    18    2
    18    16    17    1
    19    16    15    1
    20    19    14    2
    21    20    21    2
    22    20    19    1
    23    21    26    1
    24    22    21    1
    25    23    22    1
    26    24    23    1
    27    24    25    1
    28    26    27    1
    29    26    13    2
    30    28    35    1
    31    28    39    1
    32    29    36    1
    33    29    34    1
    34    30    38    1
    35    30    40    1
    36    31    33    1
    37    34    31    1
    38    35    32    1
    39    36    41    1
    40    37    36    1
    41    38    13    1
    42    38    28    1
    43    39    37    1
    44    40    42    1
    45    40    32    1
    46    41    33    1
