@<TRIPOS>MOLECULE
No_1976-gen_results/8p0m/2024-11-27-11-27-31/
 31 31 0 0 0
SMALL
GASTEIGER

@<TRIPOS>ATOM
      1 C         -28.0162   -0.8135   28.8779 C.2     1  UNL1        0.3421
      2 C         -27.0636   -0.1189   28.6079 C.ar    1  UNL1        0.0757
      3 C         -27.0010    0.6913   27.4910 C.ar    1  UNL1        0.0066
      4 C         -25.8548    1.4825   27.0830 C.ar    1  UNL1        0.0048
      5 C         -24.6901    1.4526   27.8807 C.ar    1  UNL1        0.0550
      6 C         -24.7379    0.6010   29.0416 C.ar    1  UNL1        0.0048
      7 C         -25.8234   -0.1688   29.3887 C.ar    1  UNL1        0.0066
      8 O         -29.1483   -0.3188   28.7297 O.3     1  UNL1       -0.4265
      9 O         -27.9182   -1.7580   29.8456 O.2     1  UNL1       -0.2449
     10 C         -23.5197    2.2065   27.5743 C.2     1  UNL1        0.2650
     11 N         -22.4731    1.7587   27.1961 N.am    1  UNL1       -0.1925
     12 O         -23.7224    3.5040   27.4759 O.2     1  UNL1       -0.2684
     13 C         -21.8413    0.5646   27.7363 C.3     1  UNL1        0.2182
     14 C         -20.5252    0.8539   28.4307 C.3     1  UNL1        0.4175
     15 F         -20.0795    1.9024   28.3961 F       1  UNL1       -0.1681
     16 F         -19.6594   -0.0496   27.8909 F       1  UNL1       -0.1681
     17 F         -20.7735    0.2711   29.6878 F       1  UNL1       -0.1681
     18 C         -30.3391   -0.7361   29.4621 C.3     1  UNL1        0.3684
     19 C         -31.5114   -0.6968   28.7187 C.2     1  UNL1        0.3695
     20 O         -32.2478   -1.5938   28.7369 O.2     1  UNL1       -0.2454
     21 O         -31.5745    0.1458   27.6509 O.3     1  UNL1       -0.4428
     22 C         -30.4236    0.2592   30.6292 C.2     1  UNL1        0.4155
     23 O         -29.8774   -0.1561   31.6924 O.co2   1  UNL1       -0.2410
     24 O         -30.9770    1.3370   30.5103 O.co2   1  UNL1       -0.2410
     25 C         -32.3184   -0.1156   26.5183 C.3     1  UNL1        0.2437
     26 C         -31.4882    0.0332   25.3234 C.3     1  UNL1        0.2254
     27 O         -31.6856   -0.8489   24.4714 O.3     1  UNL1       -0.3443
     28 C         -31.8107   -1.9423   24.3754 C.3     1  UNL1        0.1744
     29 C         -30.6315    1.1594   25.1977 C.3     1  UNL1        0.3488
     30 F         -30.4919    1.9165   26.2026 F       1  UNL1       -0.1955
     31 F         -30.8098    1.7335   24.0440 F       1  UNL1       -0.1955
@<TRIPOS>BOND
     1     1     2    1
     2     1     8    1
     3     1     9    2
     4     5    10    1
     5    10    11   am
     6    10    12    2
     7    11    13    1
     8    13    14    1
     9    14    15    1
    10    14    16    1
    11    14    17    1
    12     8    18    1
    13    18    19    1
    14    19    20    2
    15    19    21    1
    16    18    22    1
    17    22    23   ar
    18    22    24   ar
    19    21    25    1
    20    25    26    1
    21    26    27    1
    22    27    28    1
    23    26    29    1
    24    29    30    1
    25    29    31    1
    26     2     3   ar
    27     3     4   ar
    28     4     5   ar
    29     5     6   ar
    30     6     7   ar
    31     7     2   ar
