@<TRIPOS>MOLECULE
outputs/IAG933/test6/raw/output_1978_IAG933_linker_design_.xyz
 41 44 0 0 0
SMALL
GASTEIGER

@<TRIPOS>ATOM
      1 C         -24.8550   -1.0120   30.1430 C.3     1  UNL1        0.1194
      2 C         -24.9730   -2.5050   29.7880 C.2     1  UNL1       -0.0026
      3 C         -23.9060   -3.1730   29.1460 C.2     1  UNL1       -0.0026
      4 C         -23.9890   -4.5490   28.8530 C.2     1  UNL1       -0.0003
      5 C         -25.1370   -5.2800   29.2050 C.2     1  UNL1       -0.0000
      6 C         -26.2320   -4.6110   29.7840 C.2     1  UNL1       -0.0003
      7 C         -26.1550   -3.2320   30.0650 C.2     1  UNL1       -0.0026
      8 C         -25.3870   -0.6790   31.5710 C.3     1  UNL1        0.0955
      9 C         -25.1890    0.7730   32.0280 C.3     1  UNL1        0.0209
     10 C         -25.3360    0.6840   33.5440 C.3     1  UNL1        0.0203
     11 C         -24.8290   -0.7150   33.9050 C.3     1  UNL1        0.0888
     12 N         -24.7580   -1.4810   32.6460 N.3     1  UNL1       -0.2174
     13 C         -25.6880    1.6140   26.4610 C.2     1  UNL1        0.1039
     14 C         -26.2500    2.9200   26.3950 C.2     1  UNL1        0.0927
     15 C         -25.6420    4.0930   27.1230 C.2     1  UNL1        0.2678
     16 N         -25.6140    5.2520   26.4490 N.am    1  UNL1       -0.1997
     17 C         -25.0260    6.4790   26.9630 C.3     1  UNL1        0.1388
     18 O         -25.1430    3.9660   28.2430 O.2     1  UNL1       -0.2683
     19 C         -27.4380    3.0910   25.6450 C.2     1  UNL1        0.1082
     20 N         -28.0750    2.0890   25.0030 N.2     1  UNL1       -0.2080
     21 C         -27.5430    0.8490   25.0790 C.2     1  UNL1        0.2548
     22 O         -28.1930   -0.2080   24.4770 O.2     1  UNL1       -0.4558
     23 C         -29.4600    0.0050   23.8660 C.3     1  UNL1        0.2426
     24 C         -30.0650   -1.3770   23.5730 C.3     1  UNL1        0.2292
     25 O         -30.7290   -1.8780   24.7210 O.3     1  UNL1       -0.2162
     26 C         -26.3540    0.5760   25.7770 C.2     1  UNL1        0.2091
     27 F         -25.8600   -0.6810   25.7950 F       1  UNL1       -0.1977
     28 C         -27.3331    1.3281   29.8819 C.3     1  UNL1        0.0857
     29 C         -24.3491    0.5987   28.3220 C.ar    1  UNL1        0.1626
     30 C         -29.4506    1.9440   31.0585 C.3     1  UNL1        0.0005
     31 C         -28.7332    1.1902   30.0962 C.3     1  UNL1        0.0096
     32 CL        -22.9297    2.6662   25.4228 Cl      1  UNL1       -0.0630
     33 N         -24.5198    1.3074   27.2188 N.ar    1  UNL1       -0.2806
     34 O         -27.4492   -0.3051   28.2741 O.2     1  UNL1       -0.2745
     35 C         -20.9047    1.3908   27.6779 C.3     1  UNL1        0.0369
     36 C         -23.3396    1.6514   26.8551 C.ar    1  UNL1        0.1229
     37 O         -22.3879   -0.1798   29.6054 O.3     1  UNL1       -0.2839
     38 C         -26.7796    0.1845   29.0642 C.2     1  UNL1        0.2307
     39 C         -23.0039    0.4713   28.6817 C.ar    1  UNL1        0.2242
     40 N         -25.3678   -0.0480   29.1663 N.am    1  UNL1       -0.2386
     41 C         -22.3963    1.2682   27.7173 C.ar    1  UNL1        0.0469
@<TRIPOS>BOND
     1     1    40    1
     2     2     7    1
     3     2     1    1
     4     3     2    2
     5     4     3    1
     6     4     5    2
     7     5     6    1
     8     6     7    2
     9     8     1    1
    10     8     9    1
    11     8    12    1
    12     9    10    1
    13    10    11    1
    14    12    11    1
    15    13    33    1
    16    14    13    1
    17    14    15    1
    18    15    18    2
    19    16    17    1
    20    16    15    1
    21    19    14    2
    22    20    21    2
    23    20    19    1
    24    21    26    1
    25    22    21    1
    26    23    22    1
    27    24    23    1
    28    24    25    1
    29    26    27    1
    30    26    13    2
    31    28    31    1
    32    29    39   ar
    33    29    40    1
    34    31    30    1
    35    32    36    1
    36    33    29   ar
    37    34    38    2
    38    35    41    1
    39    36    33   ar
    40    36    41   ar
    41    38    40   am
    42    38    28    1
    43    39    37    1
    44    41    39   ar
