@<TRIPOS>MOLECULE
outputs/IAG933/test6/raw/output_198_IAG933_linker_design_.xyz
 40 44 0 0 0
SMALL
GASTEIGER

@<TRIPOS>ATOM
      1 C         -24.8550   -1.0120   30.1430 C.3     1  UNL1        0.2040
      2 C         -24.9730   -2.5050   29.7880 C.2     1  UNL1        0.0186
      3 C         -23.9060   -3.1730   29.1460 C.2     1  UNL1       -0.0008
      4 C         -23.9890   -4.5490   28.8530 C.2     1  UNL1       -0.0002
      5 C         -25.1370   -5.2800   29.2050 C.2     1  UNL1       -0.0000
      6 C         -26.2320   -4.6110   29.7840 C.2     1  UNL1       -0.0002
      7 C         -26.1550   -3.2320   30.0650 C.2     1  UNL1       -0.0008
      8 C         -25.3870   -0.6790   31.5710 C.3     1  UNL1        0.1170
      9 C         -25.1890    0.7730   32.0280 C.3     1  UNL1        0.0229
     10 C         -25.3360    0.6840   33.5440 C.3     1  UNL1        0.0204
     11 C         -24.8290   -0.7150   33.9050 C.3     1  UNL1        0.0888
     12 N         -24.7580   -1.4810   32.6460 N.3     1  UNL1       -0.2154
     13 C         -25.6880    1.6140   26.4610 C.2     1  UNL1        0.0411
     14 C         -26.2500    2.9200   26.3950 C.2     1  UNL1        0.0766
     15 C         -25.6420    4.0930   27.1230 C.2     1  UNL1        0.2664
     16 N         -25.6140    5.2520   26.4490 N.am    1  UNL1       -0.1997
     17 C         -25.0260    6.4790   26.9630 C.3     1  UNL1        0.1388
     18 O         -25.1430    3.9660   28.2430 O.2     1  UNL1       -0.2683
     19 C         -27.4380    3.0910   25.6450 C.2     1  UNL1        0.1067
     20 N         -28.0750    2.0890   25.0030 N.2     1  UNL1       -0.2081
     21 C         -27.5430    0.8490   25.0790 C.2     1  UNL1        0.2533
     22 O         -28.1930   -0.2080   24.4770 O.2     1  UNL1       -0.4558
     23 C         -29.4600    0.0050   23.8660 C.3     1  UNL1        0.2426
     24 C         -30.0650   -1.3770   23.5730 C.3     1  UNL1        0.2292
     25 O         -30.7290   -1.8780   24.7210 O.3     1  UNL1       -0.2162
     26 C         -26.3540    0.5760   25.7770 C.2     1  UNL1        0.1931
     27 F         -25.8600   -0.6810   25.7950 F       1  UNL1       -0.1992
     28 C         -24.1899    0.5070   28.3103 C.ar    1  UNL1        0.1809
     29 O         -22.3120   -0.3244   29.8027 O.3     1  UNL1       -0.2798
     30 C         -21.7935    0.8566   27.9950 C.ar    1  UNL1        0.2745
     31 O         -21.9903    1.6709   24.4775 O.3     1  UNL1       -0.1365
     32 O         -25.2263   -0.1348   29.0474 O.3     1  UNL1       -0.4700
     33 C         -23.3246    1.6613   26.3540 C.ar    1  UNL1        0.0844
     34 C         -22.8294    0.3775   28.7368 C.ar    1  UNL1        0.2709
     35 O         -23.0122    3.4781   25.0635 O.3     1  UNL1       -0.1804
     36 C         -24.4098    1.2493   27.1243 C.ar    1  UNL1        0.0439
     37 C         -23.3231    2.1810   24.9942 C.3     1  UNL1        0.3386
     38 C         -22.0141    1.5744   26.7457 C.ar    1  UNL1        0.2258
     39 O         -21.0600    1.5701   25.6940 O.3     1  UNL1       -0.3275
     40 O         -20.5421    1.2084   27.9486 O.3     1  UNL1       -0.2796
@<TRIPOS>BOND
     1     1    32    1
     2     2     7    1
     3     2     1    1
     4     3     2    2
     5     4     3    1
     6     4     5    2
     7     5     6    1
     8     6     7    2
     9     8     1    1
    10     8     9    1
    11     8    12    1
    12     9    10    1
    13    10    11    1
    14    12    11    1
    15    13    36    1
    16    14    13    1
    17    14    15    1
    18    15    18    2
    19    16    17    1
    20    16    15    1
    21    19    14    2
    22    20    21    2
    23    20    19    1
    24    21    26    1
    25    22    21    1
    26    23    22    1
    27    24    23    1
    28    24    25    1
    29    26    27    1
    30    26    13    2
    31    28    34   ar
    32    28    32    1
    33    30    34   ar
    34    31    37    1
    35    31    39    1
    36    33    38   ar
    37    33    36   ar
    38    34    29    1
    39    36    28   ar
    40    37    35    1
    41    37    33    1
    42    38    30   ar
    43    39    38    1
    44    40    30    1
