@<TRIPOS>MOLECULE
No_1980-gen_results/8p0m/2024-11-27-11-27-31/
 23 25 0 0 0
SMALL
GASTEIGER

@<TRIPOS>ATOM
      1 C         -28.0162   -0.8135   28.8779 C.ar    1  UNL1        0.0066
      2 C         -27.0636   -0.1189   28.6079 C.ar    1  UNL1        0.0025
      3 C         -25.7923   -0.4302   29.0761 C.ar    1  UNL1        0.0297
      4 C         -24.5456    0.3494   28.8225 C.ar    1  UNL1        0.1673
      5 C         -24.6586    1.4196   27.8878 C.ar    1  UNL1        0.1673
      6 C         -25.9471    1.6811   27.3792 C.ar    1  UNL1        0.0297
      7 C         -27.0439    0.9739   27.6871 C.ar    1  UNL1        0.0023
      8 C         -28.0485   -1.5981   30.1629 C.ar    1  UNL1        0.0798
      9 C         -26.7598   -2.0713   30.6119 C.ar    1  UNL1        0.0066
     10 C         -25.6104   -1.4023   30.1708 C.ar    1  UNL1        0.0025
     11 C         -28.2846    1.3373   26.9704 C.ar    1  UNL1        0.0039
     12 C         -28.3008    1.9379   25.8677 C.ar    1  UNL1        0.0714
     13 C         -27.1108    2.8165   25.5249 C.ar    1  UNL1        0.0039
     14 C         -25.9058    2.6656   26.2615 C.ar    1  UNL1        0.0023
     15 F         -23.5728    2.0539   27.5826 F       1  UNL1       -0.2018
     16 C         -29.1244   -2.6698   30.2153 C.2     1  UNL1        0.3878
     17 O         -30.1906   -2.4006   30.0940 O.co2   1  UNL1       -0.2406
     18 O         -28.7540   -3.8371   30.7161 O.co2   1  UNL1       -0.2406
     19 F         -23.4303    0.0689   29.3724 F       1  UNL1       -0.2018
     20 C         -29.4552    2.3010   25.1351 C.3     1  UNL1        0.4186
     21 F         -29.7336    3.4017   25.0392 F       1  UNL1       -0.1659
     22 F         -29.2407    1.8184   23.8123 F       1  UNL1       -0.1659
     23 F         -30.4996    1.5185   25.4606 F       1  UNL1       -0.1659
@<TRIPOS>BOND
     1     5    15    1
     2     8    16    1
     3    16    17   ar
     4    16    18   ar
     5     4    19    1
     6    12    20    1
     7    20    21    1
     8    20    22    1
     9    20    23    1
    10     3     4   ar
    11     4     5   ar
    12     5     6   ar
    13     7     2   ar
    14     1     2   ar
    15     2     3   ar
    16     3    10   ar
    17    10     9   ar
    18     9     8   ar
    19     8     1   ar
    20     6     7   ar
    21     7    11   ar
    22    11    12   ar
    23    12    13   ar
    24    13    14   ar
    25    14     6   ar
