@<TRIPOS>MOLECULE
outputs/IAG933/test6/raw/output_1982_IAG933_linker_design_.xyz
 37 40 0 0 0
SMALL
GASTEIGER

@<TRIPOS>ATOM
      1 C         -24.8550   -1.0120   30.1430 C.3     1  UNL1        0.2427
      2 C         -24.9730   -2.5050   29.7880 C.2     1  UNL1        0.0254
      3 C         -23.9060   -3.1730   29.1460 C.2     1  UNL1       -0.0003
      4 C         -23.9890   -4.5490   28.8530 C.2     1  UNL1       -0.0002
      5 C         -25.1370   -5.2800   29.2050 C.2     1  UNL1       -0.0000
      6 C         -26.2320   -4.6110   29.7840 C.2     1  UNL1       -0.0002
      7 C         -26.1550   -3.2320   30.0650 C.2     1  UNL1       -0.0003
      8 C         -25.3870   -0.6790   31.5710 C.3     1  UNL1        0.1239
      9 C         -25.1890    0.7730   32.0280 C.3     1  UNL1        0.0235
     10 C         -25.3360    0.6840   33.5440 C.3     1  UNL1        0.0204
     11 C         -24.8290   -0.7150   33.9050 C.3     1  UNL1        0.0889
     12 N         -24.7580   -1.4810   32.6460 N.3     1  UNL1       -0.2149
     13 C         -25.6880    1.6140   26.4610 C.3     1  UNL1        0.1618
     14 C         -26.2500    2.9200   26.3950 C.2     1  UNL1        0.0747
     15 C         -25.6420    4.0930   27.1230 C.2     1  UNL1        0.2641
     16 N         -25.6140    5.2520   26.4490 N.am    1  UNL1       -0.1999
     17 C         -25.0260    6.4790   26.9630 C.3     1  UNL1        0.1388
     18 O         -25.1430    3.9660   28.2430 O.2     1  UNL1       -0.2686
     19 C         -27.4380    3.0910   25.6450 C.2     1  UNL1        0.1038
     20 N         -28.0750    2.0890   25.0030 N.2     1  UNL1       -0.2118
     21 C         -27.5430    0.8490   25.0790 C.2     1  UNL1        0.2359
     22 O         -28.1930   -0.2080   24.4770 O.2     1  UNL1       -0.4585
     23 C         -29.4600    0.0050   23.8660 C.3     1  UNL1        0.2423
     24 C         -30.0650   -1.3770   23.5730 C.3     1  UNL1        0.2292
     25 O         -30.7290   -1.8780   24.7210 O.3     1  UNL1       -0.2162
     26 C         -26.3540    0.5760   25.7770 C.3     1  UNL1        0.2597
     27 F         -25.8600   -0.6810   25.7950 F       1  UNL1       -0.2250
     28 C         -23.0807    2.5627   25.1286 C.3     1  UNL1        0.0498
     29 C         -23.3125    1.3084   27.4093 C.2     1  UNL1        0.0674
     30 C         -22.4217   -0.2767   29.2896 C.2     1  UNL1        0.3963
     31 C         -22.6784    1.9902   26.3908 C.2     1  UNL1        0.0547
     32 N         -24.7406    1.2323   27.4546 N.pl3   1  UNL1       -0.2341
     33 C         -21.0587    1.3445   27.8734 C.3     1  UNL1        0.1300
     34 N         -23.4707   -0.4465   30.1006 N.pl3   1  UNL1       -0.0294
     35 N         -21.2900    2.0561   26.7522 N.pl3   1  UNL1       -0.2399
     36 N         -21.4006   -1.0931   29.5520 N.2     1  UNL1        0.1922
     37 C         -22.2792    0.7609   28.2374 C.3     1  UNL1        0.1736
@<TRIPOS>BOND
     1     1    34    1
     2     2     7    1
     3     2     1    1
     4     3     2    2
     5     4     3    1
     6     4     5    2
     7     5     6    1
     8     6     7    2
     9     8     1    1
    10     8     9    1
    11     8    12    1
    12     9    10    1
    13    10    11    1
    14    12    11    1
    15    13    32    1
    16    14    13    1
    17    14    15    1
    18    15    18    2
    19    16    17    1
    20    16    15    1
    21    19    14    2
    22    20    21    2
    23    20    19    1
    24    21    26    1
    25    22    21    1
    26    23    22    1
    27    24    23    1
    28    24    25    1
    29    26    27    1
    30    26    13    1
    31    28    31    1
    32    29    32    1
    33    29    37    1
    34    30    36    2
    35    30    34    1
    36    31    35    1
    37    31    29    2
    38    33    37    1
    39    35    33    1
    40    37    30    1
