@<TRIPOS>MOLECULE
outputs/IAG933/test6/raw/output_1983_IAG933_linker_design_.xyz
 45 49 0 0 0
SMALL
GASTEIGER

@<TRIPOS>ATOM
      1 C         -24.8550   -1.0120   30.1430 C.3     1  UNL1        0.0451
      2 C         -24.9730   -2.5050   29.7880 C.2     1  UNL1       -0.0207
      3 C         -23.9060   -3.1730   29.1460 C.2     1  UNL1       -0.0042
      4 C         -23.9890   -4.5490   28.8530 C.2     1  UNL1       -0.0003
      5 C         -25.1370   -5.2800   29.2050 C.2     1  UNL1       -0.0000
      6 C         -26.2320   -4.6110   29.7840 C.2     1  UNL1       -0.0003
      7 C         -26.1550   -3.2320   30.0650 C.2     1  UNL1       -0.0042
      8 C         -25.3870   -0.6790   31.5710 C.3     1  UNL1        0.0934
      9 C         -25.1890    0.7730   32.0280 C.3     1  UNL1        0.0953
     10 C         -25.3360    0.6840   33.5440 C.3     1  UNL1        0.0379
     11 C         -24.8290   -0.7150   33.9050 C.3     1  UNL1        0.0902
     12 N         -24.7580   -1.4810   32.6460 N.3     1  UNL1       -0.2176
     13 C         -25.6880    1.6140   26.4610 C.2     1  UNL1        0.0394
     14 C         -26.2500    2.9200   26.3950 C.2     1  UNL1        0.0766
     15 C         -25.6420    4.0930   27.1230 C.2     1  UNL1        0.2664
     16 N         -25.6140    5.2520   26.4490 N.am    1  UNL1       -0.1997
     17 C         -25.0260    6.4790   26.9630 C.3     1  UNL1        0.1388
     18 O         -25.1430    3.9660   28.2430 O.2     1  UNL1       -0.2683
     19 C         -27.4380    3.0910   25.6450 C.2     1  UNL1        0.1067
     20 N         -28.0750    2.0890   25.0030 N.2     1  UNL1       -0.2081
     21 C         -27.5430    0.8490   25.0790 C.2     1  UNL1        0.2533
     22 O         -28.1930   -0.2080   24.4770 O.2     1  UNL1       -0.4558
     23 C         -29.4600    0.0050   23.8660 C.3     1  UNL1        0.2426
     24 C         -30.0650   -1.3770   23.5730 C.3     1  UNL1        0.2292
     25 O         -30.7290   -1.8780   24.7210 O.3     1  UNL1       -0.2162
     26 C         -26.3540    0.5760   25.7770 C.2     1  UNL1        0.1931
     27 F         -25.8600   -0.6810   25.7950 F       1  UNL1       -0.1992
     28 N         -25.1952    1.8100   30.6659 N.3     1  UNL1       -0.1855
     29 C         -21.6774    1.6206   27.8552 C.2     1  UNL1        0.0014
     30 C         -24.3928    4.6591   32.6095 C.3     1  UNL1        0.1608
     31 O         -24.7681    5.6806   31.6640 O.3     1  UNL1       -0.3546
     32 C         -24.3370    1.4308   26.9788 C.2     1  UNL1        0.0189
     33 C         -23.2716    1.4389   26.0336 C.2     1  UNL1        0.0014
     34 C         -26.1386    6.7800   30.2015 C.3     1  UNL1        0.0322
     35 C         -25.2106    3.5188   32.0378 C.3     1  UNL1        0.1225
     36 C         -24.4060    2.7696   31.2586 C.3     1  UNL1        0.1137
     37 C         -21.9412    1.5965   26.4752 C.2     1  UNL1        0.0001
     38 N         -25.2058    1.3312   29.2572 N.pl3   1  UNL1       -0.1639
     39 C         -26.0684    6.3552   31.6733 C.3     1  UNL1        0.1194
     40 O         -26.8237    5.3681   34.1455 O.3     1  UNL1       -0.2036
     41 C         -24.0960    1.3981   28.3855 C.2     1  UNL1        0.0839
     42 C         -27.3258    4.5124   32.9276 C.3     1  UNL1        0.2281
     43 N         -26.4131    3.4335   32.3538 N.3     1  UNL1       -0.1866
     44 C         -22.7382    1.5057   28.7933 C.2     1  UNL1        0.0177
     45 C         -27.4104    5.5577   31.8173 C.3     1  UNL1        0.0809
@<TRIPOS>BOND
     1     2     7    1
     2     2     1    1
     3     3     2    2
     4     4     3    1
     5     4     5    2
     6     5     6    1
     7     6     7    2
     8     8     1    1
     9     8     9    1
    10     8    12    1
    11     9    28    1
    12     9    10    1
    13    10    11    1
    14    12    11    1
    15    13    32    1
    16    14    13    1
    17    14    15    1
    18    15    18    2
    19    16    17    1
    20    16    15    1
    21    19    14    2
    22    20    21    2
    23    20    19    1
    24    21    26    1
    25    22    21    1
    26    23    22    1
    27    24    23    1
    28    24    25    1
    29    26    27    1
    30    26    13    2
    31    28    36    1
    32    29    44    1
    33    31    39    1
    34    31    30    1
    35    32    41    1
    36    33    37    1
    37    33    32    2
    38    35    36    1
    39    35    43    1
    40    35    30    1
    41    37    29    2
    42    38    28    1
    43    39    34    1
    44    39    45    1
    45    41    44    2
    46    41    38    1
    47    42    40    1
    48    43    42    1
    49    45    42    1
