@<TRIPOS>MOLECULE
outputs/IAG933/test6/raw/output_1985_IAG933_linker_design_.xyz
 46 49 0 0 0
SMALL
GASTEIGER

@<TRIPOS>ATOM
      1 C         -24.8550   -1.0120   30.1430 C.3     1  UNL1        0.2068
      2 C         -24.9730   -2.5050   29.7880 C.2     1  UNL1        0.0187
      3 C         -23.9060   -3.1730   29.1460 C.2     1  UNL1       -0.0008
      4 C         -23.9890   -4.5490   28.8530 C.2     1  UNL1       -0.0002
      5 C         -25.1370   -5.2800   29.2050 C.2     1  UNL1       -0.0000
      6 C         -26.2320   -4.6110   29.7840 C.2     1  UNL1       -0.0002
      7 C         -26.1550   -3.2320   30.0650 C.2     1  UNL1       -0.0008
      8 C         -25.3870   -0.6790   31.5710 C.3     1  UNL1        0.1171
      9 C         -25.1890    0.7730   32.0280 C.3     1  UNL1        0.0229
     10 C         -25.3360    0.6840   33.5440 C.3     1  UNL1        0.0204
     11 C         -24.8290   -0.7150   33.9050 C.3     1  UNL1        0.0888
     12 N         -24.7580   -1.4810   32.6460 N.3     1  UNL1       -0.2154
     13 C         -25.6880    1.6140   26.4610 C.2     1  UNL1        0.0945
     14 C         -26.2500    2.9200   26.3950 C.2     1  UNL1        0.0903
     15 C         -25.6420    4.0930   27.1230 C.2     1  UNL1        0.2676
     16 N         -25.6140    5.2520   26.4490 N.am    1  UNL1       -0.1997
     17 C         -25.0260    6.4790   26.9630 C.3     1  UNL1        0.1388
     18 O         -25.1430    3.9660   28.2430 O.2     1  UNL1       -0.2683
     19 C         -27.4380    3.0910   25.6450 C.2     1  UNL1        0.1080
     20 N         -28.0750    2.0890   25.0030 N.2     1  UNL1       -0.2080
     21 C         -27.5430    0.8490   25.0790 C.2     1  UNL1        0.2546
     22 O         -28.1930   -0.2080   24.4770 O.2     1  UNL1       -0.4559
     23 C         -29.4600    0.0050   23.8660 C.3     1  UNL1        0.2391
     24 C         -30.0650   -1.3770   23.5730 C.3     1  UNL1        0.1894
     25 O         -30.7290   -1.8780   24.7210 O.3     1  UNL1       -0.3493
     26 C         -26.3540    0.5760   25.7770 C.2     1  UNL1        0.2067
     27 F         -25.8600   -0.6810   25.7950 F       1  UNL1       -0.1979
     28 C         -31.1473    1.4377   27.6181 C.3     1  UNL1        0.0950
     29 C         -30.7117    2.4130   28.7887 C.3     1  UNL1        0.0420
     30 C         -24.6255    0.3542   28.3065 C.2     1  UNL1        0.2883
     31 O         -31.2495   -1.7421   28.2029 O.2     1  UNL1       -0.2748
     32 C         -29.0334    0.0567   28.0591 C.3     1  UNL1        0.1148
     33 C         -31.2415   -0.8175   27.3720 C.2     1  UNL1        0.2282
     34 N         -30.3642    0.2350   27.3796 N.am    1  UNL1       -0.2777
     35 C         -22.2783    1.1444   27.6666 C.3     1  UNL1        0.2191
     36 F         -21.0855    1.6360   27.5472 F       1  UNL1       -0.2319
     37 C         -31.9479   -1.4354   25.2349 C.3     1  UNL1        0.1519
     38 C         -23.3171    1.4496   26.8502 C.3     1  UNL1        0.1957
     39 CL        -22.9483    2.2060   25.2903 Cl      1  UNL1       -0.0893
     40 O         -25.5149   -0.1650   29.1297 O.2     1  UNL1       -0.4474
     41 C         -22.3916    0.2611   28.6849 C.3     1  UNL1        0.1682
     42 N         -30.0333    2.7976   31.1022 N.3     1  UNL1       -0.1313
     43 N         -24.5628    1.2013   27.2239 N.pl3   1  UNL1       -0.2256
     44 C         -32.3368   -0.6569   26.4062 C.3     1  UNL1        0.1172
     45 N         -23.6188   -0.2360   28.7128 N.2     1  UNL1       -0.2209
     46 C         -29.7293    2.0476   29.9287 C.3     1  UNL1        0.1111
@<TRIPOS>BOND
     1     1    40    1
     2     2     7    1
     3     2     1    1
     4     3     2    2
     5     4     3    1
     6     4     5    2
     7     5     6    1
     8     6     7    2
     9     8     1    1
    10     8     9    1
    11     8    12    1
    12     9    10    1
    13    10    11    1
    14    12    11    1
    15    13    43    1
    16    14    13    1
    17    14    15    1
    18    15    18    2
    19    16    17    1
    20    16    15    1
    21    19    14    2
    22    20    21    2
    23    20    19    1
    24    21    26    1
    25    22    21    1
    26    23    22    1
    27    24    23    1
    28    24    25    1
    29    25    37    1
    30    26    27    1
    31    26    13    2
    32    28    29    1
    33    29    46    1
    34    30    45    2
    35    30    40    1
    36    33    34   am
    37    33    31    2
    38    34    28    1
    39    34    32    1
    40    35    36    1
    41    35    41    1
    42    37    44    1
    43    38    39    1
    44    38    43    1
    45    38    35    1
    46    41    45    1
    47    43    30    1
    48    44    33    1
    49    46    42    1
