@<TRIPOS>MOLECULE
outputs/IAG933/test6/raw/output_1992_IAG933_linker_design_.xyz
 41 44 0 0 0
SMALL
GASTEIGER

@<TRIPOS>ATOM
      1 C         -24.8550   -1.0120   30.1430 C.3     1  UNL1        0.1109
      2 C         -24.9730   -2.5050   29.7880 C.2     1  UNL1       -0.0051
      3 C         -23.9060   -3.1730   29.1460 C.2     1  UNL1       -0.0029
      4 C         -23.9890   -4.5490   28.8530 C.2     1  UNL1       -0.0003
      5 C         -25.1370   -5.2800   29.2050 C.2     1  UNL1       -0.0000
      6 C         -26.2320   -4.6110   29.7840 C.2     1  UNL1       -0.0003
      7 C         -26.1550   -3.2320   30.0650 C.2     1  UNL1       -0.0029
      8 C         -25.3870   -0.6790   31.5710 C.3     1  UNL1        0.0929
      9 C         -25.1890    0.7730   32.0280 C.3     1  UNL1        0.0206
     10 C         -25.3360    0.6840   33.5440 C.3     1  UNL1        0.0203
     11 C         -24.8290   -0.7150   33.9050 C.3     1  UNL1        0.0888
     12 N         -24.7580   -1.4810   32.6460 N.3     1  UNL1       -0.2177
     13 C         -25.6880    1.6140   26.4610 C.2     1  UNL1        0.0258
     14 C         -26.2500    2.9200   26.3950 C.2     1  UNL1        0.0714
     15 C         -25.6420    4.0930   27.1230 C.2     1  UNL1        0.2298
     16 N         -25.6140    5.2520   26.4490 N.2     1  UNL1       -0.2353
     17 C         -25.0260    6.4790   26.9630 C.3     1  UNL1        0.1550
     18 O         -25.1430    3.9660   28.2430 O.3     1  UNL1       -0.4063
     19 C         -27.4380    3.0910   25.6450 C.2     1  UNL1        0.1065
     20 N         -28.0750    2.0890   25.0030 N.2     1  UNL1       -0.2081
     21 C         -27.5430    0.8490   25.0790 C.2     1  UNL1        0.2530
     22 O         -28.1930   -0.2080   24.4770 O.2     1  UNL1       -0.4558
     23 C         -29.4600    0.0050   23.8660 C.3     1  UNL1        0.2426
     24 C         -30.0650   -1.3770   23.5730 C.3     1  UNL1        0.2292
     25 O         -30.7290   -1.8780   24.7210 O.3     1  UNL1       -0.2162
     26 C         -26.3540    0.5760   25.7770 C.2     1  UNL1        0.1896
     27 F         -25.8600   -0.6810   25.7950 F       1  UNL1       -0.1996
     28 C         -24.8329    3.3988   29.4076 C.2     1  UNL1        0.3253
     29 C         -23.5858    2.4708   29.7015 C.3     1  UNL1        0.1442
     30 C         -23.2559    1.1110   29.0751 C.3     1  UNL1        0.1797
     31 C         -24.4429    1.4898   27.2107 C.3     1  UNL1        0.1222
     32 N         -22.0989    1.3212   26.7872 N.am    1  UNL1       -0.0922
     33 O         -23.3061    2.9573   25.6815 O.2     1  UNL1       -0.2721
     34 O         -22.4897    0.1772   29.6902 O.3     1  UNL1       -0.2210
     35 N         -25.3122   -0.0692   29.1279 N.3     1  UNL1       -0.2116
     36 C         -24.2702    0.4266   28.2179 C.3     1  UNL1        0.1168
     37 C         -23.2417    2.0008   26.5250 C.2     1  UNL1        0.2591
     38 F         -21.2882    1.5426   25.8267 F       1  UNL1       -0.1031
     39 C         -21.0273    1.3597   27.5336 C.3     1  UNL1        0.3096
     40 O         -25.4221    3.6962   30.4695 O.2     1  UNL1       -0.2496
     41 O         -20.1780    1.4990   28.1787 O.3     1  UNL1       -0.1933
@<TRIPOS>BOND
     1     1    35    1
     2     2     7    1
     3     2     1    1
     4     3     2    2
     5     4     3    1
     6     4     5    2
     7     5     6    1
     8     6     7    2
     9     8     1    1
    10     8     9    1
    11     8    12    1
    12     9    10    1
    13    10    11    1
    14    12    11    1
    15    13    31    1
    16    14    13    1
    17    14    15    1
    18    15    18    1
    19    16    17    1
    20    16    15    2
    21    18    28    1
    22    19    14    2
    23    20    21    2
    24    20    19    1
    25    21    26    1
    26    22    21    1
    27    23    22    1
    28    24    23    1
    29    24    25    1
    30    26    27    1
    31    26    13    2
    32    28    29    1
    33    28    40    2
    34    30    34    1
    35    30    29    1
    36    31    37    1
    37    31    36    1
    38    32    39    1
    39    33    37    2
    40    36    30    1
    41    36    35    1
    42    37    32   am
    43    38    32    1
    44    39    41    1
