@<TRIPOS>MOLECULE
outputs/IAG933/test6/raw/output_1993_IAG933_linker_design_.xyz
 44 47 0 0 0
SMALL
GASTEIGER

@<TRIPOS>ATOM
      1 C         -24.8550   -1.0120   30.1430 C.3     1  UNL1        0.1114
      2 C         -24.9730   -2.5050   29.7880 C.2     1  UNL1       -0.0051
      3 C         -23.9060   -3.1730   29.1460 C.2     1  UNL1       -0.0029
      4 C         -23.9890   -4.5490   28.8530 C.2     1  UNL1       -0.0003
      5 C         -25.1370   -5.2800   29.2050 C.2     1  UNL1       -0.0000
      6 C         -26.2320   -4.6110   29.7840 C.2     1  UNL1       -0.0003
      7 C         -26.1550   -3.2320   30.0650 C.2     1  UNL1       -0.0029
      8 C         -25.3870   -0.6790   31.5710 C.3     1  UNL1        0.1015
      9 C         -25.1890    0.7730   32.0280 C.3     1  UNL1        0.0973
     10 C         -25.3360    0.6840   33.5440 C.3     1  UNL1        0.0294
     11 C         -24.8290   -0.7150   33.9050 C.3     1  UNL1        0.0893
     12 N         -24.7580   -1.4810   32.6460 N.3     1  UNL1       -0.2172
     13 C         -25.6880    1.6140   26.4610 C.3     1  UNL1        0.1450
     14 C         -26.2500    2.9200   26.3950 C.2     1  UNL1        0.0710
     15 C         -25.6420    4.0930   27.1230 C.2     1  UNL1        0.2638
     16 N         -25.6140    5.2520   26.4490 N.am    1  UNL1       -0.2000
     17 C         -25.0260    6.4790   26.9630 C.3     1  UNL1        0.1388
     18 O         -25.1430    3.9660   28.2430 O.2     1  UNL1       -0.2686
     19 C         -27.4380    3.0910   25.6450 C.2     1  UNL1        0.1035
     20 N         -28.0750    2.0890   25.0030 N.2     1  UNL1       -0.2118
     21 C         -27.5430    0.8490   25.0790 C.2     1  UNL1        0.2356
     22 O         -28.1930   -0.2080   24.4770 O.2     1  UNL1       -0.4585
     23 C         -29.4600    0.0050   23.8660 C.3     1  UNL1        0.2423
     24 C         -30.0650   -1.3770   23.5730 C.3     1  UNL1        0.2292
     25 O         -30.7290   -1.8780   24.7210 O.3     1  UNL1       -0.2162
     26 C         -26.3540    0.5760   25.7770 C.3     1  UNL1        0.2560
     27 F         -25.8600   -0.6810   25.7950 F       1  UNL1       -0.2253
     28 C         -27.8686    5.4904   32.4490 C.3     1  UNL1        0.0018
     29 C         -20.6948    0.1855   28.8432 C.3     1  UNL1        0.1438
     30 C         -26.9898    4.3162   32.2089 C.3     1  UNL1        0.0217
     31 N         -24.2060    0.1411   29.5968 N.3     1  UNL1       -0.2123
     32 C         -27.8091    4.1020   29.8597 C.3     1  UNL1        0.0234
     33 C         -25.0431    2.2286   31.5275 C.2     1  UNL1        0.2423
     34 C         -26.7318    3.8442   31.0031 C.3     1  UNL1        0.0954
     35 C         -22.5851    1.0148   28.0040 C.3     1  UNL1        0.1751
     36 N         -25.9261    2.7320   30.7168 N.am    1  UNL1       -0.2072
     37 O         -24.0892    2.8883   31.8444 O.2     1  UNL1       -0.2733
     38 C         -23.4728    1.4014   27.0861 C.3     1  UNL1        0.2186
     39 C         -21.7906   -0.4162   29.4996 C.3     1  UNL1        0.0521
     40 C         -22.1789    2.3888   25.4091 C.3     1  UNL1        0.1759
     41 O         -23.1813    1.4419   25.7526 O.3     1  UNL1       -0.3348
     42 N         -24.7514    1.2083   27.3709 N.3     1  UNL1       -0.1832
     43 C         -22.9092    0.2078   29.0345 C.3     1  UNL1        0.1066
     44 O         -21.1866    1.2513   27.9665 O.3     1  UNL1       -0.3508
@<TRIPOS>BOND
     1     1    31    1
     2     2     7    1
     3     2     1    1
     4     3     2    2
     5     4     3    1
     6     4     5    2
     7     5     6    1
     8     6     7    2
     9     8     1    1
    10     8     9    1
    11     8    12    1
    12     9    33    1
    13     9    10    1
    14    10    11    1
    15    12    11    1
    16    13    42    1
    17    14    13    1
    18    14    15    1
    19    15    18    2
    20    16    17    1
    21    16    15    1
    22    19    14    2
    23    20    21    2
    24    20    19    1
    25    21    26    1
    26    22    21    1
    27    23    22    1
    28    24    23    1
    29    24    25    1
    30    26    27    1
    31    26    13    1
    32    29    39    1
    33    30    28    1
    34    33    37    2
    35    34    32    1
    36    34    30    1
    37    35    38    1
    38    35    43    1
    39    36    34    1
    40    36    33    1
    41    38    41    1
    42    38    42    1
    43    40    41    1
    44    43    39    1
    45    43    31    1
    46    44    35    1
    47    44    29    1
