@<TRIPOS>MOLECULE
outputs/IAG933/test6/raw/output_1994_IAG933_linker_design_.xyz
 40 43 0 0 0
SMALL
GASTEIGER

@<TRIPOS>ATOM
      1 C         -24.8550   -1.0120   30.1430 C.3     1  UNL1        0.1988
      2 C         -24.9730   -2.5050   29.7880 C.2     1  UNL1        0.0213
      3 C         -23.9060   -3.1730   29.1460 C.2     1  UNL1       -0.0004
      4 C         -23.9890   -4.5490   28.8530 C.2     1  UNL1       -0.0002
      5 C         -25.1370   -5.2800   29.2050 C.2     1  UNL1       -0.0000
      6 C         -26.2320   -4.6110   29.7840 C.2     1  UNL1       -0.0002
      7 C         -26.1550   -3.2320   30.0650 C.2     1  UNL1       -0.0004
      8 C         -25.3870   -0.6790   31.5710 C.3     1  UNL1        0.1197
      9 C         -25.1890    0.7730   32.0280 C.3     1  UNL1        0.0233
     10 C         -25.3360    0.6840   33.5440 C.3     1  UNL1        0.0204
     11 C         -24.8290   -0.7150   33.9050 C.3     1  UNL1        0.0889
     12 N         -24.7580   -1.4810   32.6460 N.3     1  UNL1       -0.2150
     13 C         -25.6880    1.6140   26.4610 C.2     1  UNL1        0.0449
     14 C         -26.2500    2.9200   26.3950 C.2     1  UNL1        0.0768
     15 C         -25.6420    4.0930   27.1230 C.2     1  UNL1        0.2664
     16 N         -25.6140    5.2520   26.4490 N.am    1  UNL1       -0.1997
     17 C         -25.0260    6.4790   26.9630 C.3     1  UNL1        0.1388
     18 O         -25.1430    3.9660   28.2430 O.2     1  UNL1       -0.2683
     19 C         -27.4380    3.0910   25.6450 C.2     1  UNL1        0.1067
     20 N         -28.0750    2.0890   25.0030 N.2     1  UNL1       -0.2081
     21 C         -27.5430    0.8490   25.0790 C.2     1  UNL1        0.2533
     22 O         -28.1930   -0.2080   24.4770 O.2     1  UNL1       -0.4558
     23 C         -29.4600    0.0050   23.8660 C.3     1  UNL1        0.2426
     24 C         -30.0650   -1.3770   23.5730 C.3     1  UNL1        0.2292
     25 O         -30.7290   -1.8780   24.7210 O.3     1  UNL1       -0.2162
     26 C         -26.3540    0.5760   25.7770 C.2     1  UNL1        0.1933
     27 F         -25.8600   -0.6810   25.7950 F       1  UNL1       -0.1992
     28 C         -24.4689    1.2437   27.1926 C.2     1  UNL1        0.0810
     29 C         -22.0805    1.6404   27.3025 C.2     1  UNL1        0.0465
     30 C         -23.2878    1.7269   26.6737 C.2     1  UNL1       -0.0108
     31 C         -22.0404    0.9705   28.4713 C.2     1  UNL1        0.2354
     32 N         -25.4388   -0.2724   28.9984 N.pl3   1  UNL1       -0.1824
     33 N         -23.2183    0.4367   28.9982 N.2     1  UNL1       -0.0363
     34 C         -24.3569    0.4869   28.3318 C.2     1  UNL1        0.3242
     35 C         -26.9542   -0.2562   28.9362 C.3     1  UNL1        0.2702
     36 O         -28.5860    0.1251   30.6600 O.2     1  UNL1       -0.2889
     37 C         -28.4642   -0.2792   29.5426 C.2     1  UNL1        0.2306
     38 C         -29.7466   -0.5017   28.7189 C.3     1  UNL1        0.2502
     39 O         -30.5108   -1.5853   29.1824 O.3     1  UNL1       -0.2117
     40 C         -23.1275    2.3492   25.3266 C.3     1  UNL1        0.0314
@<TRIPOS>BOND
     1     1    32    1
     2     2     7    1
     3     2     1    1
     4     3     2    2
     5     4     3    1
     6     4     5    2
     7     5     6    1
     8     6     7    2
     9     8     1    1
    10     8     9    1
    11     8    12    1
    12     9    10    1
    13    10    11    1
    14    12    11    1
    15    13    28    1
    16    14    13    1
    17    14    15    1
    18    15    18    2
    19    16    17    1
    20    16    15    1
    21    19    14    2
    22    20    21    2
    23    20    19    1
    24    21    26    1
    25    22    21    1
    26    23    22    1
    27    24    23    1
    28    24    25    1
    29    26    27    1
    30    26    13    2
    31    28    34    1
    32    29    31    2
    33    30    28    2
    34    30    29    1
    35    31    33    1
    36    34    33    2
    37    34    32    1
    38    35    32    1
    39    35    37    1
    40    37    36    2
    41    38    39    1
    42    38    37    1
    43    40    30    1
