@<TRIPOS>MOLECULE
No_1999-gen_results/8p0m/2024-11-27-11-27-31/
 9 9 0 0 0
SMALL
GASTEIGER

@<TRIPOS>ATOM
      1 C         -28.0162   -0.8135   28.8779 C.ar    1  UNL1       -0.0000
      2 C         -27.0636   -0.1190   28.6079 C.ar    1  UNL1       -0.0000
      3 C         -26.8756    1.1325   28.9134 C.ar    1  UNL1       -0.0003
      4 C         -27.9014    1.8066   29.6436 C.ar    1  UNL1       -0.0000
      5 C         -28.9449    1.0388   30.0360 C.ar    1  UNL1       -0.0000
      6 C         -29.0273   -0.2890   29.7051 C.ar    1  UNL1       -0.0000
      7 C         -25.6959    1.9505   28.4764 C.2     1  UNL1       -0.0046
      8 C         -25.0886    1.8635   27.5900 C.2     1  UNL1       -0.0258
      9 C         -23.8419    2.6359   27.2476 C.3     1  UNL1        0.0307
@<TRIPOS>BOND
     1     3     7    1
     2     7     8    2
     3     8     9    1
     4     1     2   ar
     5     2     3   ar
     6     3     4   ar
     7     4     5   ar
     8     5     6   ar
     9     6     1   ar
