@<TRIPOS>MOLECULE
No_2-gen_results/8p0m/2024-11-27-11-27-31/
 11 11 0 0 0
SMALL
GASTEIGER

@<TRIPOS>ATOM
      1 C         -28.0162   -0.8135   28.8779 C.ar    1  UNL1        0.0111
      2 C         -27.0636   -0.1190   28.6079 C.ar    1  UNL1       -0.0029
      3 C         -25.7647   -0.3897   29.0360 C.ar    1  UNL1       -0.0137
      4 C         -25.5296   -1.5302   29.9014 C.ar    1  UNL1       -0.0029
      5 C         -26.6888   -2.2893   30.1810 C.ar    1  UNL1        0.0111
      6 C         -27.8727   -1.9508   29.7373 C.ar    1  UNL1        0.0577
      7 CL        -29.1941   -2.9228   30.2191 Cl      1  UNL1       -0.0822
      8 C         -24.5326    0.4192   28.7249 C.3     1  UNL1        0.1049
      9 C         -24.0935    1.4082   29.5634 C.2     1  UNL1        0.2234
     10 N         -23.0197    2.1433   29.1485 N.2     1  UNL1       -0.1202
     11 F         -24.7042    1.7036   30.6103 F       1  UNL1       -0.1860
@<TRIPOS>BOND
     1     6     7    1
     2     3     8    1
     3     8     9    1
     4     9    10    2
     5     9    11    1
     6     1     2   ar
     7     2     3   ar
     8     3     4   ar
     9     4     5   ar
    10     5     6   ar
    11     6     1   ar
