@<TRIPOS>MOLECULE
No_20-gen_results/8p0m/2024-11-27-11-27-31/
 29 31 0 0 0
SMALL
GASTEIGER

@<TRIPOS>ATOM
      1 C         -28.0162   -0.8135   28.8779 C.3     1  UNL1        0.0995
      2 C         -27.0636   -0.1189   28.6079 C.ar    1  UNL1       -0.0061
      3 C         -26.9287    1.1713   29.0083 C.ar    1  UNL1       -0.0027
      4 C         -25.7702    2.0341   28.6884 C.ar    1  UNL1        0.0063
      5 C         -24.7141    1.4431   27.9188 C.ar    1  UNL1        0.0798
      6 C         -24.8590    0.0783   27.5836 C.ar    1  UNL1        0.0063
      7 C         -25.9647   -0.6606   27.9164 C.ar    1  UNL1       -0.0027
      8 N         -28.6995   -0.6441   30.0766 N.3     1  UNL1       -0.2624
      9 C         -29.8035   -1.3645   30.5061 C.3     1  UNL1        0.1062
     10 C         -30.3751   -2.1790   29.7448 C.2     1  UNL1        0.0736
     11 C         -30.4580   -3.5170   30.2214 C.2     1  UNL1        0.0034
     12 C         -29.6573   -4.0825   30.4221 C.2     1  UNL1       -0.0021
     13 C         -28.2220   -3.6232   30.4926 C.2     1  UNL1        0.0075
     14 C         -28.0588   -2.3842   31.1162 C.3     1  UNL1        0.1900
     15 C         -28.6071   -1.2642   31.0281 C.3     1  UNL1        0.1110
     16 C         -28.3322   -0.5356   32.3075 C.3     1  UNL1        0.1057
     17 C         -27.0326   -0.0538   32.5241 C.2     1  UNL1       -0.0100
     18 C         -26.6255    0.6437   33.6002 C.2     1  UNL1       -0.0037
     19 C         -27.5236    1.1113   34.5120 C.2     1  UNL1       -0.0048
     20 C         -28.8489    0.7318   34.3591 C.2     1  UNL1       -0.0245
     21 C         -29.2733   -0.0805   33.2919 C.3     1  UNL1        0.0466
     22 O         -26.6994   -2.3331   31.6615 O.3     1  UNL1       -0.2168
     23 C         -23.5228    2.1627   27.6051 C.2     1  UNL1        0.3878
     24 O         -22.8223    2.5141   28.3892 O.co2   1  UNL1       -0.2406
     25 O         -23.3330    2.3046   26.2565 O.co2   1  UNL1       -0.2406
     26 C         -31.2066   -1.7294   28.6362 C.2     1  UNL1        0.3852
     27 O         -31.1614   -0.6073   28.2113 O.co2   1  UNL1       -0.2409
     28 O         -31.9968   -2.5191   28.0494 O.co2   1  UNL1       -0.2409
     29 CL        -27.8115   -0.7546   33.2360 Cl      1  UNL1       -0.1099
@<TRIPOS>BOND
     1     1     2    1
     2     1     8    1
     3     8     9    1
     4     9    10    1
     5    10    11    2
     6    11    12    1
     7    12    13    2
     8    13    14    1
     9     8    15    1
    10    14    15    1
    11    15    16    1
    12    16    17    1
    13    17    18    2
    14    18    19    1
    15    19    20    2
    16    16    21    1
    17    20    21    1
    18    14    22    1
    19     5    23    1
    20    23    24   ar
    21    23    25   ar
    22    10    26    1
    23    26    27   ar
    24    26    28   ar
    25    16    29    1
    26     2     3   ar
    27     3     4   ar
    28     4     5   ar
    29     5     6   ar
    30     6     7   ar
    31     7     2   ar
