@<TRIPOS>MOLECULE
No_200-gen_results/8p0m/2024-11-27-11-27-31/
 35 38 0 0 0
SMALL
GASTEIGER

@<TRIPOS>ATOM
      1 C         -28.0162   -0.8135   28.8779 C.ar    1  UNL1        0.0095
      2 C         -28.4690   -0.7850   29.8287 C.ar    1  UNL1        0.0799
      3 C         -26.5042   -0.7777   28.8766 C.ar    1  UNL1        0.0365
      4 C         -25.6540   -0.6597   27.7191 C.2     1  UNL1        0.1919
      5 C         -27.9180   -0.9374   31.1824 C.ar    1  UNL1        0.0066
      6 C         -26.5423   -0.9399   31.2606 C.ar    1  UNL1        0.0003
      7 C         -25.7832   -0.8935   30.1201 C.ar    1  UNL1        0.0029
      8 C         -25.9259    0.2819   26.7445 C.3     1  UNL1        0.1634
      9 C         -25.6258    1.4719   26.8191 C.ar    1  UNL1        0.0001
     10 C         -24.8156    1.9657   27.9646 C.ar    1  UNL1        0.0005
     11 C         -24.4272    3.3539   28.0184 C.ar    1  UNL1        0.0366
     12 C         -24.7930    4.1461   26.9053 C.ar    1  UNL1        0.1385
     13 C         -25.3852    3.6546   25.7429 C.ar    1  UNL1        0.0366
     14 C         -25.7726    2.3656   25.7680 C.ar    1  UNL1        0.0005
     15 CL        -26.1625   -0.5085   25.2142 Cl      1  UNL1       -0.1018
     16 C         -30.0543   -0.7549   29.8670 C.2     1  UNL1        0.3878
     17 O         -30.6317   -1.7234   30.1515 O.co2   1  UNL1       -0.2406
     18 O         -30.6078    0.3190   29.4594 O.co2   1  UNL1       -0.2406
     19 O         -24.6173   -1.3190   27.8247 O.2     1  UNL1       -0.2897
     20 O         -24.3496    5.4538   26.9812 O.3     1  UNL1       -0.4770
     21 C         -25.0069    6.4508   26.2979 C.3     1  UNL1        0.1903
     22 C         -25.1843    7.5897   27.3629 C.3     1  UNL1        0.1418
     23 N         -25.9500    7.3053   28.3794 N.am    1  UNL1       -0.2550
     24 C         -26.7971    6.5075   28.5541 C.ar    1  UNL1        0.0501
     25 C         -27.3491    6.1929   29.3779 C.ar    1  UNL1        0.0146
     26 C         -28.3618    5.1135   29.5918 C.ar    1  UNL1        0.0013
     27 C         -28.5751    4.3906   28.4072 C.ar    1  UNL1       -0.0002
     28 C         -27.9397    4.6717   27.2757 C.ar    1  UNL1       -0.0029
     29 C         -27.0515    5.6847   27.2678 C.ar    1  UNL1       -0.0048
     30 C         -26.4815    6.1494   26.0474 C.3     1  UNL1        0.0729
     31 C         -25.4175    8.0956   29.6145 C.2     1  UNL1        0.2339
     32 O         -26.0388    7.7598   30.6809 O.2     1  UNL1       -0.2742
     33 C         -24.4233    9.0670   29.5100 C.3     1  UNL1        0.1116
     34 C         -23.4413    8.9725   30.4636 C.2     1  UNL1       -0.0166
     35 C         -23.4597    8.3538   31.6451 C.2     1  UNL1       -0.0044
@<TRIPOS>BOND
     1     3     4    1
     2     4     8    1
     3     8    15    1
     4     2    16    1
     5    16    17   ar
     6    16    18   ar
     7     4    19    2
     8    12    20    1
     9    20    21    1
    10    21    22    1
    11    22    23    1
    12    23    24    1
    13    21    30    1
    14    29    30    1
    15    23    31   am
    16    31    32    2
    17    31    33    1
    18    33    34    1
    19    34    35    2
    20     8     9    1
    21     9    10   ar
    22    10    11   ar
    23    11    12   ar
    24    12    13   ar
    25    13    14   ar
    26    14     9   ar
    27    24    25   ar
    28    25    26   ar
    29    26    27   ar
    30    27    28   ar
    31    28    29   ar
    32    29    24   ar
    33     1     2   ar
    34     2     5   ar
    35     5     6   ar
    36     6     7   ar
    37     7     3   ar
    38     3     1   ar
