@<TRIPOS>MOLECULE
No_2000-gen_results/8p0m/2024-11-27-11-27-31/
 7 6 0 0 0
SMALL
GASTEIGER

@<TRIPOS>ATOM
      1 C         -28.0162   -0.8135   28.8779 C.2     1  UNL1       -0.0258
      2 C         -27.0636   -0.1189   28.6079 C.2     1  UNL1       -0.0048
      3 C         -25.7647   -0.3897   29.0360 C.2     1  UNL1       -0.0023
      4 C         -25.5296   -1.5302   29.9014 C.2     1  UNL1        0.0091
      5 C         -26.6888   -2.2893   30.1810 C.3     1  UNL1        0.2084
      6 C         -27.8727   -1.9508   29.7373 C.3     1  UNL1        0.0307
      7 O         -26.4505   -3.4256   30.8663 O.3     1  UNL1       -0.2152
@<TRIPOS>BOND
     1     1     2    2
     2     2     3    1
     3     3     4    2
     4     4     5    1
     5     1     6    1
     6     5     7    1
