@<TRIPOS>MOLECULE
outputs/IAG933/test6/raw/output_2001_IAG933_linker_design_.xyz
 49 52 0 0 0
SMALL
GASTEIGER

@<TRIPOS>ATOM
      1 C         -24.8550   -1.0120   30.1430 C.3     1  UNL1        0.0975
      2 C         -24.9730   -2.5050   29.7880 C.2     1  UNL1       -0.0064
      3 C         -23.9060   -3.1730   29.1460 C.2     1  UNL1       -0.0029
      4 C         -23.9890   -4.5490   28.8530 C.2     1  UNL1       -0.0003
      5 C         -25.1370   -5.2800   29.2050 C.2     1  UNL1       -0.0000
      6 C         -26.2320   -4.6110   29.7840 C.2     1  UNL1       -0.0003
      7 C         -26.1550   -3.2320   30.0650 C.2     1  UNL1       -0.0029
      8 C         -25.3870   -0.6790   31.5710 C.3     1  UNL1        0.0916
      9 C         -25.1890    0.7730   32.0280 C.3     1  UNL1        0.0206
     10 C         -25.3360    0.6840   33.5440 C.3     1  UNL1        0.0203
     11 C         -24.8290   -0.7150   33.9050 C.3     1  UNL1        0.0888
     12 N         -24.7580   -1.4810   32.6460 N.3     1  UNL1       -0.2178
     13 C         -25.6880    1.6140   26.4610 C.3     1  UNL1        0.0744
     14 C         -26.2500    2.9200   26.3950 C.2     1  UNL1        0.0549
     15 C         -25.6420    4.0930   27.1230 C.2     1  UNL1        0.2624
     16 N         -25.6140    5.2520   26.4490 N.am    1  UNL1       -0.2000
     17 C         -25.0260    6.4790   26.9630 C.3     1  UNL1        0.1388
     18 O         -25.1430    3.9660   28.2430 O.2     1  UNL1       -0.2687
     19 C         -27.4380    3.0910   25.6450 C.2     1  UNL1        0.1021
     20 N         -28.0750    2.0890   25.0030 N.2     1  UNL1       -0.2119
     21 C         -27.5430    0.8490   25.0790 C.2     1  UNL1        0.2341
     22 O         -28.1930   -0.2080   24.4770 O.2     1  UNL1       -0.4585
     23 C         -29.4600    0.0050   23.8660 C.3     1  UNL1        0.2423
     24 C         -30.0650   -1.3770   23.5730 C.3     1  UNL1        0.2292
     25 O         -30.7290   -1.8780   24.7210 O.3     1  UNL1       -0.2162
     26 C         -26.3540    0.5760   25.7770 C.3     1  UNL1        0.2401
     27 F         -25.8600   -0.6810   25.7950 F       1  UNL1       -0.2269
     28 C         -31.6336    2.4620   25.5168 C.3     1  UNL1        0.0026
     29 O         -31.7100    4.4684   27.2064 O.3     1  UNL1       -0.3534
     30 C         -31.7109    4.3708   29.5910 C.3     1  UNL1        0.0653
     31 C         -23.0967    0.0980   29.3348 C.3     1  UNL1        0.0751
     32 C         -28.2410    1.8757   29.4726 C.2     1  UNL1        0.2660
     33 O         -29.3323    5.3866   31.7556 O.co2   1  UNL1       -0.2409
     34 C         -31.0652    3.8411   25.0650 C.3     1  UNL1        0.0321
     35 C         -23.3930    1.3686   27.3593 C.3     1  UNL1        0.0847
     36 C         -31.0697    1.6459   26.6962 C.3     1  UNL1        0.0001
     37 C         -30.2305    3.9699   30.0392 C.2     1  UNL1        0.0646
     38 C         -28.7038    3.1813   30.1891 C.2     1  UNL1        0.0618
     39 N         -24.7572   -0.0481   29.1467 N.3     1  UNL1       -0.2532
     40 C         -22.5209    1.3095   28.6178 C.3     1  UNL1        0.0337
     41 C         -24.8123    1.3610   27.5962 C.3     1  UNL1        0.0579
     42 N         -26.8009    1.6747   29.1742 N.am    1  UNL1       -0.1866
     43 O         -28.9838    1.0231   29.0774 O.2     1  UNL1       -0.2683
     44 C         -25.6047    0.9437   28.6701 C.3     1  UNL1        0.1567
     45 C         -31.8535    5.2665   28.3420 C.3     1  UNL1        0.1470
     46 C         -29.9496    5.4297   30.7192 C.2     1  UNL1        0.3841
     47 C         -31.6454    5.0256   25.8811 C.3     1  UNL1        0.1422
     48 CL        -22.4397    1.8834   26.0306 Cl      1  UNL1       -0.1148
     49 O         -30.3940    6.7245   30.3518 O.co2   1  UNL1       -0.2409
@<TRIPOS>BOND
     1     1     2    1
     2     2     7    1
     3     3     2    2
     4     4     3    1
     5     4     5    2
     6     5     6    1
     7     6     7    2
     8     8     1    1
     9     8     9    1
    10     8    12    1
    11     9    10    1
    12    10    11    1
    13    12    11    1
    14    13    14    1
    15    14    15    1
    16    15    18    2
    17    16    17    1
    18    16    15    1
    19    19    14    2
    20    20    21    2
    21    20    19    1
    22    21    26    1
    23    22    21    1
    24    23    22    1
    25    24    23    1
    26    24    25    1
    27    26    27    1
    28    26    13    1
    29    28    36    1
    30    29    45    1
    31    30    37    1
    32    32    38    1
    33    34    28    1
    34    34    47    1
    35    35    48    1
    36    35    41    1
    37    35    40    1
    38    37    38    2
    39    37    46    1
    40    39    31    1
    41    39     1    1
    42    40    31    1
    43    41    13    1
    44    41    44    1
    45    42    32    1
    46    43    32    2
    47    44    39    1
    48    44    42    1
    49    45    30    1
    50    46    33   ar
    51    47    29    1
    52    49    46   ar
