@<TRIPOS>MOLECULE
outputs/IAG933/test6/raw/output_2002_IAG933_linker_design_.xyz
 41 44 0 0 0
SMALL
GASTEIGER

@<TRIPOS>ATOM
      1 C         -24.8550   -1.0120   30.1430 C.3     1  UNL1        0.0976
      2 C         -24.9730   -2.5050   29.7880 C.2     1  UNL1       -0.0064
      3 C         -23.9060   -3.1730   29.1460 C.2     1  UNL1       -0.0029
      4 C         -23.9890   -4.5490   28.8530 C.2     1  UNL1       -0.0003
      5 C         -25.1370   -5.2800   29.2050 C.2     1  UNL1       -0.0000
      6 C         -26.2320   -4.6110   29.7840 C.2     1  UNL1       -0.0003
      7 C         -26.1550   -3.2320   30.0650 C.2     1  UNL1       -0.0029
      8 C         -25.3870   -0.6790   31.5710 C.3     1  UNL1        0.0916
      9 C         -25.1890    0.7730   32.0280 C.3     1  UNL1        0.0206
     10 C         -25.3360    0.6840   33.5440 C.3     1  UNL1        0.0203
     11 C         -24.8290   -0.7150   33.9050 C.3     1  UNL1        0.0888
     12 N         -24.7580   -1.4810   32.6460 N.3     1  UNL1       -0.2178
     13 C         -25.6880    1.6140   26.4610 C.3     1  UNL1        0.1023
     14 C         -26.2500    2.9200   26.3950 C.2     1  UNL1        0.0576
     15 C         -25.6420    4.0930   27.1230 C.2     1  UNL1        0.2625
     16 N         -25.6140    5.2520   26.4490 N.am    1  UNL1       -0.2000
     17 C         -25.0260    6.4790   26.9630 C.3     1  UNL1        0.1388
     18 O         -25.1430    3.9660   28.2430 O.2     1  UNL1       -0.2687
     19 C         -27.4380    3.0910   25.6450 C.2     1  UNL1        0.1022
     20 N         -28.0750    2.0890   25.0030 N.2     1  UNL1       -0.2119
     21 C         -27.5430    0.8490   25.0790 C.2     1  UNL1        0.2342
     22 O         -28.1930   -0.2080   24.4770 O.2     1  UNL1       -0.4585
     23 C         -29.4600    0.0050   23.8660 C.3     1  UNL1        0.2423
     24 C         -30.0650   -1.3770   23.5730 C.3     1  UNL1        0.2292
     25 O         -30.7290   -1.8780   24.7210 O.3     1  UNL1       -0.2162
     26 C         -26.3540    0.5760   25.7770 C.3     1  UNL1        0.2427
     27 F         -25.8600   -0.6810   25.7950 F       1  UNL1       -0.2268
     28 C         -28.4067    2.3034   31.2388 C.2     1  UNL1        0.3656
     29 O         -23.2680    2.1944   26.4082 O.3     1  UNL1       -0.2810
     30 C         -21.4194    1.5439   27.6914 C.3     1  UNL1        0.0541
     31 O         -28.3389    3.5280   31.3270 O.2     1  UNL1       -0.2470
     32 C         -27.9317    0.3251   29.6516 C.2     1  UNL1        0.2656
     33 N         -23.6489    1.3146   27.6587 N.3     1  UNL1       -0.1517
     34 N         -28.9444    1.6846   32.2651 N.am    1  UNL1       -0.0675
     35 C         -21.9910    2.0079   26.3458 C.3     1  UNL1        0.1681
     36 C         -22.6890    1.0998   28.5646 C.3     1  UNL1        0.1051
     37 N         -27.9971    1.6214   30.0648 N.am    1  UNL1       -0.1237
     38 N         -25.3860   -0.0672   28.9167 N.3     1  UNL1       -0.2475
     39 C         -25.0912    1.1249   27.8467 C.3     1  UNL1        0.1510
     40 C         -26.8576   -0.3876   28.7054 C.3     1  UNL1        0.1620
     41 O         -28.8540   -0.4051   29.9951 O.2     1  UNL1       -0.2713
@<TRIPOS>BOND
     1     1    38    1
     2     2     7    1
     3     2     1    1
     4     3     2    2
     5     4     3    1
     6     4     5    2
     7     5     6    1
     8     6     7    2
     9     8     1    1
    10     8     9    1
    11     8    12    1
    12     9    10    1
    13    10    11    1
    14    12    11    1
    15    13    39    1
    16    14    13    1
    17    14    15    1
    18    15    18    2
    19    16    17    1
    20    16    15    1
    21    19    14    2
    22    20    21    2
    23    20    19    1
    24    21    26    1
    25    22    21    1
    26    23    22    1
    27    24    23    1
    28    24    25    1
    29    26    27    1
    30    26    13    1
    31    28    31    2
    32    28    34    1
    33    29    33    1
    34    30    36    1
    35    32    41    2
    36    32    37    1
    37    33    39    1
    38    33    36    1
    39    35    29    1
    40    35    30    1
    41    37    28    1
    42    39    38    1
    43    40    38    1
    44    40    32    1
