@<TRIPOS>MOLECULE
No_2005-gen_results/8p0m/2024-11-27-11-27-31/
 19 20 0 0 0
SMALL
GASTEIGER

@<TRIPOS>ATOM
      1 C         -28.0162   -0.8135   28.8779 C.ar    1  UNL1        0.0375
      2 C         -27.0636   -0.1189   28.6079 C.ar    1  UNL1        0.0031
      3 C         -25.7923   -0.4302   29.0761 C.ar    1  UNL1        0.0002
      4 C         -25.5756   -1.5654   29.9363 C.ar    1  UNL1        0.0031
      5 C         -26.7354   -2.3004   30.2173 C.ar    1  UNL1        0.0375
      6 C         -27.9184   -1.9537   29.7629 C.ar    1  UNL1        0.1454
      7 O         -29.0001   -2.7012   30.1151 O.3     1  UNL1       -0.4504
      8 C         -24.5290    0.3490   28.7998 C.ar    1  UNL1        0.0000
      9 C         -24.1172    1.3368   29.6649 C.ar    1  UNL1        0.0000
     10 C         -22.9663    2.0989   29.3660 C.ar    1  UNL1        0.0000
     11 C         -22.1989    1.8191   28.1888 C.ar    1  UNL1        0.0000
     12 C         -22.7015    0.9234   27.2907 C.ar    1  UNL1        0.0000
     13 C         -23.8121    0.2119   27.5786 C.ar    1  UNL1        0.0000
     14 C         -30.1215   -2.1304   30.5731 C.2     1  UNL1        0.1795
     15 C         -30.2083   -1.1396   31.0610 C.2     1  UNL1        0.0407
     16 C         -30.7010   -0.3815   31.5691 C.2     1  UNL1        0.0032
     17 C         -30.2972    0.9910   32.0208 C.2     1  UNL1        0.0001
     18 C         -29.0207    1.3801   31.6757 C.2     1  UNL1        0.0000
     19 C         -28.1813    0.4894   31.1325 C.2     1  UNL1        0.0000
@<TRIPOS>BOND
     1     6     7    1
     2     3     8    1
     3     7    14    1
     4    14    15    2
     5    15    16    1
     6    16    17    2
     7    17    18    1
     8    18    19    2
     9     1     2   ar
    10     2     3   ar
    11     3     4   ar
    12     4     5   ar
    13     5     6   ar
    14     6     1   ar
    15     8     9   ar
    16     9    10   ar
    17    10    11   ar
    18    11    12   ar
    19    12    13   ar
    20    13     8   ar
