@<TRIPOS>MOLECULE
outputs/IAG933/test6/raw/output_2006_IAG933_linker_design_.xyz
 40 43 0 0 0
SMALL
GASTEIGER

@<TRIPOS>ATOM
      1 C         -24.8550   -1.0120   30.1430 C.3     1  UNL1        0.1014
      2 C         -24.9730   -2.5050   29.7880 C.2     1  UNL1       -0.0101
      3 C         -23.9060   -3.1730   29.1460 C.2     1  UNL1       -0.0034
      4 C         -23.9890   -4.5490   28.8530 C.2     1  UNL1       -0.0003
      5 C         -25.1370   -5.2800   29.2050 C.2     1  UNL1       -0.0000
      6 C         -26.2320   -4.6110   29.7840 C.2     1  UNL1       -0.0003
      7 C         -26.1550   -3.2320   30.0650 C.2     1  UNL1       -0.0034
      8 C         -25.3870   -0.6790   31.5710 C.3     1  UNL1        0.0879
      9 C         -25.1890    0.7730   32.0280 C.3     1  UNL1        0.0201
     10 C         -25.3360    0.6840   33.5440 C.3     1  UNL1        0.0203
     11 C         -24.8290   -0.7150   33.9050 C.3     1  UNL1        0.0887
     12 N         -24.7580   -1.4810   32.6460 N.3     1  UNL1       -0.2182
     13 C         -25.6880    1.6140   26.4610 C.2     1  UNL1        0.0424
     14 C         -26.2500    2.9200   26.3950 C.2     1  UNL1        0.0767
     15 C         -25.6420    4.0930   27.1230 C.2     1  UNL1        0.2664
     16 N         -25.6140    5.2520   26.4490 N.am    1  UNL1       -0.1997
     17 C         -25.0260    6.4790   26.9630 C.3     1  UNL1        0.1388
     18 O         -25.1430    3.9660   28.2430 O.2     1  UNL1       -0.2683
     19 C         -27.4380    3.0910   25.6450 C.2     1  UNL1        0.1067
     20 N         -28.0750    2.0890   25.0030 N.2     1  UNL1       -0.2081
     21 C         -27.5430    0.8490   25.0790 C.2     1  UNL1        0.2533
     22 O         -28.1930   -0.2080   24.4770 O.2     1  UNL1       -0.4558
     23 C         -29.4600    0.0050   23.8660 C.3     1  UNL1        0.2426
     24 C         -30.0650   -1.3770   23.5730 C.3     1  UNL1        0.2292
     25 O         -30.7290   -1.8780   24.7210 O.3     1  UNL1       -0.2162
     26 C         -26.3540    0.5760   25.7770 C.2     1  UNL1        0.1932
     27 F         -25.8600   -0.6810   25.7950 F       1  UNL1       -0.1992
     28 N         -21.9094    1.7401   26.9306 N.2     1  UNL1       -0.2356
     29 C         -24.0128    0.5480   28.2000 C.2     1  UNL1        0.0769
     30 C         -28.9726    0.9059   29.5824 C.3     1  UNL1        0.1754
     31 O         -26.7354   -0.7870   28.3368 O.3     1  UNL1       -0.1643
     32 C         -23.1737    1.8333   26.5135 C.2     1  UNL1        0.2190
     33 C         -22.5713    0.4094   28.7707 C.2     1  UNL1        0.2040
     34 C         -26.2056    1.3354   29.6055 C.3     1  UNL1        0.2137
     35 O         -27.6224    1.2265   30.0202 O.3     1  UNL1       -0.3384
     36 O         -22.2943   -0.2850   29.7982 O.2     1  UNL1       -0.2887
     37 C         -24.3060    1.3095   27.0969 C.2     1  UNL1        0.0573
     38 F         -23.2965    2.5663   25.3911 F       1  UNL1       -0.1835
     39 S         -25.4733   -0.1176   28.8310 S.3     1  UNL1       -0.0173
     40 C         -21.5977    1.0239   28.0391 C.3     1  UNL1        0.1970
@<TRIPOS>BOND
     1     1    39    1
     2     2     7    1
     3     2     1    1
     4     3     2    2
     5     4     3    1
     6     4     5    2
     7     5     6    1
     8     6     7    2
     9     8     1    1
    10     8     9    1
    11     8    12    1
    12     9    10    1
    13    10    11    1
    14    12    11    1
    15    13    37    1
    16    14    13    1
    17    14    15    1
    18    15    18    2
    19    16    17    1
    20    16    15    1
    21    19    14    2
    22    20    21    2
    23    20    19    1
    24    21    26    1
    25    22    21    1
    26    23    22    1
    27    24    23    1
    28    24    25    1
    29    26    27    1
    30    26    13    2
    31    28    40    1
    32    29    33    1
    33    29    39    1
    34    30    35    1
    35    32    28    2
    36    32    37    1
    37    33    36    2
    38    34    35    1
    39    37    29    2
    40    38    32    1
    41    39    31    1
    42    39    34    1
    43    40    33    1
