@<TRIPOS>MOLECULE
outputs/IAG933/test6/raw/output_2007_IAG933_linker_design_.xyz
 51 55 0 0 0
SMALL
GASTEIGER

@<TRIPOS>ATOM
      1 C         -24.8550   -1.0120   30.1430 C.3     1  UNL1        0.0437
      2 C         -24.9730   -2.5050   29.7880 C.2     1  UNL1       -0.0208
      3 C         -23.9060   -3.1730   29.1460 C.2     1  UNL1       -0.0042
      4 C         -23.9890   -4.5490   28.8530 C.2     1  UNL1       -0.0003
      5 C         -25.1370   -5.2800   29.2050 C.2     1  UNL1       -0.0000
      6 C         -26.2320   -4.6110   29.7840 C.2     1  UNL1       -0.0003
      7 C         -26.1550   -3.2320   30.0650 C.2     1  UNL1       -0.0042
      8 C         -25.3870   -0.6790   31.5710 C.3     1  UNL1        0.0779
      9 C         -25.1890    0.7730   32.0280 C.3     1  UNL1        0.0278
     10 C         -25.3360    0.6840   33.5440 C.3     1  UNL1        0.0210
     11 C         -24.8290   -0.7150   33.9050 C.3     1  UNL1        0.0887
     12 N         -24.7580   -1.4810   32.6460 N.3     1  UNL1       -0.2191
     13 C         -25.6880    1.6140   26.4610 C.2     1  UNL1        0.0407
     14 C         -26.2500    2.9200   26.3950 C.2     1  UNL1        0.0744
     15 C         -25.6420    4.0930   27.1230 C.2     1  UNL1        0.2218
     16 N         -25.6140    5.2520   26.4490 N.2     1  UNL1       -0.2357
     17 C         -25.0260    6.4790   26.9630 C.3     1  UNL1        0.1550
     18 O         -25.1430    3.9660   28.2430 O.2     1  UNL1       -0.4641
     19 C         -27.4380    3.0910   25.6450 C.2     1  UNL1        0.1068
     20 N         -28.0750    2.0890   25.0030 N.2     1  UNL1       -0.2081
     21 C         -27.5430    0.8490   25.0790 C.2     1  UNL1        0.2533
     22 O         -28.1930   -0.2080   24.4770 O.2     1  UNL1       -0.4558
     23 C         -29.4600    0.0050   23.8660 C.3     1  UNL1        0.2426
     24 C         -30.0650   -1.3770   23.5730 C.3     1  UNL1        0.2292
     25 O         -30.7290   -1.8780   24.7210 O.3     1  UNL1       -0.2162
     26 C         -26.3540    0.5760   25.7770 C.2     1  UNL1        0.1931
     27 F         -25.8600   -0.6810   25.7950 F       1  UNL1       -0.1992
     28 O         -29.0937    3.4300   30.5463 O.3     1  UNL1       -0.3131
     29 C         -26.4073    7.3113   30.2817 C.3     1  UNL1        0.0409
     30 C         -25.6668    1.9608   31.4339 C.3     1  UNL1        0.0492
     31 C         -24.1126    2.1150   29.6194 C.3     1  UNL1        0.0445
     32 O         -27.6483    4.7973   28.9185 O.2     1  UNL1       -0.2500
     33 C         -23.0155    2.4228   27.2462 C.3     1  UNL1        0.0791
     34 O         -27.3132    7.6991   32.4222 O.3     1  UNL1       -0.3330
     35 C         -25.0689    5.3272   33.9438 C.3     1  UNL1        0.1556
     36 C         -29.4726    4.1602   30.6802 C.3     1  UNL1        0.3629
     37 O         -28.3194    5.4074   30.8563 O.3     1  UNL1       -0.4188
     38 C         -29.5683    3.6207   29.3825 C.3     1  UNL1        0.1782
     39 C         -27.4961    5.2006   30.1815 C.2     1  UNL1        0.3186
     40 C         -21.9169    1.7129   27.9653 C.3     1  UNL1        0.1858
     41 S         -26.2845    3.2296   32.5309 S.3     1  UNL1       -0.1392
     42 C         -24.0061    3.0189   28.3642 C.3     1  UNL1        0.1702
     43 O         -25.5028    6.6544   34.0702 O.3     1  UNL1       -0.3296
     44 C         -26.4205    6.9061   33.0609 C.3     1  UNL1        0.2363
     45 C         -26.3251    6.0235   30.7476 C.3     1  UNL1        0.1073
     46 O         -22.1748    0.5657   28.7639 O.3     1  UNL1       -0.2203
     47 C         -25.7839    5.6865   32.0078 C.3     1  UNL1        0.0795
     48 C         -25.5760    4.6772   32.8843 C.3     1  UNL1        0.0826
     49 C         -25.5621    2.2366   30.1009 C.3     1  UNL1        0.0145
     50 C         -27.0308    8.1449   31.1422 C.3     1  UNL1        0.1184
     51 C         -27.2230    9.6733   30.8654 C.3     1  UNL1        0.0321
@<TRIPOS>BOND
     1     2     7    1
     2     2     1    1
     3     3     2    2
     4     4     3    1
     5     4     5    2
     6     5     6    1
     7     6     7    2
     8     8     1    1
     9     8     9    1
    10     8    12    1
    11     9    30    1
    12     9    10    1
    13    10    11    1
    14    12    11    1
    15    14    13    1
    16    14    15    1
    17    15    18    1
    18    16    17    1
    19    16    15    2
    20    18    42    1
    21    19    14    2
    22    20    21    2
    23    20    19    1
    24    21    26    1
    25    22    21    1
    26    23    22    1
    27    24    23    1
    28    24    25    1
    29    26    27    1
    30    26    13    2
    31    28    36    1
    32    29    45    1
    33    29    50    1
    34    30    49    1
    35    30    41    1
    36    31    49    1
    37    32    39    2
    38    33    40    1
    39    35    43    1
    40    36    37    1
    41    38    28    1
    42    39    37    1
    43    40    46    1
    44    41    48    1
    45    42    33    1
    46    42    31    1
    47    44    34    1
    48    44    43    1
    49    45    39    1
    50    45    47    1
    51    47    48    1
    52    47    44    1
    53    48    35    1
    54    50    34    1
    55    51    50    1
