@<TRIPOS>MOLECULE
outputs/IAG933/test6/raw/output_2008_IAG933_linker_design_.xyz
 40 44 0 0 0
SMALL
GASTEIGER

@<TRIPOS>ATOM
      1 C         -24.8550   -1.0120   30.1430 C.3     1  UNL1        0.0719
      2 C         -24.9730   -2.5050   29.7880 C.2     1  UNL1       -0.0186
      3 C         -23.9060   -3.1730   29.1460 C.2     1  UNL1       -0.0042
      4 C         -23.9890   -4.5490   28.8530 C.2     1  UNL1       -0.0003
      5 C         -25.1370   -5.2800   29.2050 C.2     1  UNL1       -0.0000
      6 C         -26.2320   -4.6110   29.7840 C.2     1  UNL1       -0.0003
      7 C         -26.1550   -3.2320   30.0650 C.2     1  UNL1       -0.0042
      8 C         -25.3870   -0.6790   31.5710 C.3     1  UNL1        0.0807
      9 C         -25.1890    0.7730   32.0280 C.3     1  UNL1        0.0340
     10 C         -25.3360    0.6840   33.5440 C.3     1  UNL1        0.0216
     11 C         -24.8290   -0.7150   33.9050 C.3     1  UNL1        0.0887
     12 N         -24.7580   -1.4810   32.6460 N.3     1  UNL1       -0.2190
     13 C         -25.6880    1.6140   26.4610 C.2     1  UNL1        0.0917
     14 C         -26.2500    2.9200   26.3950 C.2     1  UNL1        0.0902
     15 C         -25.6420    4.0930   27.1230 C.2     1  UNL1        0.2676
     16 N         -25.6140    5.2520   26.4490 N.am    1  UNL1       -0.1997
     17 C         -25.0260    6.4790   26.9630 C.3     1  UNL1        0.1388
     18 O         -25.1430    3.9660   28.2430 O.2     1  UNL1       -0.2683
     19 C         -27.4380    3.0910   25.6450 C.2     1  UNL1        0.1080
     20 N         -28.0750    2.0890   25.0030 N.2     1  UNL1       -0.2080
     21 C         -27.5430    0.8490   25.0790 C.2     1  UNL1        0.2546
     22 O         -28.1930   -0.2080   24.4770 O.2     1  UNL1       -0.4558
     23 C         -29.4600    0.0050   23.8660 C.3     1  UNL1        0.2426
     24 C         -30.0650   -1.3770   23.5730 C.3     1  UNL1        0.2292
     25 O         -30.7290   -1.8780   24.7210 O.3     1  UNL1       -0.2162
     26 C         -26.3540    0.5760   25.7770 C.2     1  UNL1        0.2066
     27 F         -25.8600   -0.6810   25.7950 F       1  UNL1       -0.1979
     28 CL        -23.0075    2.3929   25.2834 Cl      1  UNL1       -0.0636
     29 C         -23.1755    0.6854   28.7817 C.3     1  UNL1        0.2467
     30 N         -24.6736    1.4107   27.2708 N.pl3   1  UNL1       -0.2592
     31 N         -25.3388    1.9218   29.7852 N.3     1  UNL1       -0.1989
     32 F         -21.0832    1.3436   27.5252 F       1  UNL1       -0.2037
     33 F         -22.4620   -0.1537   29.5187 F       1  UNL1       -0.2265
     34 C         -25.2842   -0.3513   28.8367 C.3     1  UNL1        0.1923
     35 O         -26.6705   -0.2458   28.7327 O.3     1  UNL1       -0.2194
     36 C         -24.6015    0.9767   28.8020 C.3     1  UNL1        0.1879
     37 C         -25.3461    1.8599   31.0931 C.3     1  UNL1        0.0760
     38 C         -25.3697    3.1790   31.7648 C.3     1  UNL1        0.0189
     39 C         -23.2777    1.5563   26.7926 C.2     1  UNL1        0.1381
     40 C         -22.4382    1.1884   27.6577 C.2     1  UNL1        0.1775
@<TRIPOS>BOND
     1     1     2    1
     2     1     8    1
     3     2     7    1
     4     3     2    2
     5     4     3    1
     6     4     5    2
     7     5     6    1
     8     6     7    2
     9     8     9    1
    10     8    12    1
    11     9    10    1
    12    10    11    1
    13    12    11    1
    14    13    30    1
    15    14    13    1
    16    14    15    1
    17    15    18    2
    18    16    17    1
    19    16    15    1
    20    19    14    2
    21    20    21    2
    22    20    19    1
    23    21    26    1
    24    22    21    1
    25    23    22    1
    26    24    23    1
    27    24    25    1
    28    26    27    1
    29    26    13    2
    30    28    39    1
    31    29    36    1
    32    29    33    1
    33    30    36    1
    34    31    37    1
    35    32    40    1
    36    34    35    1
    37    34     1    1
    38    36    34    1
    39    36    31    1
    40    37    38    1
    41    37     9    1
    42    39    30    1
    43    39    40    2
    44    40    29    1
