@<TRIPOS>MOLECULE
No_2009-gen_results/8p0m/2024-11-27-11-27-31/
 20 22 0 0 0
SMALL
GASTEIGER

@<TRIPOS>ATOM
      1 C         -28.0162   -0.8135   28.8779 C.ar    1  UNL1        0.0045
      2 C         -27.0636   -0.1189   28.6079 C.ar    1  UNL1        0.0001
      3 C         -25.7647   -0.3897   29.0360 C.ar    1  UNL1        0.0000
      4 C         -25.5296   -1.5302   29.9014 C.ar    1  UNL1        0.0001
      5 C         -26.6577   -2.2915   30.2035 C.ar    1  UNL1        0.0045
      6 C         -27.6860   -1.9196   29.6994 C.ar    1  UNL1        0.0536
      7 C         -24.5358    0.4438   28.7505 C.ar    1  UNL1        0.0000
      8 C         -24.4785    1.2440   27.7352 C.ar    1  UNL1        0.0000
      9 C         -23.2799    1.9638   27.4027 C.ar    1  UNL1        0.0000
     10 C         -22.0825    1.7119   28.0123 C.ar    1  UNL1        0.0000
     11 C         -23.2833    0.1499   29.4606 C.ar    1  UNL1        0.0000
     12 C         -22.0842    0.8238   29.0727 C.ar    1  UNL1        0.0000
     13 C         -28.9697   -2.8295   30.1411 C.2     1  UNL1        0.2490
     14 O         -28.8464   -4.0526   30.1700 O.2     1  UNL1       -0.2699
     15 N         -30.1389   -2.2865   30.3731 N.am    1  UNL1       -0.2761
     16 C         -31.2809   -3.0795   30.7227 C.3     1  UNL1        0.0937
     17 C         -32.2371   -3.0783   29.7370 C.3     1  UNL1        0.0216
     18 C         -32.4320   -1.9470   29.0072 C.3     1  UNL1        0.0035
     19 C         -31.5208   -0.8658   29.0980 C.3     1  UNL1        0.0216
     20 C         -30.4268   -1.0071   29.8009 C.3     1  UNL1        0.0937
@<TRIPOS>BOND
     1     3     7    1
     2     6    13    1
     3    13    14    2
     4    13    15   am
     5    15    16    1
     6    16    17    1
     7    18    19    1
     8    15    20    1
     9    17    18    1
    10    19    20    1
    11     7     8   ar
    12     8     9   ar
    13     9    10   ar
    14    10    12   ar
    15    12    11   ar
    16    11     7   ar
    17     1     2   ar
    18     2     3   ar
    19     3     4   ar
    20     4     5   ar
    21     5     6   ar
    22     6     1   ar
