@<TRIPOS>MOLECULE
No_2010-gen_results/8p0m/2024-11-27-11-27-31/
 35 37 0 0 0
SMALL
GASTEIGER

@<TRIPOS>ATOM
      1 C         -28.0162   -0.8135   28.8779 C.ar    1  UNL1        0.0737
      2 C         -27.0636   -0.1190   28.6079 C.ar    1  UNL1        0.0040
      3 C         -27.0010    0.6913   27.4910 C.ar    1  UNL1        0.0019
      4 C         -28.1373    0.7363   26.6350 C.ar    1  UNL1        0.0235
      5 C         -28.1438    1.4322   25.4880 C.2     1  UNL1       -0.0197
      6 C         -29.2801   -0.5524   28.2479 C.ar    1  UNL1        0.0335
      7 C         -29.2552    0.0950   27.0446 C.ar    1  UNL1        0.1397
      8 C         -28.5317    2.6153   25.4770 C.2     1  UNL1       -0.0040
      9 C         -27.6373    0.8030   24.2694 C.3     1  UNL1        0.0311
     10 C         -28.7941    3.4416   26.6231 C.ar    1  UNL1        0.0041
     11 C         -29.4865    4.1625   27.0998 C.ar    1  UNL1        0.0552
     12 C         -29.4207    4.9747   28.2791 C.ar    1  UNL1        0.0091
     13 C         -28.2904    4.7616   29.0490 C.ar    1  UNL1        0.0552
     14 C         -28.0765    5.3987   30.3241 C.2     1  UNL1        0.2648
     15 C         -27.4841    3.4685   27.6083 C.ar    1  UNL1        0.0003
     16 C         -27.3100    4.1693   28.6981 C.ar    1  UNL1        0.0046
     17 O         -28.9295    6.0102   30.9414 O.2     1  UNL1       -0.2684
     18 N         -26.8576    5.2321   30.9878 N.am    1  UNL1       -0.2013
     19 C         -26.6125    5.7505   32.3110 C.3     1  UNL1        0.1201
     20 C         -25.3033    5.2033   32.7833 C.3     1  UNL1        0.0498
     21 C         -25.4142    3.8523   33.2725 C.ar    1  UNL1       -0.0204
     22 C         -26.3019    3.6228   34.1782 C.ar    1  UNL1       -0.0042
     23 C         -26.7631    2.2218   34.3005 C.ar    1  UNL1       -0.0003
     24 C         -26.1609    1.2464   33.5198 C.ar    1  UNL1       -0.0000
     25 C         -25.2529    1.5814   32.5010 C.ar    1  UNL1       -0.0003
     26 C         -24.9420    2.9318   32.3285 C.ar    1  UNL1       -0.0042
     27 C         -28.0883   -1.6324   30.1724 C.3     1  UNL1        0.4186
     28 F         -28.5771   -1.2127   31.1436 F       1  UNL1       -0.1659
     29 F         -28.6720   -2.8352   29.8665 F       1  UNL1       -0.1659
     30 F         -26.7435   -2.0947   30.3630 F       1  UNL1       -0.1659
     31 F         -30.3955    0.2337   26.4519 F       1  UNL1       -0.2042
     32 C         -30.9005    4.3688   26.4147 C.2     1  UNL1        0.2648
     33 O         -31.1062    3.9839   25.4281 O.2     1  UNL1       -0.2684
     34 N         -31.8811    5.1238   27.0835 N.am    1  UNL1       -0.1998
     35 C         -33.1521    5.3261   26.4924 C.3     1  UNL1        0.1388
@<TRIPOS>BOND
     1     4     5    1
     2     5     8    2
     3     5     9    1
     4     8    10    1
     5    13    14    1
     6    14    17    2
     7    14    18   am
     8    18    19    1
     9    19    20    1
    10    20    21    1
    11     1    27    1
    12    27    28    1
    13    27    29    1
    14    27    30    1
    15     7    31    1
    16    11    32    1
    17    32    33    2
    18    32    34   am
    19    34    35    1
    20    21    22   ar
    21    22    23   ar
    22    23    24   ar
    23    24    25   ar
    24    25    26   ar
    25    26    21   ar
    26    10    11   ar
    27    11    12   ar
    28    12    13   ar
    29    13    16   ar
    30    16    15   ar
    31    15    10   ar
    32     1     2   ar
    33     2     3   ar
    34     3     4   ar
    35     4     7   ar
    36     7     6   ar
    37     6     1   ar
