@<TRIPOS>MOLECULE
outputs/IAG933/test6/raw/output_2011_IAG933_linker_design_.xyz
 43 47 0 0 0
SMALL
GASTEIGER

@<TRIPOS>ATOM
      1 C         -24.8550   -1.0120   30.1430 C.3     1  UNL1        0.0511
      2 C         -24.9730   -2.5050   29.7880 C.2     1  UNL1       -0.0204
      3 C         -23.9060   -3.1730   29.1460 C.2     1  UNL1       -0.0042
      4 C         -23.9890   -4.5490   28.8530 C.2     1  UNL1       -0.0003
      5 C         -25.1370   -5.2800   29.2050 C.2     1  UNL1       -0.0000
      6 C         -26.2320   -4.6110   29.7840 C.2     1  UNL1       -0.0003
      7 C         -26.1550   -3.2320   30.0650 C.2     1  UNL1       -0.0042
      8 C         -25.3870   -0.6790   31.5710 C.3     1  UNL1        0.0776
      9 C         -25.1890    0.7730   32.0280 C.3     1  UNL1        0.0192
     10 C         -25.3360    0.6840   33.5440 C.3     1  UNL1        0.0202
     11 C         -24.8290   -0.7150   33.9050 C.3     1  UNL1        0.0887
     12 N         -24.7580   -1.4810   32.6460 N.3     1  UNL1       -0.2191
     13 C         -25.6880    1.6140   26.4610 C.2     1  UNL1        0.0378
     14 C         -26.2500    2.9200   26.3950 C.2     1  UNL1        0.0765
     15 C         -25.6420    4.0930   27.1230 C.2     1  UNL1        0.2664
     16 N         -25.6140    5.2520   26.4490 N.am    1  UNL1       -0.1997
     17 C         -25.0260    6.4790   26.9630 C.3     1  UNL1        0.1388
     18 O         -25.1430    3.9660   28.2430 O.2     1  UNL1       -0.2683
     19 C         -27.4380    3.0910   25.6450 C.2     1  UNL1        0.1067
     20 N         -28.0750    2.0890   25.0030 N.2     1  UNL1       -0.2081
     21 C         -27.5430    0.8490   25.0790 C.2     1  UNL1        0.2533
     22 O         -28.1930   -0.2080   24.4770 O.2     1  UNL1       -0.4558
     23 C         -29.4600    0.0050   23.8660 C.3     1  UNL1        0.2426
     24 C         -30.0650   -1.3770   23.5730 C.3     1  UNL1        0.2292
     25 O         -30.7290   -1.8780   24.7210 O.3     1  UNL1       -0.2162
     26 C         -26.3540    0.5760   25.7770 C.2     1  UNL1        0.1930
     27 F         -25.8600   -0.6810   25.7950 F       1  UNL1       -0.1992
     28 C         -26.7041    0.1493   29.1183 C.2     1  UNL1        0.2474
     29 C         -29.4455    1.7202   30.5174 C.3     1  UNL1        0.0514
     30 N         -27.4234    1.3065   29.0029 N.am    1  UNL1       -0.1787
     31 O         -29.5863    0.7088   28.2066 O.3     1  UNL1       -0.2035
     32 C         -29.1867    3.2046   30.9753 C.3     1  UNL1        0.0045
     33 C         -28.7200    4.0729   29.7469 C.3     1  UNL1        0.0045
     34 C         -23.2524    2.0531   26.2032 C.2     1  UNL1       -0.0002
     35 C         -21.9241    1.8526   26.7392 C.2     1  UNL1       -0.0000
     36 C         -28.8912    1.6717   29.0810 C.3     1  UNL1        0.2036
     37 C         -21.7369    1.1514   27.9488 C.2     1  UNL1       -0.0003
     38 C         -29.4459    3.4545   28.4662 C.3     1  UNL1        0.0514
     39 C         -24.3383    1.4342   26.9951 C.2     1  UNL1       -0.0010
     40 C         -25.2695   -0.0211   29.0452 C.3     1  UNL1        0.1058
     41 C         -24.1669    0.6987   28.2635 C.2     1  UNL1       -0.0134
     42 C         -22.8013    0.6650   28.7117 C.2     1  UNL1       -0.0038
     43 O         -27.5005   -0.7516   29.3061 O.2     1  UNL1       -0.2729
@<TRIPOS>BOND
     1     1    40    1
     2     2     7    1
     3     2     1    1
     4     3     2    2
     5     4     3    1
     6     4     5    2
     7     5     6    1
     8     6     7    2
     9     8     1    1
    10     8     9    1
    11     8    12    1
    12     9    10    1
    13    10    11    1
    14    12    11    1
    15    13    39    1
    16    14    13    1
    17    14    15    1
    18    15    18    2
    19    16    17    1
    20    16    15    1
    21    19    14    2
    22    20    21    2
    23    20    19    1
    24    21    26    1
    25    22    21    1
    26    23    22    1
    27    24    23    1
    28    24    25    1
    29    26    27    1
    30    26    13    2
    31    28    43    2
    32    29    32    1
    33    30    36    1
    34    30    28    1
    35    31    36    1
    36    33    32    1
    37    34    35    2
    38    34    39    1
    39    35    37    1
    40    36    29    1
    41    37    42    2
    42    38    36    1
    43    38    33    1
    44    39    41    2
    45    40    28    1
    46    41    42    1
    47    41    40    1
