@<TRIPOS>MOLECULE
outputs/IAG933/test6/raw/output_2014_IAG933_linker_design_.xyz
 38 41 0 0 0
SMALL
GASTEIGER

@<TRIPOS>ATOM
      1 C         -24.8550   -1.0120   30.1430 C.3     1  UNL1        0.1471
      2 C         -24.9730   -2.5050   29.7880 C.2     1  UNL1       -0.0096
      3 C         -23.9060   -3.1730   29.1460 C.2     1  UNL1       -0.0037
      4 C         -23.9890   -4.5490   28.8530 C.2     1  UNL1       -0.0003
      5 C         -25.1370   -5.2800   29.2050 C.2     1  UNL1       -0.0000
      6 C         -26.2320   -4.6110   29.7840 C.2     1  UNL1       -0.0003
      7 C         -26.1550   -3.2320   30.0650 C.2     1  UNL1       -0.0037
      8 C         -25.3870   -0.6790   31.5710 C.3     1  UNL1        0.0885
      9 C         -25.1890    0.7730   32.0280 C.3     1  UNL1        0.0198
     10 C         -25.3360    0.6840   33.5440 C.3     1  UNL1        0.0203
     11 C         -24.8290   -0.7150   33.9050 C.3     1  UNL1        0.0887
     12 N         -24.7580   -1.4810   32.6460 N.3     1  UNL1       -0.2185
     13 C         -25.6880    1.6140   26.4610 C.2     1  UNL1        0.0667
     14 C         -26.2500    2.9200   26.3950 C.2     1  UNL1        0.0767
     15 C         -25.6420    4.0930   27.1230 C.2     1  UNL1        0.2663
     16 N         -25.6140    5.2520   26.4490 N.am    1  UNL1       -0.1997
     17 C         -25.0260    6.4790   26.9630 C.3     1  UNL1        0.1388
     18 O         -25.1430    3.9660   28.2430 O.2     1  UNL1       -0.2683
     19 C         -27.4380    3.0910   25.6450 C.2     1  UNL1        0.1065
     20 N         -28.0750    2.0890   25.0030 N.2     1  UNL1       -0.2081
     21 C         -27.5430    0.8490   25.0790 C.2     1  UNL1        0.2531
     22 O         -28.1930   -0.2080   24.4770 O.2     1  UNL1       -0.4558
     23 C         -29.4600    0.0050   23.8660 C.3     1  UNL1        0.2426
     24 C         -30.0650   -1.3770   23.5730 C.3     1  UNL1        0.2292
     25 O         -30.7290   -1.8780   24.7210 O.3     1  UNL1       -0.2162
     26 C         -26.3540    0.5760   25.7770 C.2     1  UNL1        0.1932
     27 F         -25.8600   -0.6810   25.7950 F       1  UNL1       -0.1994
     28 C         -23.3117    1.3861   26.7584 C.3     1  UNL1        0.2027
     29 C         -22.0351    1.1475   27.5371 C.3     1  UNL1        0.2299
     30 C         -24.0627   -0.1352   29.2989 C.2     1  UNL1        0.3369
     31 N         -24.7747    0.4846   28.3534 N.2     1  UNL1       -0.0630
     32 N         -22.7593   -0.0974   29.5280 N.pl3   1  UNL1       -0.0370
     33 C         -23.6155    0.8110   24.4809 C.3     1  UNL1        0.1743
     34 C         -21.7942    0.3194   28.6826 C.3     1  UNL1        0.2374
     35 O         -23.1784    1.6907   25.5091 O.3     1  UNL1       -0.3460
     36 C         -24.5338    1.1988   27.2895 C.3     1  UNL1        0.2688
     37 O         -20.9714    1.8181   27.0864 O.3     1  UNL1       -0.2159
     38 C         -20.4434   -0.1435   28.7488 C.3     1  UNL1        0.0581
@<TRIPOS>BOND
     1     1    30    1
     2     2     7    1
     3     2     1    1
     4     3     2    2
     5     4     3    1
     6     4     5    2
     7     5     6    1
     8     6     7    2
     9     8     1    1
    10     8     9    1
    11     8    12    1
    12     9    10    1
    13    10    11    1
    14    12    11    1
    15    14    13    1
    16    14    15    1
    17    15    18    2
    18    16    17    1
    19    16    15    1
    20    19    14    2
    21    20    21    2
    22    20    19    1
    23    21    26    1
    24    22    21    1
    25    23    22    1
    26    24    23    1
    27    24    25    1
    28    26    27    1
    29    26    13    2
    30    28    35    1
    31    28    36    1
    32    28    29    1
    33    29    37    1
    34    29    34    1
    35    30    32    1
    36    31    30    2
    37    33    35    1
    38    34    38    1
    39    34    32    1
    40    36    13    1
    41    36    31    1
