@<TRIPOS>MOLECULE
outputs/IAG933/test6/raw/output_2015_IAG933_linker_design_.xyz
 45 50 0 0 0
SMALL
GASTEIGER

@<TRIPOS>ATOM
      1 C         -24.8550   -1.0120   30.1430 C.3     1  UNL1        0.0438
      2 C         -24.9730   -2.5050   29.7880 C.2     1  UNL1       -0.0208
      3 C         -23.9060   -3.1730   29.1460 C.2     1  UNL1       -0.0042
      4 C         -23.9890   -4.5490   28.8530 C.2     1  UNL1       -0.0003
      5 C         -25.1370   -5.2800   29.2050 C.2     1  UNL1       -0.0000
      6 C         -26.2320   -4.6110   29.7840 C.2     1  UNL1       -0.0003
      7 C         -26.1550   -3.2320   30.0650 C.2     1  UNL1       -0.0042
      8 C         -25.3870   -0.6790   31.5710 C.3     1  UNL1        0.0811
      9 C         -25.1890    0.7730   32.0280 C.3     1  UNL1        0.0647
     10 C         -25.3360    0.6840   33.5440 C.3     1  UNL1        0.0243
     11 C         -24.8290   -0.7150   33.9050 C.3     1  UNL1        0.0888
     12 N         -24.7580   -1.4810   32.6460 N.3     1  UNL1       -0.2190
     13 C         -25.6880    1.6140   26.4610 C.2     1  UNL1        0.0811
     14 C         -26.2500    2.9200   26.3950 C.2     1  UNL1        0.0801
     15 C         -25.6420    4.0930   27.1230 C.2     1  UNL1        0.2665
     16 N         -25.6140    5.2520   26.4490 N.am    1  UNL1       -0.1997
     17 C         -25.0260    6.4790   26.9630 C.3     1  UNL1        0.1388
     18 O         -25.1430    3.9660   28.2430 O.2     1  UNL1       -0.2683
     19 C         -27.4380    3.0910   25.6450 C.2     1  UNL1        0.1069
     20 N         -28.0750    2.0890   25.0030 N.2     1  UNL1       -0.2081
     21 C         -27.5430    0.8490   25.0790 C.2     1  UNL1        0.2534
     22 O         -28.1930   -0.2080   24.4770 O.2     1  UNL1       -0.4558
     23 C         -29.4600    0.0050   23.8660 C.3     1  UNL1        0.2426
     24 C         -30.0650   -1.3770   23.5730 C.3     1  UNL1        0.2292
     25 O         -30.7290   -1.8780   24.7210 O.3     1  UNL1       -0.2162
     26 C         -26.3540    0.5760   25.7770 C.2     1  UNL1        0.1966
     27 F         -25.8600   -0.6810   25.7950 F       1  UNL1       -0.1991
     28 C         -23.5340    1.7908   29.1553 C.2     1  UNL1        0.3634
     29 C         -23.3280    1.5687   26.3744 C.2     1  UNL1        0.0765
     30 C         -26.6837    3.8010   33.3252 C.3     1  UNL1        0.1864
     31 C         -22.1874    1.8170   27.1035 C.2     1  UNL1        0.1514
     32 F         -21.0762    1.9658   26.4004 F       1  UNL1       -0.2038
     33 C         -25.6446    3.7659   32.3172 C.3     1  UNL1        0.0630
     34 N         -25.3125    5.5491   33.4284 N.3     1  UNL1       -0.1634
     35 C         -27.4895    2.2450   31.3557 C.3     1  UNL1        0.0642
     36 N         -24.6224    1.5419   28.4392 N.2     1  UNL1       -0.0363
     37 C         -24.9958    2.1547   31.3690 C.3     1  UNL1        0.2072
     38 C         -24.9070    5.1235   32.1404 C.3     1  UNL1        0.1046
     39 S         -28.3220    3.1340   32.7111 S.3     1  UNL1       -0.1098
     40 C         -22.2577    1.8664   28.5259 C.2     1  UNL1        0.1228
     41 N         -23.8013    2.2476   30.4133 N.pl3   1  UNL1       -0.0356
     42 O         -26.4595    5.0286   33.9499 O.3     1  UNL1       -0.2737
     43 C         -26.2213    3.1223   31.1806 C.3     1  UNL1        0.0625
     44 C         -24.4397    6.4497   34.1266 C.3     1  UNL1        0.1208
     45 C         -24.5447    1.5519   27.1293 C.2     1  UNL1        0.1980
@<TRIPOS>BOND
     1     2     7    1
     2     2     1    1
     3     3     2    2
     4     4     3    1
     5     4     5    2
     6     5     6    1
     7     6     7    2
     8     8     1    1
     9     8     9    1
    10     8    12    1
    11     9    37    1
    12     9    10    1
    13    10    11    1
    14    12    11    1
    15    13    45    1
    16    14    13    1
    17    14    15    1
    18    15    18    2
    19    16    17    1
    20    16    15    1
    21    19    14    2
    22    20    21    2
    23    20    19    1
    24    21    26    1
    25    22    21    1
    26    23    22    1
    27    24    23    1
    28    24    25    1
    29    26    27    1
    30    26    13    2
    31    28    41    1
    32    29    31    1
    33    29    45    2
    34    30    39    1
    35    30    42    1
    36    31    40    2
    37    32    31    1
    38    33    38    1
    39    33    30    1
    40    34    42    1
    41    34    44    1
    42    35    39    1
    43    36    28    2
    44    37    41    1
    45    38    34    1
    46    40    28    1
    47    43    35    1
    48    43    37    1
    49    43    33    1
    50    45    36    1
