@<TRIPOS>MOLECULE
No_2016-gen_results/8p0m/2024-11-27-11-27-31/
 14 14 0 0 0
SMALL
GASTEIGER

@<TRIPOS>ATOM
      1 O         -28.1229   -1.3353   28.4874 O.2     1  UNL1       -0.2696
      2 C         -27.4806   -0.4044   28.7094 C.2     1  UNL1        0.2528
      3 C         -26.3804   -0.0867   27.9394 C.ar    1  UNL1        0.0539
      4 N         -27.6664    0.4468   29.8988 N.am    1  UNL1       -0.2522
      5 C         -25.1773   -0.4388   28.3946 C.ar    1  UNL1        0.0045
      6 C         -26.5259    0.6036   26.6867 C.ar    1  UNL1        0.0045
      7 C         -23.9372    0.0372   27.6524 C.ar    1  UNL1        0.0001
      8 C         -25.3755    0.9746   25.9410 C.ar    1  UNL1        0.0001
      9 C         -24.0997    0.7141   26.4562 C.ar    1  UNL1        0.0000
     10 C         -28.7539    0.1002   30.7927 C.3     1  UNL1        0.1204
     11 C         -26.8497    1.5262   30.1936 C.2     1  UNL1        0.0678
     12 C         -26.1423    1.5326   31.0527 C.2     1  UNL1        0.0162
     13 C         -25.3636    1.9616   31.6028 C.2     1  UNL1        0.0013
     14 C         -24.3288    2.4354   32.3546 C.2     1  UNL1        0.0000
@<TRIPOS>BOND
     1     1     2    2
     2     2     3    1
     3     2     4   am
     4     4    10    1
     5     4    11    1
     6    11    12    2
     7    12    13    1
     8    13    14    2
     9     3     5   ar
    10     5     7   ar
    11     7     9   ar
    12     9     8   ar
    13     8     6   ar
    14     6     3   ar
