@<TRIPOS>MOLECULE
outputs/IAG933/test6/raw/output_2019_IAG933_linker_design_.xyz
 47 52 0 0 0
SMALL
GASTEIGER

@<TRIPOS>ATOM
      1 C         -24.8550   -1.0120   30.1430 C.3     1  UNL1        0.0405
      2 C         -24.9730   -2.5050   29.7880 C.2     1  UNL1       -0.0211
      3 C         -23.9060   -3.1730   29.1460 C.2     1  UNL1       -0.0042
      4 C         -23.9890   -4.5490   28.8530 C.2     1  UNL1       -0.0003
      5 C         -25.1370   -5.2800   29.2050 C.2     1  UNL1       -0.0000
      6 C         -26.2320   -4.6110   29.7840 C.2     1  UNL1       -0.0003
      7 C         -26.1550   -3.2320   30.0650 C.2     1  UNL1       -0.0042
      8 C         -25.3870   -0.6790   31.5710 C.3     1  UNL1        0.0769
      9 C         -25.1890    0.7730   32.0280 C.3     1  UNL1        0.0192
     10 C         -25.3360    0.6840   33.5440 C.3     1  UNL1        0.0202
     11 C         -24.8290   -0.7150   33.9050 C.3     1  UNL1        0.0887
     12 N         -24.7580   -1.4810   32.6460 N.3     1  UNL1       -0.2191
     13 C         -25.6880    1.6140   26.4610 C.2     1  UNL1        0.0344
     14 C         -26.2500    2.9200   26.3950 C.2     1  UNL1        0.0741
     15 C         -25.6420    4.0930   27.1230 C.2     1  UNL1        0.2662
     16 N         -25.6140    5.2520   26.4490 N.am    1  UNL1       -0.1997
     17 C         -25.0260    6.4790   26.9630 C.3     1  UNL1        0.1388
     18 O         -25.1430    3.9660   28.2430 O.2     1  UNL1       -0.2683
     19 C         -27.4380    3.0910   25.6450 C.2     1  UNL1        0.1065
     20 N         -28.0750    2.0890   25.0030 N.2     1  UNL1       -0.2081
     21 C         -27.5430    0.8490   25.0790 C.2     1  UNL1        0.2530
     22 O         -28.1930   -0.2080   24.4770 O.2     1  UNL1       -0.4558
     23 C         -29.4600    0.0050   23.8660 C.3     1  UNL1        0.2426
     24 C         -30.0650   -1.3770   23.5730 C.3     1  UNL1        0.2292
     25 O         -30.7290   -1.8780   24.7210 O.3     1  UNL1       -0.2162
     26 C         -26.3540    0.5760   25.7770 C.2     1  UNL1        0.1907
     27 F         -25.8600   -0.6810   25.7950 F       1  UNL1       -0.1995
     28 C         -25.9439    3.9742   31.2296 C.2     1  UNL1        0.1538
     29 O         -24.8972    3.5453   30.9035 O.2     1  UNL1       -0.2960
     30 C         -24.9448    1.1124   28.6903 C.3     1  UNL1        0.1027
     31 C         -22.7407    0.3810   28.2680 C.3     1  UNL1        0.0970
     32 O         -22.9925    2.6953   25.4082 O.2     1  UNL1       -0.2360
     33 C         -27.9906    2.7408   30.6303 C.3     1  UNL1        0.1615
     34 C         -26.4006    0.8272   28.9907 C.2     1  UNL1        0.2441
     35 C         -29.2842    0.7064   31.1248 C.3     1  UNL1        0.0909
     36 N         -28.9844    2.1860   31.4002 N.3     1  UNL1       -0.2553
     37 C         -29.5929    3.0312   32.1966 C.3     1  UNL1        0.0742
     38 F         -21.2085    1.9244   26.2602 F       1  UNL1       -0.1434
     39 N         -27.1099    1.8780   29.6995 N.am    1  UNL1       -0.1900
     40 C         -26.6283    5.0754   31.6087 C.3     1  UNL1        0.0746
     41 C         -22.5155    2.0097   26.2587 C.2     1  UNL1        0.3936
     42 N         -23.2435    1.2950   27.2150 N.am    1  UNL1       -0.2499
     43 O         -27.0548   -0.1318   28.6867 O.2     1  UNL1       -0.2732
     44 C         -27.4693    3.9185   31.3829 C.3     1  UNL1        0.0922
     45 C         -24.0086   -0.1102   29.0782 C.3     1  UNL1        0.0360
     46 C         -28.6961    4.0296   32.3607 C.3     1  UNL1        0.0278
     47 C         -24.5548    1.1263   27.2112 C.3     1  UNL1        0.1114
@<TRIPOS>BOND
     1     1     2    1
     2     2     7    1
     3     3     2    2
     4     4     3    1
     5     4     5    2
     6     5     6    1
     7     6     7    2
     8     8     1    1
     9     8     9    1
    10     8    12    1
    11     9    10    1
    12    10    11    1
    13    12    11    1
    14    14    13    1
    15    14    15    1
    16    15    18    2
    17    16    17    1
    18    16    15    1
    19    19    14    2
    20    20    21    2
    21    20    19    1
    22    21    26    1
    23    22    21    1
    24    23    22    1
    25    24    23    1
    26    24    25    1
    27    26    27    1
    28    26    13    2
    29    28    44    1
    30    28    40    1
    31    29    28    2
    32    30    34    1
    33    30    45    1
    34    31    45    1
    35    32    41    2
    36    33    39    1
    37    33    44    1
    38    33    36    1
    39    34    39    1
    40    35    36    1
    41    36    37    1
    42    37    46    1
    43    41    38    1
    44    41    42   am
    45    42    31    1
    46    43    34    2
    47    44    40    1
    48    44    46    1
    49    45     1    1
    50    47    13    1
    51    47    42    1
    52    47    30    1
