@<TRIPOS>MOLECULE
outputs/IAG933/test6/raw/output_202_IAG933_linker_design_.xyz
 44 47 0 0 0
SMALL
GASTEIGER

@<TRIPOS>ATOM
      1 C         -24.8550   -1.0120   30.1430 C.3     1  UNL1        0.0766
      2 C         -24.9730   -2.5050   29.7880 C.2     1  UNL1       -0.0156
      3 C         -23.9060   -3.1730   29.1460 C.2     1  UNL1       -0.0039
      4 C         -23.9890   -4.5490   28.8530 C.2     1  UNL1       -0.0003
      5 C         -25.1370   -5.2800   29.2050 C.2     1  UNL1       -0.0000
      6 C         -26.2320   -4.6110   29.7840 C.2     1  UNL1       -0.0003
      7 C         -26.1550   -3.2320   30.0650 C.2     1  UNL1       -0.0039
      8 C         -25.3870   -0.6790   31.5710 C.3     1  UNL1        0.0823
      9 C         -25.1890    0.7730   32.0280 C.3     1  UNL1        0.0196
     10 C         -25.3360    0.6840   33.5440 C.3     1  UNL1        0.0203
     11 C         -24.8290   -0.7150   33.9050 C.3     1  UNL1        0.0887
     12 N         -24.7580   -1.4810   32.6460 N.3     1  UNL1       -0.2187
     13 C         -25.6880    1.6140   26.4610 C.3     1  UNL1        0.1084
     14 C         -26.2500    2.9200   26.3950 C.2     1  UNL1        0.0604
     15 C         -25.6420    4.0930   27.1230 C.2     1  UNL1        0.2628
     16 N         -25.6140    5.2520   26.4490 N.am    1  UNL1       -0.2000
     17 C         -25.0260    6.4790   26.9630 C.3     1  UNL1        0.1388
     18 O         -25.1430    3.9660   28.2430 O.2     1  UNL1       -0.2686
     19 C         -27.4380    3.0910   25.6450 C.2     1  UNL1        0.1025
     20 N         -28.0750    2.0890   25.0030 N.2     1  UNL1       -0.2118
     21 C         -27.5430    0.8490   25.0790 C.2     1  UNL1        0.2345
     22 O         -28.1930   -0.2080   24.4770 O.2     1  UNL1       -0.4585
     23 C         -29.4600    0.0050   23.8660 C.3     1  UNL1        0.2423
     24 C         -30.0650   -1.3770   23.5730 C.3     1  UNL1        0.2292
     25 O         -30.7290   -1.8780   24.7210 O.3     1  UNL1       -0.2162
     26 C         -26.3540    0.5760   25.7770 C.3     1  UNL1        0.2455
     27 F         -25.8600   -0.6810   25.7950 F       1  UNL1       -0.2265
     28 C         -26.5098    5.3400   31.5415 C.3     1  UNL1        0.0964
     29 O         -27.4943   -0.0862   28.5827 O.2     1  UNL1       -0.2698
     30 F         -21.0014    1.3849   27.7041 F       1  UNL1       -0.2143
     31 C         -29.1034    2.0496   29.6492 C.3     1  UNL1        0.0336
     32 N         -27.1469    3.2837   30.4022 N.am    1  UNL1       -0.1976
     33 O         -28.3250    4.1363   32.3694 O.2     1  UNL1       -0.2733
     34 C         -24.6497    1.2992   27.5420 C.ar    1  UNL1        0.0502
     35 C         -27.4368    4.2061   31.5246 C.2     1  UNL1        0.2423
     36 CL        -22.0041    2.5682   25.7215 Cl      1  UNL1       -0.0719
     37 C         -23.1936    0.3953   28.8089 C.ar    1  UNL1       -0.0085
     38 N         -25.4108    0.8172   28.6680 N.ar    1  UNL1       -0.2838
     39 C         -27.6445    1.8440   30.1166 C.3     1  UNL1        0.1742
     40 C         -22.0084   -0.0675   29.6193 C.3     1  UNL1        0.0321
     41 C         -22.1196    1.7167   27.1415 C.3     1  UNL1        0.2627
     42 C         -26.8587    0.8025   29.0846 C.2     1  UNL1        0.2606
     43 C         -23.3131    1.2092   27.7456 C.ar    1  UNL1        0.0351
     44 C         -24.4608   -0.0008   29.2004 C.ar    1  UNL1        0.0446
@<TRIPOS>BOND
     1     1    44    1
     2     2     7    1
     3     2     1    1
     4     3     2    2
     5     4     3    1
     6     4     5    2
     7     5     6    1
     8     6     7    2
     9     8     1    1
    10     8     9    1
    11     8    12    1
    12     9    10    1
    13    10    11    1
    14    12    11    1
    15    13    34    1
    16    14    13    1
    17    14    15    1
    18    15    18    2
    19    16    17    1
    20    16    15    1
    21    19    14    2
    22    20    21    2
    23    20    19    1
    24    21    26    1
    25    22    21    1
    26    23    22    1
    27    24    23    1
    28    24    25    1
    29    26    27    1
    30    26    13    1
    31    29    42    2
    32    32    35    1
    33    34    43   ar
    34    34    38   ar
    35    35    28    1
    36    35    33    2
    37    37    44   ar
    38    37    40    1
    39    38    42   am
    40    38    44   ar
    41    39    31    1
    42    39    32    1
    43    41    36    1
    44    41    30    1
    45    41    43    1
    46    42    39    1
    47    43    37   ar
