@<TRIPOS>MOLECULE
outputs/IAG933/test6/raw/output_2020_IAG933_linker_design_.xyz
 43 46 0 0 0
SMALL
GASTEIGER

@<TRIPOS>ATOM
      1 C         -24.8550   -1.0120   30.1430 C.3     1  UNL1        0.0976
      2 C         -24.9730   -2.5050   29.7880 C.2     1  UNL1       -0.0064
      3 C         -23.9060   -3.1730   29.1460 C.2     1  UNL1       -0.0029
      4 C         -23.9890   -4.5490   28.8530 C.2     1  UNL1       -0.0003
      5 C         -25.1370   -5.2800   29.2050 C.2     1  UNL1       -0.0000
      6 C         -26.2320   -4.6110   29.7840 C.2     1  UNL1       -0.0003
      7 C         -26.1550   -3.2320   30.0650 C.2     1  UNL1       -0.0029
      8 C         -25.3870   -0.6790   31.5710 C.3     1  UNL1        0.0916
      9 C         -25.1890    0.7730   32.0280 C.3     1  UNL1        0.0206
     10 C         -25.3360    0.6840   33.5440 C.3     1  UNL1        0.0203
     11 C         -24.8290   -0.7150   33.9050 C.3     1  UNL1        0.0888
     12 N         -24.7580   -1.4810   32.6460 N.3     1  UNL1       -0.2178
     13 C         -25.6880    1.6140   26.4610 C.3     1  UNL1        0.1443
     14 C         -26.2500    2.9200   26.3950 C.2     1  UNL1        0.0710
     15 C         -25.6420    4.0930   27.1230 C.2     1  UNL1        0.2638
     16 N         -25.6140    5.2520   26.4490 N.am    1  UNL1       -0.2000
     17 C         -25.0260    6.4790   26.9630 C.3     1  UNL1        0.1388
     18 O         -25.1430    3.9660   28.2430 O.2     1  UNL1       -0.2686
     19 C         -27.4380    3.0910   25.6450 C.2     1  UNL1        0.1035
     20 N         -28.0750    2.0890   25.0030 N.2     1  UNL1       -0.2118
     21 C         -27.5430    0.8490   25.0790 C.2     1  UNL1        0.2356
     22 O         -28.1930   -0.2080   24.4770 O.2     1  UNL1       -0.4585
     23 C         -29.4600    0.0050   23.8660 C.3     1  UNL1        0.2423
     24 C         -30.0650   -1.3770   23.5730 C.3     1  UNL1        0.2292
     25 O         -30.7290   -1.8780   24.7210 O.3     1  UNL1       -0.2162
     26 C         -26.3540    0.5760   25.7770 C.3     1  UNL1        0.2560
     27 F         -25.8600   -0.6810   25.7950 F       1  UNL1       -0.2253
     28 C         -28.0496    3.2589   30.7045 C.3     1  UNL1        0.1741
     29 O         -27.5116    2.9573   29.4387 O.3     1  UNL1       -0.3510
     30 C         -20.9949    1.4841   27.5643 C.3     1  UNL1        0.0805
     31 C         -24.5659    0.6107   28.4045 C.3     1  UNL1        0.1989
     32 N         -25.0721    1.1175   27.4634 N.3     1  UNL1       -0.1899
     33 C         -27.8639   -0.5892   28.3245 C.3     1  UNL1        0.1582
     34 O         -29.1474   -0.2211   28.2237 O.3     1  UNL1       -0.3498
     35 O         -22.5078   -0.1013   29.3056 O.2     1  UNL1       -0.2853
     36 C         -28.2918    0.8747   30.1814 C.3     1  UNL1        0.0507
     37 C         -23.1478    0.6687   28.5091 C.2     1  UNL1        0.2385
     38 C         -28.5549    1.9659   29.1409 C.3     1  UNL1        0.1462
     39 C         -22.4463    1.4052   27.4857 C.2     1  UNL1        0.2106
     40 C         -27.1441    0.1280   29.4823 C.3     1  UNL1        0.0914
     41 C         -29.3240    1.1418   28.0416 C.3     1  UNL1        0.1716
     42 O         -22.9497    1.9398   26.4977 O.2     1  UNL1       -0.2882
     43 N         -25.4257   -0.0186   29.3145 N.3     1  UNL1       -0.2490
@<TRIPOS>BOND
     1     1    43    1
     2     2     7    1
     3     2     1    1
     4     3     2    2
     5     4     3    1
     6     4     5    2
     7     5     6    1
     8     6     7    2
     9     8     1    1
    10     8     9    1
    11     8    12    1
    12     9    10    1
    13    10    11    1
    14    12    11    1
    15    13    32    1
    16    14    13    1
    17    14    15    1
    18    15    18    2
    19    16    17    1
    20    16    15    1
    21    19    14    2
    22    20    21    2
    23    20    19    1
    24    21    26    1
    25    22    21    1
    26    23    22    1
    27    24    23    1
    28    24    25    1
    29    26    27    1
    30    26    13    1
    31    29    28    1
    32    31    32    1
    33    31    37    1
    34    31    43    1
    35    33    40    1
    36    34    33    1
    37    37    35    2
    38    38    29    1
    39    38    36    1
    40    39    30    1
    41    39    37    1
    42    40    43    1
    43    40    36    1
    44    41    34    1
    45    41    38    1
    46    42    39    2
