@<TRIPOS>MOLECULE
No_2021-gen_results/8p0m/2024-11-27-11-27-31/
 30 32 0 0 0
SMALL
GASTEIGER

@<TRIPOS>ATOM
      1 C         -28.0162   -0.8135   28.8779 C.ar    1  UNL1        0.0347
      2 C         -28.4690   -0.7850   29.8287 C.ar    1  UNL1        0.0558
      3 C         -26.5455   -0.8762   28.8500 C.ar    1  UNL1        0.1459
      4 C         -25.8041   -1.0324   30.0571 C.ar    1  UNL1        0.0532
      5 C         -27.9437   -0.9869   31.2075 C.ar    1  UNL1        0.0052
      6 C         -26.5825   -1.0386   31.2231 C.ar    1  UNL1        0.0086
      7 C         -30.0638   -0.7948   30.0639 C.2     1  UNL1        0.2491
      8 N         -30.7192   -1.6694   30.2722 N.am    1  UNL1       -0.2761
      9 C         -30.3051   -2.7367   30.7416 C.3     1  UNL1        0.0937
     10 C         -31.2409   -3.9446   30.7194 C.3     1  UNL1        0.0216
     11 C         -32.1011   -1.7439   29.9216 C.3     1  UNL1        0.0937
     12 C         -32.8778   -2.8138   29.8886 C.3     1  UNL1        0.0216
     13 C         -32.4422   -3.9300   30.3992 C.3     1  UNL1        0.0035
     14 O         -30.3597    0.4507   30.1938 O.2     1  UNL1       -0.2699
     15 S         -24.1115   -1.0891   30.0526 S.3     1  UNL1       -0.0984
     16 C         -23.6604    0.3769   29.9222 C.3     1  UNL1        0.1830
     17 C         -22.5638    0.6270   29.0722 C.2     1  UNL1        0.4009
     18 C         -24.2542    1.4530   30.6631 C.3     1  UNL1        0.1127
     19 N         -22.4920    1.8462   28.4931 N.pl3   1  UNL1       -0.0260
     20 N         -25.0438    1.3443   31.6626 N.3     1  UNL1       -0.2117
     21 C         -25.5662    2.4333   32.3743 C.3     1  UNL1        0.1150
     22 C         -26.3504    3.2691   31.8174 C.ar    1  UNL1       -0.0048
     23 C         -26.8698    3.4622   30.9418 C.ar    1  UNL1       -0.0029
     24 C         -27.6534    4.2254   30.4134 C.ar    1  UNL1       -0.0003
     25 C         -28.0040    5.3519   31.2297 C.ar    1  UNL1       -0.0000
     26 C         -27.4368    5.4552   32.4293 C.ar    1  UNL1       -0.0003
     27 C         -26.5740    4.4913   32.8765 C.ar    1  UNL1       -0.0029
     28 N         -21.5269   -0.1422   29.0572 N.2     1  UNL1        0.1928
     29 F         -25.8548   -0.8180   27.7030 F       1  UNL1       -0.2037
     30 C         -22.3662    1.8931   27.1006 C.3     1  UNL1        0.3059
@<TRIPOS>BOND
     1     2     7    1
     2     7     8   am
     3     8     9    1
     4     8    11    1
     5    10    13    1
     6    12    13    1
     7     7    14    2
     8     4    15    1
     9    15    16    1
    10    16    17    1
    11    16    18    1
    12    17    19    1
    13    18    20    1
    14    20    21    1
    15    21    22    1
    16    17    28    2
    17     3    29    1
    18    19    30    1
    19     9    10    1
    20    12    11    1
    21    22    23   ar
    22    23    24   ar
    23    24    25   ar
    24    25    26   ar
    25    26    27   ar
    26    27    22   ar
    27     1     2   ar
    28     2     5   ar
    29     5     6   ar
    30     6     4   ar
    31     4     3   ar
    32     3     1   ar
