@<TRIPOS>MOLECULE
No_2024-gen_results/8p0m/2024-11-27-11-27-31/
 23 25 0 0 0
SMALL
GASTEIGER

@<TRIPOS>ATOM
      1 C         -28.0162   -0.8135   28.8779 C.ar    1  UNL1       -0.0040
      2 C         -28.4690   -0.7850   29.8287 C.ar    1  UNL1       -0.0003
      3 C         -27.1356    0.2359   28.5352 C.ar    1  UNL1       -0.0184
      4 C         -26.8050    1.0509   29.2763 C.ar    1  UNL1       -0.0037
      5 C         -25.8146    2.2032   28.9592 C.ar    1  UNL1       -0.0003
      6 C         -28.2509    0.1046   30.9594 C.ar    1  UNL1       -0.0000
      7 C         -27.3176    1.1647   30.6285 C.ar    1  UNL1       -0.0003
      8 C         -25.2314    2.8324   29.6908 C.ar    1  UNL1       -0.0000
      9 C         -26.2012    2.9305   27.7563 C.ar    1  UNL1       -0.0000
     10 C         -25.3406    3.9940   27.2807 C.ar    1  UNL1       -0.0000
     11 C         -24.2990    3.9810   29.3996 C.ar    1  UNL1       -0.0000
     12 C         -24.4828    4.6432   28.1487 C.ar    1  UNL1       -0.0000
     13 C         -26.5280    0.1584   27.0960 C.3     1  UNL1        0.0446
     14 C         -27.3334    0.4467   25.9737 C.ar    1  UNL1       -0.0182
     15 C         -28.5786    0.9032   26.1313 C.ar    1  UNL1        0.0026
     16 C         -29.2696    1.0152   25.2847 C.ar    1  UNL1        0.0795
     17 C         -26.8927    0.1801   24.7211 C.ar    1  UNL1       -0.0040
     18 C         -27.6471    0.3865   23.6224 C.ar    1  UNL1       -0.0001
     19 C         -28.9145    0.8202   23.8914 C.ar    1  UNL1        0.0066
     20 C         -25.1715   -0.2843   27.0129 C.3     1  UNL1        0.0094
     21 C         -30.7788    1.5851   25.3742 C.2     1  UNL1        0.3877
     22 O         -31.2409    2.3106   25.9267 O.co2   1  UNL1       -0.2406
     23 O         -31.6179    0.7647   24.5990 O.co2   1  UNL1       -0.2406
@<TRIPOS>BOND
     1     4     5    1
     2     3    13    1
     3    13    14    1
     4    13    20    1
     5    16    21    1
     6    21    22   ar
     7    21    23   ar
     8     1     2   ar
     9     2     6   ar
    10     6     7   ar
    11     7     4   ar
    12     4     3   ar
    13     3     1   ar
    14     5     8   ar
    15     8    11   ar
    16    11    12   ar
    17    12    10   ar
    18    10     9   ar
    19     9     5   ar
    20    14    15   ar
    21    15    16   ar
    22    16    19   ar
    23    19    18   ar
    24    18    17   ar
    25    17    14   ar
