@<TRIPOS>MOLECULE
No_2025-gen_results/8p0m/2024-11-27-11-27-31/
 24 27 0 0 0
SMALL
GASTEIGER

@<TRIPOS>ATOM
      1 C         -28.0162   -0.8135   28.8779 C.ar    1  UNL1        0.0344
      2 C         -28.4690   -0.7850   29.8287 C.ar    1  UNL1        0.0587
      3 C         -26.5042   -0.7777   28.8766 C.ar    1  UNL1        0.1403
      4 C         -25.8103   -0.8531   30.1028 C.ar    1  UNL1        0.0296
      5 C         -27.9906   -0.8916   31.2257 C.ar    1  UNL1        0.0049
      6 C         -26.6042   -0.8676   31.2652 C.ar    1  UNL1        0.0025
      7 C         -30.0739   -0.8360   29.8615 C.2     1  UNL1        0.2647
      8 O         -30.6891   -1.6554   30.2229 O.2     1  UNL1       -0.2666
      9 N         -30.6022    0.4333   29.5984 N.ar    1  UNL1       -0.2731
     10 C         -31.6257    0.7206   29.2957 C.ar    1  UNL1        0.0669
     11 C         -32.6426    0.5426   29.1582 C.ar    1  UNL1        0.0176
     12 C         -33.7997    1.3116   28.7142 C.ar    1  UNL1        0.0015
     13 C         -33.4874    2.6368   28.4088 C.ar    1  UNL1        0.0001
     14 C         -32.2404    3.1126   28.4621 C.ar    1  UNL1        0.0015
     15 C         -31.2275    2.3657   28.8907 C.ar    1  UNL1        0.0177
     16 C         -29.5065    1.6239   29.4483 C.ar    1  UNL1        0.0829
     17 C         -29.8915    2.7899   29.1293 C.ar    1  UNL1        0.0190
     18 F         -25.7766   -0.7436   27.7734 F       1  UNL1       -0.2042
     19 C         -29.3105    4.0189   28.9430 C.ar    1  UNL1        0.0015
     20 C         -29.5857    5.0082   29.0238 C.ar    1  UNL1        0.0000
     21 C         -29.3214    6.1759   29.1099 C.ar    1  UNL1        0.0000
     22 C         -27.8512    6.3291   28.9742 C.ar    1  UNL1        0.0000
     23 C         -27.0801    5.1871   28.7716 C.ar    1  UNL1        0.0000
     24 C         -27.7360    3.8998   28.8836 C.ar    1  UNL1        0.0000
@<TRIPOS>BOND
     1     2     7    1
     2     7     8    2
     3     7     9   am
     4     9    10   ar
     5     9    16   ar
     6    15    17   ar
     7    16    17   ar
     8     3    18    1
     9    17    19    1
    10    19    20   ar
    11    20    21   ar
    12    21    22   ar
    13    22    23   ar
    14    23    24   ar
    15    24    19   ar
    16     1     2   ar
    17     2     5   ar
    18     5     6   ar
    19     6     4   ar
    20     4     3   ar
    21     3     1   ar
    22    10    11   ar
    23    11    12   ar
    24    12    13   ar
    25    13    14   ar
    26    14    15   ar
    27    15    10   ar
