@<TRIPOS>MOLECULE
No_2026-gen_results/8p0m/2024-11-27-11-27-31/
 16 17 0 0 0
SMALL
GASTEIGER

@<TRIPOS>ATOM
      1 C         -28.0162   -0.8135   28.8779 C.3     1  UNL1        0.0761
      2 C         -28.4690   -0.7850   29.8287 C.3     1  UNL1        0.1107
      3 C         -26.5455   -0.8762   28.8500 C.2     1  UNL1        0.1548
      4 C         -25.8041   -1.0324   30.0571 C.3     1  UNL1        0.0798
      5 C         -24.3697   -1.0998   30.0718 C.ar    1  UNL1       -0.0155
      6 C         -30.0317   -0.7740   29.8540 C.2     1  UNL1        0.3647
      7 C         -23.7170   -1.1964   31.2383 C.ar    1  UNL1       -0.0039
      8 C         -27.9062   -1.0098   31.1852 C.3     1  UNL1        0.0125
      9 C         -26.5093   -1.1200   31.2691 C.3     1  UNL1        0.0123
     10 O         -30.7351   -1.5500   30.3382 O.co2   1  UNL1       -0.2457
     11 O         -30.5342    0.2472   29.2189 O.co2   1  UNL1       -0.2457
     12 C         -23.5659   -1.1436   28.9040 C.ar    1  UNL1       -0.0039
     13 C         -22.1726   -1.0156   28.9863 C.ar    1  UNL1       -0.0003
     14 C         -22.2458   -1.0148   31.3730 C.ar    1  UNL1       -0.0003
     15 C         -21.5422   -0.9630   30.1717 C.ar    1  UNL1       -0.0000
     16 O         -25.9224   -0.5913   27.6789 O.2     1  UNL1       -0.2957
@<TRIPOS>BOND
     1     1     3    1
     2     3     4    1
     3     4     5    1
     4     2     6    1
     5     2     8    1
     6     4     9    1
     7     8     9    1
     8     6    10   ar
     9     6    11   ar
    10     3    16    2
    11     1     2    1
    12     5     7   ar
    13     7    14   ar
    14    14    15   ar
    15    15    13   ar
    16    13    12   ar
    17    12     5   ar
