@<TRIPOS>MOLECULE
outputs/IAG933/test6/raw/output_2029_IAG933_linker_design_.xyz
 43 46 0 0 0
SMALL
GASTEIGER

@<TRIPOS>ATOM
      1 C         -24.8550   -1.0120   30.1430 C.3     1  UNL1        0.1112
      2 C         -24.9730   -2.5050   29.7880 C.2     1  UNL1       -0.0030
      3 C         -23.9060   -3.1730   29.1460 C.2     1  UNL1       -0.0026
      4 C         -23.9890   -4.5490   28.8530 C.2     1  UNL1       -0.0003
      5 C         -25.1370   -5.2800   29.2050 C.2     1  UNL1       -0.0000
      6 C         -26.2320   -4.6110   29.7840 C.2     1  UNL1       -0.0003
      7 C         -26.1550   -3.2320   30.0650 C.2     1  UNL1       -0.0026
      8 C         -25.3870   -0.6790   31.5710 C.3     1  UNL1        0.0950
      9 C         -25.1890    0.7730   32.0280 C.3     1  UNL1        0.0209
     10 C         -25.3360    0.6840   33.5440 C.3     1  UNL1        0.0203
     11 C         -24.8290   -0.7150   33.9050 C.3     1  UNL1        0.0888
     12 N         -24.7580   -1.4810   32.6460 N.3     1  UNL1       -0.2174
     13 C         -25.6880    1.6140   26.4610 C.2     1  UNL1        0.0375
     14 C         -26.2500    2.9200   26.3950 C.2     1  UNL1        0.0763
     15 C         -25.6420    4.0930   27.1230 C.2     1  UNL1        0.2664
     16 N         -25.6140    5.2520   26.4490 N.am    1  UNL1       -0.1997
     17 C         -25.0260    6.4790   26.9630 C.3     1  UNL1        0.1388
     18 O         -25.1430    3.9660   28.2430 O.2     1  UNL1       -0.2683
     19 C         -27.4380    3.0910   25.6450 C.2     1  UNL1        0.1067
     20 N         -28.0750    2.0890   25.0030 N.2     1  UNL1       -0.2081
     21 C         -27.5430    0.8490   25.0790 C.2     1  UNL1        0.2533
     22 O         -28.1930   -0.2080   24.4770 O.2     1  UNL1       -0.4558
     23 C         -29.4600    0.0050   23.8660 C.3     1  UNL1        0.2426
     24 C         -30.0650   -1.3770   23.5730 C.3     1  UNL1        0.2292
     25 O         -30.7290   -1.8780   24.7210 O.3     1  UNL1       -0.2162
     26 C         -26.3540    0.5760   25.7770 C.2     1  UNL1        0.1929
     27 F         -25.8600   -0.6810   25.7950 F       1  UNL1       -0.1992
     28 C         -24.4524    1.2869   27.1084 C.2     1  UNL1        0.0239
     29 C         -27.5703   -0.2061   29.1952 C.3     1  UNL1        0.0569
     30 C         -29.2972    0.8468   30.6326 C.3     1  UNL1        0.1778
     31 C         -23.2149    1.7853   26.7843 C.3     1  UNL1        0.1727
     32 O         -28.6296    2.0057   32.7950 O.3     1  UNL1       -0.1841
     33 O         -22.2439    1.4436   27.8229 O.3     1  UNL1       -0.3213
     34 C         -24.3070    0.4431   28.1135 C.2     1  UNL1        0.0804
     35 C         -29.0944   -0.0792   29.3725 C.3     1  UNL1        0.1832
     36 O         -29.6831   -0.3424   27.9958 O.3     1  UNL1       -0.2204
     37 C         -29.1287    0.7779   33.1815 C.3     1  UNL1        0.3290
     38 O         -29.2406    0.0805   31.8757 O.3     1  UNL1       -0.3220
     39 C         -26.7809   -0.2794   28.3880 C.3     1  UNL1        0.0936
     40 C         -22.8347    0.5184   28.2974 C.3     1  UNL1        0.2739
     41 C         -20.9344   -0.2845   28.7735 C.3     1  UNL1        0.1772
     42 N         -25.2795   -0.2015   29.0069 N.pl3   1  UNL1       -0.3036
     43 O         -22.1567   -0.5201   28.7204 O.3     1  UNL1       -0.3235
@<TRIPOS>BOND
     1     1    42    1
     2     2     7    1
     3     2     1    1
     4     3     2    2
     5     4     3    1
     6     4     5    2
     7     5     6    1
     8     6     7    2
     9     8     1    1
    10     8     9    1
    11     8    12    1
    12     9    10    1
    13    10    11    1
    14    12    11    1
    15    13    28    1
    16    14    13    1
    17    14    15    1
    18    15    18    2
    19    16    17    1
    20    16    15    1
    21    19    14    2
    22    20    21    2
    23    20    19    1
    24    21    26    1
    25    22    21    1
    26    23    22    1
    27    24    23    1
    28    24    25    1
    29    26    27    1
    30    26    13    2
    31    28    34    2
    32    29    35    1
    33    30    38    1
    34    31    28    1
    35    31    33    1
    36    32    37    1
    37    33    40    1
    38    34    40    1
    39    34    42    1
    40    35    36    1
    41    35    30    1
    42    38    37    1
    43    39    42    1
    44    39    29    1
    45    40    43    1
    46    43    41    1
