@<TRIPOS>MOLECULE
outputs/IAG933/test6/raw/output_2032_IAG933_linker_design_.xyz
 44 48 0 0 0
SMALL
GASTEIGER

@<TRIPOS>ATOM
      1 C         -24.8550   -1.0120   30.1430 C.3     1  UNL1        0.0622
      2 C         -24.9730   -2.5050   29.7880 C.2     1  UNL1       -0.0192
      3 C         -23.9060   -3.1730   29.1460 C.2     1  UNL1       -0.0042
      4 C         -23.9890   -4.5490   28.8530 C.2     1  UNL1       -0.0003
      5 C         -25.1370   -5.2800   29.2050 C.2     1  UNL1       -0.0000
      6 C         -26.2320   -4.6110   29.7840 C.2     1  UNL1       -0.0003
      7 C         -26.1550   -3.2320   30.0650 C.2     1  UNL1       -0.0042
      8 C         -25.3870   -0.6790   31.5710 C.3     1  UNL1        0.0788
      9 C         -25.1890    0.7730   32.0280 C.3     1  UNL1        0.0193
     10 C         -25.3360    0.6840   33.5440 C.3     1  UNL1        0.0202
     11 C         -24.8290   -0.7150   33.9050 C.3     1  UNL1        0.0887
     12 N         -24.7580   -1.4810   32.6460 N.3     1  UNL1       -0.2191
     13 C         -25.6880    1.6140   26.4610 C.2     1  UNL1        0.0407
     14 C         -26.2500    2.9200   26.3950 C.2     1  UNL1        0.0766
     15 C         -25.6420    4.0930   27.1230 C.2     1  UNL1        0.2664
     16 N         -25.6140    5.2520   26.4490 N.am    1  UNL1       -0.1997
     17 C         -25.0260    6.4790   26.9630 C.3     1  UNL1        0.1388
     18 O         -25.1430    3.9660   28.2430 O.2     1  UNL1       -0.2683
     19 C         -27.4380    3.0910   25.6450 C.2     1  UNL1        0.1067
     20 N         -28.0750    2.0890   25.0030 N.2     1  UNL1       -0.2081
     21 C         -27.5430    0.8490   25.0790 C.2     1  UNL1        0.2533
     22 O         -28.1930   -0.2080   24.4770 O.2     1  UNL1       -0.4558
     23 C         -29.4600    0.0050   23.8660 C.3     1  UNL1        0.2426
     24 C         -30.0650   -1.3770   23.5730 C.3     1  UNL1        0.2292
     25 O         -30.7290   -1.8780   24.7210 O.3     1  UNL1       -0.2162
     26 C         -26.3540    0.5760   25.7770 C.2     1  UNL1        0.1931
     27 F         -25.8600   -0.6810   25.7950 F       1  UNL1       -0.1992
     28 O         -22.8022    2.1857   25.3414 O.2     1  UNL1       -0.2938
     29 O         -28.2810    2.7755   28.9516 O.3     1  UNL1       -0.2204
     30 C         -27.5754   -0.1686   29.1031 C.2     1  UNL1        0.2416
     31 N         -26.5263    0.6546   29.0483 N.am    1  UNL1       -0.2026
     32 C         -28.5772   -0.2025   28.0069 C.3     1  UNL1        0.0869
     33 C         -24.2026    0.5281   28.2676 C.2     1  UNL1       -0.0134
     34 C         -29.8017    0.6086   28.4080 C.3     1  UNL1        0.0123
     35 C         -29.6203    1.0613   29.7349 C.3     1  UNL1        0.0361
     36 C         -23.2138    1.6420   26.5151 C.2     1  UNL1        0.2199
     37 C         -24.4071    1.3025   27.0810 C.2     1  UNL1        0.0375
     38 C         -22.2659    1.1515   27.4296 C.2     1  UNL1        0.2058
     39 O         -21.0270    1.5685   26.7989 O.2     1  UNL1       -0.2976
     40 C         -25.3367    0.0529   29.1375 C.3     1  UNL1        0.1194
     41 C         -28.6153    2.0319   30.1488 C.3     1  UNL1        0.1821
     42 O         -27.7358   -1.0305   29.9859 O.2     1  UNL1       -0.2733
     43 C         -22.8268    0.4456   28.4853 C.3     1  UNL1        0.0952
     44 O         -21.4444    2.1012   25.4614 O.3     1  UNL1        0.0424
@<TRIPOS>BOND
     1     1    40    1
     2     2     7    1
     3     2     1    1
     4     3     2    2
     5     4     3    1
     6     4     5    2
     7     5     6    1
     8     6     7    2
     9     8     1    1
    10     8     9    1
    11     8    12    1
    12     9    10    1
    13    10    11    1
    14    12    11    1
    15    13    37    1
    16    14    13    1
    17    14    15    1
    18    15    18    2
    19    16    17    1
    20    16    15    1
    21    19    14    2
    22    20    21    2
    23    20    19    1
    24    21    26    1
    25    22    21    1
    26    23    22    1
    27    24    23    1
    28    24    25    1
    29    26    27    1
    30    26    13    2
    31    28    44    1
    32    28    36    1
    33    29    41    1
    34    30    42    2
    35    31    30    1
    36    32    34    1
    37    32    30    1
    38    33    43    1
    39    33    40    1
    40    34    35    1
    41    35    41    1
    42    36    37    1
    43    36    38    2
    44    37    33    2
    45    38    43    1
    46    39    38    1
    47    40    31    1
    48    44    39    1
