@<TRIPOS>MOLECULE
outputs/IAG933/test6/raw/output_2033_IAG933_linker_design_.xyz
 44 48 0 0 0
SMALL
GASTEIGER

@<TRIPOS>ATOM
      1 C         -24.8550   -1.0120   30.1430 C.3     1  UNL1        0.0585
      2 C         -24.9730   -2.5050   29.7880 C.2     1  UNL1       -0.0195
      3 C         -23.9060   -3.1730   29.1460 C.2     1  UNL1       -0.0042
      4 C         -23.9890   -4.5490   28.8530 C.2     1  UNL1       -0.0003
      5 C         -25.1370   -5.2800   29.2050 C.2     1  UNL1       -0.0000
      6 C         -26.2320   -4.6110   29.7840 C.2     1  UNL1       -0.0003
      7 C         -26.1550   -3.2320   30.0650 C.2     1  UNL1       -0.0042
      8 C         -25.3870   -0.6790   31.5710 C.3     1  UNL1        0.0785
      9 C         -25.1890    0.7730   32.0280 C.3     1  UNL1        0.0192
     10 C         -25.3360    0.6840   33.5440 C.3     1  UNL1        0.0202
     11 C         -24.8290   -0.7150   33.9050 C.3     1  UNL1        0.0887
     12 N         -24.7580   -1.4810   32.6460 N.3     1  UNL1       -0.2191
     13 C         -25.6880    1.6140   26.4610 C.2     1  UNL1        0.0400
     14 C         -26.2500    2.9200   26.3950 C.2     1  UNL1        0.0764
     15 C         -25.6420    4.0930   27.1230 C.2     1  UNL1        0.2664
     16 N         -25.6140    5.2520   26.4490 N.am    1  UNL1       -0.1997
     17 C         -25.0260    6.4790   26.9630 C.3     1  UNL1        0.1388
     18 O         -25.1430    3.9660   28.2430 O.2     1  UNL1       -0.2683
     19 C         -27.4380    3.0910   25.6450 C.2     1  UNL1        0.1067
     20 N         -28.0750    2.0890   25.0030 N.2     1  UNL1       -0.2081
     21 C         -27.5430    0.8490   25.0790 C.2     1  UNL1        0.2533
     22 O         -28.1930   -0.2080   24.4770 O.2     1  UNL1       -0.4558
     23 C         -29.4600    0.0050   23.8660 C.3     1  UNL1        0.2426
     24 C         -30.0650   -1.3770   23.5730 C.3     1  UNL1        0.2292
     25 O         -30.7290   -1.8780   24.7210 O.3     1  UNL1       -0.2162
     26 C         -26.3540    0.5760   25.7770 C.2     1  UNL1        0.1929
     27 F         -25.8600   -0.6810   25.7950 F       1  UNL1       -0.1992
     28 C         -29.8281    3.0125   31.5859 C.3     1  UNL1        0.0001
     29 C         -25.2800   -0.1082   28.9332 C.3     1  UNL1        0.1003
     30 C         -23.2422    1.7012   26.1886 C.3     1  UNL1        0.3511
     31 O         -22.0212    1.6069   26.6658 O.2     1  UNL1       -0.4429
     32 C         -29.7439    1.0486   29.9940 C.3     1  UNL1        0.0319
     33 C         -30.8961    1.9963   29.6161 C.3     1  UNL1        0.0026
     34 C         -24.4024    1.3636   26.9435 C.2     1  UNL1        0.0520
     35 C         -22.8203    0.5649   28.6684 C.2     1  UNL1        0.0371
     36 C         -31.2235    2.7041   30.9611 C.3     1  UNL1        0.0001
     37 N         -26.6686    0.4384   29.2145 N.3     1  UNL1       -0.2120
     38 C         -24.2529    0.6836   28.0737 C.2     1  UNL1       -0.0008
     39 F         -23.2558    2.2220   24.9393 F       1  UNL1       -0.1833
     40 O         -29.6733   -0.9501   28.6235 O.3     1  UNL1       -0.2216
     41 C         -28.8855    1.9846   30.8603 C.3     1  UNL1        0.0026
     42 C         -27.8853   -0.3522   28.8730 C.3     1  UNL1        0.1218
     43 C         -29.1839    0.3378   28.7131 C.3     1  UNL1        0.1692
     44 C         -21.7845    1.1200   27.9046 C.2     1  UNL1        0.1754
@<TRIPOS>BOND
     1     1    29    1
     2     2     7    1
     3     2     1    1
     4     3     2    2
     5     4     3    1
     6     4     5    2
     7     5     6    1
     8     6     7    2
     9     8     1    1
    10     8     9    1
    11     8    12    1
    12     9    10    1
    13    10    11    1
    14    12    11    1
    15    13    34    1
    16    14    13    1
    17    14    15    1
    18    15    18    2
    19    16    17    1
    20    16    15    1
    21    19    14    2
    22    20    21    2
    23    20    19    1
    24    21    26    1
    25    22    21    1
    26    23    22    1
    27    24    23    1
    28    24    25    1
    29    26    27    1
    30    26    13    2
    31    29    37    1
    32    30    39    1
    33    30    31    1
    34    30    34    1
    35    31    44    1
    36    32    41    1
    37    33    32    1
    38    33    36    1
    39    34    38    2
    40    36    28    1
    41    38    35    1
    42    38    29    1
    43    41    28    1
    44    42    37    1
    45    43    40    1
    46    43    42    1
    47    43    32    1
    48    44    35    2
