@<TRIPOS>MOLECULE
outputs/IAG933/test6/raw/output_2034_IAG933_linker_design_.xyz
 47 51 0 0 0
SMALL
GASTEIGER

@<TRIPOS>ATOM
      1 C         -24.8550   -1.0120   30.1430 C.3     1  UNL1        0.0602
      2 C         -24.9730   -2.5050   29.7880 C.2     1  UNL1       -0.0171
      3 C         -23.9060   -3.1730   29.1460 C.2     1  UNL1       -0.0039
      4 C         -23.9890   -4.5490   28.8530 C.2     1  UNL1       -0.0003
      5 C         -25.1370   -5.2800   29.2050 C.2     1  UNL1       -0.0000
      6 C         -26.2320   -4.6110   29.7840 C.2     1  UNL1       -0.0003
      7 C         -26.1550   -3.2320   30.0650 C.2     1  UNL1       -0.0039
      8 C         -25.3870   -0.6790   31.5710 C.3     1  UNL1        0.0808
      9 C         -25.1890    0.7730   32.0280 C.3     1  UNL1        0.0195
     10 C         -25.3360    0.6840   33.5440 C.3     1  UNL1        0.0203
     11 C         -24.8290   -0.7150   33.9050 C.3     1  UNL1        0.0887
     12 N         -24.7580   -1.4810   32.6460 N.3     1  UNL1       -0.2188
     13 C         -25.6880    1.6140   26.4610 C.2     1  UNL1        0.0407
     14 C         -26.2500    2.9200   26.3950 C.2     1  UNL1        0.0744
     15 C         -25.6420    4.0930   27.1230 C.2     1  UNL1        0.2218
     16 N         -25.6140    5.2520   26.4490 N.2     1  UNL1       -0.2357
     17 C         -25.0260    6.4790   26.9630 C.3     1  UNL1        0.1550
     18 O         -25.1430    3.9660   28.2430 O.2     1  UNL1       -0.4638
     19 C         -27.4380    3.0910   25.6450 C.2     1  UNL1        0.1068
     20 N         -28.0750    2.0890   25.0030 N.2     1  UNL1       -0.2081
     21 C         -27.5430    0.8490   25.0790 C.2     1  UNL1        0.2533
     22 O         -28.1930   -0.2080   24.4770 O.2     1  UNL1       -0.4558
     23 C         -29.4600    0.0050   23.8660 C.3     1  UNL1        0.2426
     24 C         -30.0650   -1.3770   23.5730 C.3     1  UNL1        0.2292
     25 O         -30.7290   -1.8780   24.7210 O.3     1  UNL1       -0.2162
     26 C         -26.3540    0.5760   25.7770 C.2     1  UNL1        0.1931
     27 F         -25.8600   -0.6810   25.7950 F       1  UNL1       -0.1992
     28 O         -28.4899    7.3791   33.7471 O.3     1  UNL1       -0.1658
     29 C         -25.4368    4.1770   31.8157 C.3     1  UNL1        0.1293
     30 C         -22.6614    1.4290   27.9278 C.3     1  UNL1        0.3085
     31 C         -25.1086    3.1708   29.3373 C.3     1  UNL1        0.1736
     32 C         -22.3821   -0.7070   29.7147 C.2     1  UNL1        0.0358
     33 C         -21.3768   -0.1976   28.8604 C.2     1  UNL1        0.1751
     34 S         -27.5018    7.6170   32.6788 S.3     1  UNL1       -0.0386
     35 C         -23.6709   -0.2007   29.6201 C.2     1  UNL1       -0.0159
     36 C         -23.7280    1.1180   28.9748 C.2     1  UNL1        0.0251
     37 C         -27.1601    5.9586   31.9976 C.2     1  UNL1        0.0872
     38 O         -22.8557    2.3420   26.9181 O.3     1  UNL1       -0.3147
     39 C         -25.8210    4.2815   30.3089 C.3     1  UNL1        0.0652
     40 C         -28.1442    8.4509   31.2821 C.3     1  UNL1        0.0857
     41 C         -27.3010    4.5328   29.9038 C.3     1  UNL1        0.0125
     42 C         -21.8211    2.2563   25.8708 C.3     1  UNL1        0.1783
     43 O         -21.5000    0.7627   27.9462 O.2     1  UNL1       -0.4463
     44 N         -26.0613    5.3915   32.4763 N.2     1  UNL1       -0.2679
     45 C         -26.2770    8.4947   33.4451 C.3     1  UNL1        0.0857
     46 C         -24.6020    1.9551   29.3757 C.3     1  UNL1        0.0714
     47 C         -27.8953    5.2081   31.0603 C.3     1  UNL1        0.0526
@<TRIPOS>BOND
     1     1    35    1
     2     2     7    1
     3     2     1    1
     4     3     2    2
     5     4     3    1
     6     4     5    2
     7     5     6    1
     8     6     7    2
     9     8     1    1
    10     8     9    1
    11     8    12    1
    12     9    10    1
    13    10    11    1
    14    12    11    1
    15    14    13    1
    16    14    15    1
    17    15    18    1
    18    16    17    1
    19    16    15    2
    20    18    31    1
    21    19    14    2
    22    20    21    2
    23    20    19    1
    24    21    26    1
    25    22    21    1
    26    23    22    1
    27    24    23    1
    28    24    25    1
    29    26    27    1
    30    26    13    2
    31    29    44    1
    32    30    38    1
    33    30    43    1
    34    30    36    1
    35    31    46    1
    36    33    32    2
    37    34    45    1
    38    34    28    1
    39    35    32    1
    40    36    46    1
    41    36    35    2
    42    37    44    2
    43    37    34    1
    44    39    31    1
    45    39    29    1
    46    40    34    1
    47    41    39    1
    48    41    47    1
    49    42    38    1
    50    43    33    1
    51    47    37    1
