@<TRIPOS>MOLECULE
outputs/IAG933/test6/raw/output_2036_IAG933_linker_design_.xyz
 48 52 0 0 0
SMALL
GASTEIGER

@<TRIPOS>ATOM
      1 C         -24.8550   -1.0120   30.1430 C.3     1  UNL1        0.0583
      2 C         -24.9730   -2.5050   29.7880 C.2     1  UNL1       -0.0195
      3 C         -23.9060   -3.1730   29.1460 C.2     1  UNL1       -0.0042
      4 C         -23.9890   -4.5490   28.8530 C.2     1  UNL1       -0.0003
      5 C         -25.1370   -5.2800   29.2050 C.2     1  UNL1       -0.0000
      6 C         -26.2320   -4.6110   29.7840 C.2     1  UNL1       -0.0003
      7 C         -26.1550   -3.2320   30.0650 C.2     1  UNL1       -0.0042
      8 C         -25.3870   -0.6790   31.5710 C.3     1  UNL1        0.0785
      9 C         -25.1890    0.7730   32.0280 C.3     1  UNL1        0.0192
     10 C         -25.3360    0.6840   33.5440 C.3     1  UNL1        0.0202
     11 C         -24.8290   -0.7150   33.9050 C.3     1  UNL1        0.0887
     12 N         -24.7580   -1.4810   32.6460 N.3     1  UNL1       -0.2191
     13 C         -25.6880    1.6140   26.4610 C.2     1  UNL1        0.0156
     14 C         -26.2500    2.9200   26.3950 C.2     1  UNL1        0.0726
     15 C         -25.6420    4.0930   27.1230 C.2     1  UNL1        0.2661
     16 N         -25.6140    5.2520   26.4490 N.am    1  UNL1       -0.1997
     17 C         -25.0260    6.4790   26.9630 C.3     1  UNL1        0.1388
     18 O         -25.1430    3.9660   28.2430 O.2     1  UNL1       -0.2683
     19 C         -27.4380    3.0910   25.6450 C.2     1  UNL1        0.1064
     20 N         -28.0750    2.0890   25.0030 N.2     1  UNL1       -0.2081
     21 C         -27.5430    0.8490   25.0790 C.2     1  UNL1        0.2530
     22 O         -28.1930   -0.2080   24.4770 O.2     1  UNL1       -0.4558
     23 C         -29.4600    0.0050   23.8660 C.3     1  UNL1        0.2426
     24 C         -30.0650   -1.3770   23.5730 C.3     1  UNL1        0.2292
     25 O         -30.7290   -1.8780   24.7210 O.3     1  UNL1       -0.2162
     26 C         -26.3540    0.5760   25.7770 C.2     1  UNL1        0.1891
     27 F         -25.8600   -0.6810   25.7950 F       1  UNL1       -0.1996
     28 C         -30.0637   -0.2721   29.1221 C.3     1  UNL1        0.0905
     29 C         -31.0158   -1.4023   29.1712 C.3     1  UNL1        0.2018
     30 C         -24.4224    1.4627   26.9243 C.3     1  UNL1        0.0265
     31 N         -32.4724   -1.2836   29.5075 N.am    1  UNL1       -0.1793
     32 C         -24.0472    0.4646   28.0575 C.3     1  UNL1        0.0245
     33 C         -27.5473    0.4656   28.8059 C.2     1  UNL1        0.2416
     34 C         -25.1679    0.1229   29.0597 C.3     1  UNL1        0.1009
     35 O         -32.7440    1.0051   29.3940 O.2     1  UNL1       -0.2733
     36 C         -34.3676   -0.2084   30.6529 C.3     1  UNL1        0.0965
     37 C         -28.7789   -0.0473   28.1082 C.3     1  UNL1        0.0937
     38 O         -31.0713   -1.3002   26.8907 O.3     1  UNL1       -0.2186
     39 C         -31.0054   -0.4495   27.9700 C.3     1  UNL1        0.2003
     40 C         -29.7237   -3.3162   29.8289 C.3     1  UNL1        0.1761
     41 O         -27.5206    1.4488   29.5466 O.2     1  UNL1       -0.2733
     42 C         -21.7198    1.2978   27.6928 C.3     1  UNL1        0.0001
     43 C         -33.1044   -0.1251   29.8225 C.2     1  UNL1        0.2439
     44 O         -30.4577   -2.2066   30.3579 O.3     1  UNL1       -0.3349
     45 C         -22.2090    2.2068   26.5617 C.3     1  UNL1        0.0003
     46 C         -23.3616    1.6596   25.7789 C.3     1  UNL1        0.0045
     47 C         -22.7942    1.0962   28.7479 C.3     1  UNL1        0.0020
     48 N         -26.4750   -0.2092   28.4912 N.am    1  UNL1       -0.2068
@<TRIPOS>BOND
     1     1    34    1
     2     2     7    1
     3     2     1    1
     4     3     2    2
     5     4     3    1
     6     4     5    2
     7     5     6    1
     8     6     7    2
     9     8     1    1
    10     8     9    1
    11     8    12    1
    12     9    10    1
    13    10    11    1
    14    12    11    1
    15    14    13    1
    16    14    15    1
    17    15    18    2
    18    16    17    1
    19    16    15    1
    20    19    14    2
    21    20    21    2
    22    20    19    1
    23    21    26    1
    24    22    21    1
    25    23    22    1
    26    24    23    1
    27    24    25    1
    28    26    27    1
    29    26    13    2
    30    28    37    1
    31    28    29    1
    32    29    31    1
    33    29    44    1
    34    30    13    1
    35    30    32    1
    36    31    43    1
    37    32    47    1
    38    32    34    1
    39    33    41    2
    40    34    48    1
    41    35    43    2
    42    37    33    1
    43    39    38    1
    44    39    28    1
    45    39    29    1
    46    40    44    1
    47    42    47    1
    48    43    36    1
    49    45    42    1
    50    46    45    1
    51    46    30    1
    52    48    33    1
