@<TRIPOS>MOLECULE
outputs/IAG933/test6/raw/output_2037_IAG933_linker_design_.xyz
 44 48 0 0 0
SMALL
GASTEIGER

@<TRIPOS>ATOM
      1 C         -24.8550   -1.0120   30.1430 C.3     1  UNL1        0.0480
      2 C         -24.9730   -2.5050   29.7880 C.2     1  UNL1       -0.0205
      3 C         -23.9060   -3.1730   29.1460 C.2     1  UNL1       -0.0042
      4 C         -23.9890   -4.5490   28.8530 C.2     1  UNL1       -0.0003
      5 C         -25.1370   -5.2800   29.2050 C.2     1  UNL1       -0.0000
      6 C         -26.2320   -4.6110   29.7840 C.2     1  UNL1       -0.0003
      7 C         -26.1550   -3.2320   30.0650 C.2     1  UNL1       -0.0042
      8 C         -25.3870   -0.6790   31.5710 C.3     1  UNL1        0.0996
      9 C         -25.1890    0.7730   32.0280 C.2     1  UNL1        0.0241
     10 C         -25.3360    0.6840   33.5440 C.3     1  UNL1        0.0467
     11 C         -24.8290   -0.7150   33.9050 C.3     1  UNL1        0.0936
     12 N         -24.7580   -1.4810   32.6460 N.3     1  UNL1       -0.2145
     13 C         -25.6880    1.6140   26.4610 C.2     1  UNL1        0.0393
     14 C         -26.2500    2.9200   26.3950 C.2     1  UNL1        0.0766
     15 C         -25.6420    4.0930   27.1230 C.2     1  UNL1        0.2664
     16 N         -25.6140    5.2520   26.4490 N.am    1  UNL1       -0.1997
     17 C         -25.0260    6.4790   26.9630 C.3     1  UNL1        0.1388
     18 O         -25.1430    3.9660   28.2430 O.2     1  UNL1       -0.2683
     19 C         -27.4380    3.0910   25.6450 C.2     1  UNL1        0.1067
     20 N         -28.0750    2.0890   25.0030 N.2     1  UNL1       -0.2081
     21 C         -27.5430    0.8490   25.0790 C.2     1  UNL1        0.2533
     22 O         -28.1930   -0.2080   24.4770 O.2     1  UNL1       -0.4558
     23 C         -29.4600    0.0050   23.8660 C.3     1  UNL1        0.2426
     24 C         -30.0650   -1.3770   23.5730 C.3     1  UNL1        0.2292
     25 O         -30.7290   -1.8780   24.7210 O.3     1  UNL1       -0.2162
     26 C         -26.3540    0.5760   25.7770 C.2     1  UNL1        0.1931
     27 F         -25.8600   -0.6810   25.7950 F       1  UNL1       -0.1992
     28 C         -26.2154    6.3962   31.1767 C.2     1  UNL1        0.0192
     29 O         -24.6427    3.1188   32.0703 O.2     1  UNL1       -0.4387
     30 C         -25.4979    4.1958   32.2904 C.2     1  UNL1        0.1483
     31 C         -25.8754    5.0736   31.2251 C.2     1  UNL1        0.0389
     32 C         -26.3527    7.2559   32.2562 C.2     1  UNL1        0.0656
     33 N         -24.4204    1.7521   30.0843 N.pl3   1  UNL1       -0.1795
     34 C         -22.5531    1.0845   28.6035 C.2     1  UNL1        0.0166
     35 C         -23.8810    1.3788   28.4788 C.2     1  UNL1        0.0736
     36 C         -25.7181    4.5795   33.6255 C.2     1  UNL1        0.0536
     37 C         -21.9419    2.0031   26.1899 C.2     1  UNL1        0.0001
     38 C         -25.9044    5.8055   34.2159 C.2     1  UNL1        0.0686
     39 C         -24.3375    1.3841   26.9273 C.2     1  UNL1        0.0179
     40 C         -24.7973    2.1469   31.4124 C.2     1  UNL1        0.2123
     41 C         -26.3782    8.1940   34.5196 C.3     1  UNL1        0.1173
     42 C         -21.4534    1.7241   27.5685 C.2     1  UNL1        0.0013
     43 C         -23.4079    1.8009   25.8211 C.2     1  UNL1        0.0014
     44 N         -26.3051    6.9694   33.7144 N.pl3   1  UNL1       -0.2831
@<TRIPOS>BOND
     1     2     7    1
     2     2     1    1
     3     3     2    2
     4     4     3    1
     5     4     5    2
     6     5     6    1
     7     6     7    2
     8     8     1    1
     9     8     9    1
    10     8    12    1
    11     9    10    1
    12    10    11    1
    13    12    11    1
    14    13    39    1
    15    14    13    1
    16    14    15    1
    17    15    18    2
    18    16    17    1
    19    16    15    1
    20    19    14    2
    21    20    21    2
    22    20    19    1
    23    21    26    1
    24    22    21    1
    25    23    22    1
    26    24    23    1
    27    24    25    1
    28    26    27    1
    29    26    13    2
    30    28    31    1
    31    28    32    2
    32    29    30    1
    33    30    36    1
    34    31    30    2
    35    32    44    1
    36    33    40    1
    37    35    34    1
    38    35    33    1
    39    36    38    2
    40    37    42    1
    41    39    35    2
    42    40     9    2
    43    40    29    1
    44    42    34    2
    45    43    37    2
    46    43    39    1
    47    44    38    1
    48    44    41    1
