@<TRIPOS>MOLECULE
outputs/IAG933/test6/raw/output_2040_IAG933_linker_design_.xyz
 44 49 0 0 0
SMALL
GASTEIGER

@<TRIPOS>ATOM
      1 C         -24.8550   -1.0120   30.1430 C.3     1  UNL1        0.0584
      2 C         -24.9730   -2.5050   29.7880 C.2     1  UNL1       -0.0195
      3 C         -23.9060   -3.1730   29.1460 C.2     1  UNL1       -0.0042
      4 C         -23.9890   -4.5490   28.8530 C.2     1  UNL1       -0.0003
      5 C         -25.1370   -5.2800   29.2050 C.2     1  UNL1       -0.0000
      6 C         -26.2320   -4.6110   29.7840 C.2     1  UNL1       -0.0003
      7 C         -26.1550   -3.2320   30.0650 C.2     1  UNL1       -0.0042
      8 C         -25.3870   -0.6790   31.5710 C.3     1  UNL1        0.0785
      9 C         -25.1890    0.7730   32.0280 C.3     1  UNL1        0.0192
     10 C         -25.3360    0.6840   33.5440 C.3     1  UNL1        0.0202
     11 C         -24.8290   -0.7150   33.9050 C.3     1  UNL1        0.0887
     12 N         -24.7580   -1.4810   32.6460 N.3     1  UNL1       -0.2191
     13 C         -25.6880    1.6140   26.4610 C.2     1  UNL1        0.0424
     14 C         -26.2500    2.9200   26.3950 C.2     1  UNL1        0.0746
     15 C         -25.6420    4.0930   27.1230 C.2     1  UNL1        0.2662
     16 N         -25.6140    5.2520   26.4490 N.am    1  UNL1       -0.1997
     17 C         -25.0260    6.4790   26.9630 C.3     1  UNL1        0.1388
     18 O         -25.1430    3.9660   28.2430 O.2     1  UNL1       -0.2683
     19 C         -27.4380    3.0910   25.6450 C.2     1  UNL1        0.1065
     20 N         -28.0750    2.0890   25.0030 N.2     1  UNL1       -0.2081
     21 C         -27.5430    0.8490   25.0790 C.2     1  UNL1        0.2530
     22 O         -28.1930   -0.2080   24.4770 O.2     1  UNL1       -0.4558
     23 C         -29.4600    0.0050   23.8660 C.3     1  UNL1        0.2426
     24 C         -30.0650   -1.3770   23.5730 C.3     1  UNL1        0.2292
     25 O         -30.7290   -1.8780   24.7210 O.3     1  UNL1       -0.2162
     26 C         -26.3540    0.5760   25.7770 C.2     1  UNL1        0.1911
     27 F         -25.8600   -0.6810   25.7950 F       1  UNL1       -0.1995
     28 C         -22.4841    2.2880   25.2491 C.3     1  UNL1        0.4030
     29 N         -25.8416    1.8315   29.1809 N.2     1  UNL1       -0.1844
     30 O         -22.1265    2.1745   26.4242 O.2     1  UNL1       -0.4473
     31 C         -28.3338    2.0192   29.3247 C.2     1  UNL1        0.0131
     32 N         -24.6732    1.0392   28.7166 N.pl3   1  UNL1       -0.2242
     33 N         -27.6571   -0.7681   28.0870 N.3     1  UNL1       -0.2112
     34 C         -29.7527    0.0311   28.6462 C.3     1  UNL1        0.0453
     35 C         -22.6832    0.2813   29.6293 C.3     1  UNL1        0.0507
     36 C         -29.4884    1.3235   29.1832 C.2     1  UNL1       -0.0233
     37 C         -22.8212    1.6114   27.3901 C.2     1  UNL1        0.1387
     38 C         -22.0769    1.1468   28.6512 C.2     1  UNL1        0.0102
     39 F         -23.4954    1.5043   24.8386 F       1  UNL1       -0.1809
     40 C         -24.4026    1.2934   27.2630 C.3     1  UNL1        0.1719
     41 C         -27.4885    0.1344   28.3614 C.3     1  UNL1        0.1303
     42 C         -27.0658    1.4700   29.0170 C.2     1  UNL1        0.0929
     43 C         -24.0367   -0.0463   29.3451 C.3     1  UNL1        0.1019
     44 C         -28.2224   -0.2919   28.0080 C.3     1  UNL1        0.0992
@<TRIPOS>BOND
     1     1     2    1
     2     2     7    1
     3     3     2    2
     4     4     3    1
     5     4     5    2
     6     5     6    1
     7     6     7    2
     8     8     1    1
     9     8     9    1
    10     8    12    1
    11     9    10    1
    12    10    11    1
    13    12    11    1
    14    14    13    1
    15    14    15    1
    16    15    18    2
    17    16    17    1
    18    16    15    1
    19    19    14    2
    20    20    21    2
    21    20    19    1
    22    21    26    1
    23    22    21    1
    24    23    22    1
    25    24    23    1
    26    24    25    1
    27    26    27    1
    28    26    13    2
    29    28    30    1
    30    30    37    1
    31    32    29    1
    32    32    43    1
    33    34    36    1
    34    36    31    2
    35    37    38    2
    36    38    35    1
    37    39    28    1
    38    40    13    1
    39    40    37    1
    40    40    32    1
    41    41    33    1
    42    41    42    1
    43    42    29    2
    44    42    31    1
    45    43    35    1
    46    43     1    1
    47    44    33    1
    48    44    41    1
    49    44    34    1
