@<TRIPOS>MOLECULE
No_2041-gen_results/8p0m/2024-11-27-11-27-31/
 26 27 0 0 0
SMALL
GASTEIGER

@<TRIPOS>ATOM
      1 C         -28.0162   -0.8135   28.8779 C.ar    1  UNL1        0.0031
      2 C         -27.0636   -0.1190   28.6079 C.ar    1  UNL1       -0.0001
      3 C         -26.9716    0.7139   27.5060 C.ar    1  UNL1       -0.0010
      4 C         -28.1053    0.7744   26.6421 C.ar    1  UNL1        0.0155
      5 C         -29.2008    0.1044   27.0527 C.ar    1  UNL1        0.1350
      6 C         -29.2096   -0.6029   28.1853 C.ar    1  UNL1        0.0366
      7 O         -30.3044    0.2267   26.2604 O.3     1  UNL1       -0.4717
      8 C         -25.7141   -0.2197   29.4065 C.ar    1  UNL1       -0.0005
      9 C         -25.4132   -1.0544   30.0373 C.ar    1  UNL1       -0.0043
     10 C         -24.1409   -1.1883   30.8108 C.ar    1  UNL1       -0.0220
     11 C         -23.8070   -1.9741   31.7558 C.3     1  UNL1        0.0310
     12 C         -23.0458   -0.2276   30.2569 C.ar    1  UNL1       -0.0031
     13 C         -23.4184    0.7091   29.3115 C.ar    1  UNL1        0.0433
     14 C         -24.6939    0.6707   28.7513 C.ar    1  UNL1        0.0011
     15 C         -30.4318   -0.5737   25.2414 C.3     1  UNL1        0.2525
     16 C         -22.3714    1.5825   28.7811 C.3     1  UNL1        0.3410
     17 F         -21.4003    1.7999   29.4091 F       1  UNL1       -0.1933
     18 F         -22.4705    2.0669   27.5933 F       1  UNL1       -0.1933
     19 C         -28.0390    1.6396   25.4482 C.3     1  UNL1        0.0472
     20 C         -28.1063    2.6649   25.4952 C.2     1  UNL1       -0.0220
     21 C         -27.8506    0.8479   24.2263 C.3     1  UNL1        0.0095
     22 C         -27.7481    3.5738   26.6538 C.2     1  UNL1       -0.0043
     23 C         -28.2448    4.6674   27.2141 C.2     1  UNL1       -0.0003
     24 C         -27.8678    5.2797   28.3339 C.2     1  UNL1       -0.0000
     25 C         -26.8119    4.7364   29.0863 C.2     1  UNL1       -0.0000
     26 C         -26.1187    3.6079   28.6002 C.2     1  UNL1       -0.0000
@<TRIPOS>BOND
     1     5     7    1
     2     2     8    1
     3     7    15    1
     4    13    16    1
     5    16    17    1
     6    16    18    1
     7     4    19    1
     8    19    20    1
     9    19    21    1
    10    20    22    2
    11    22    23    1
    12    23    24    2
    13    24    25    1
    14    25    26    2
    15    11    10    1
    16     1     2   ar
    17     2     3   ar
    18     3     4   ar
    19     4     5   ar
    20     5     6   ar
    21     6     1   ar
    22     8     9   ar
    23     9    10   ar
    24    10    12   ar
    25    12    13   ar
    26    13    14   ar
    27    14     8   ar
