@<TRIPOS>MOLECULE
No_2045-gen_results/8p0m/2024-11-27-11-27-31/
 9 9 0 0 0
SMALL
GASTEIGER

@<TRIPOS>ATOM
      1 C         -28.0162   -0.8135   28.8779 C.3     1  UNL1        0.1842
      2 C         -28.4690   -0.7850   29.8287 C.3     1  UNL1        0.1346
      3 F         -28.7063   -0.5182   27.8769 F       1  UNL1       -0.2352
      4 C         -26.6853   -0.0122   28.8635 C.3     1  UNL1        0.0629
      5 C         -25.5056   -0.6911   29.3013 C.2     1  UNL1       -0.0233
      6 CL        -29.9482   -1.1771   30.0774 Cl      1  UNL1       -0.1073
      7 C         -25.7418   -1.7734   30.1842 C.2     1  UNL1       -0.0048
      8 C         -26.8380   -2.4010   30.6377 C.2     1  UNL1       -0.0036
      9 C         -28.0481   -1.9789   30.4668 C.2     1  UNL1       -0.0075
@<TRIPOS>BOND
     1     1     2    1
     2     1     3    1
     3     1     4    1
     4     4     5    1
     5     2     6    1
     6     5     7    2
     7     7     8    1
     8     2     9    1
     9     8     9    2
