@<TRIPOS>MOLECULE
No_2046-gen_results/8p0m/2024-11-27-11-27-31/
 35 38 0 0 0
SMALL
GASTEIGER

@<TRIPOS>ATOM
      1 C         -28.0162   -0.8135   28.8779 C.ar    1  UNL1        0.0000
      2 C         -28.4690   -0.7850   29.8287 C.ar    1  UNL1        0.0000
      3 C         -27.1356    0.2359   28.5352 C.ar    1  UNL1        0.0000
      4 C         -26.8745    1.2825   29.3982 C.ar    1  UNL1        0.0000
      5 C         -25.9742    2.3797   29.0831 C.ar    1  UNL1        0.0001
      6 C         -28.3915    0.1302   30.9603 C.ar    1  UNL1        0.0000
      7 C         -27.5035    1.2424   30.6700 C.ar    1  UNL1        0.0000
      8 C         -25.3088    2.5177   28.0535 C.ar    1  UNL1        0.0000
      9 C         -24.5555    1.5624   27.4910 C.2     1  UNL1        0.0000
     10 C         -23.4999    1.4263   27.5046 C.2     1  UNL1        0.0000
     11 C         -22.4597    1.3412   28.1970 C.2     1  UNL1        0.0000
     12 C         -22.6198    0.9123   29.5495 C.2     1  UNL1        0.0000
     13 C         -25.9537    3.4870   30.2203 C.ar    1  UNL1        0.0046
     14 C         -26.0987    4.8508   29.8067 C.ar    1  UNL1        0.0554
     15 C         -25.4481    5.1182   28.5053 C.ar    1  UNL1        0.0046
     16 C         -25.1166    3.9705   27.6391 C.ar    1  UNL1        0.0001
     17 C         -26.2247    5.8784   30.7133 C.2     1  UNL1        0.2690
     18 O         -25.4783    6.6591   30.9505 O.2     1  UNL1       -0.2680
     19 N         -27.5259    5.9277   31.2118 N.am    1  UNL1       -0.1758
     20 C         -27.9238    6.9629   32.1713 C.2     1  UNL1        0.0694
     21 C         -28.9856    7.1490   32.4461 C.2     1  UNL1        0.0159
     22 C         -29.7228    8.0295   32.1526 C.2     1  UNL1       -0.0032
     23 C         -29.1082    9.3835   31.9012 C.2     1  UNL1       -0.0257
     24 C         -27.7129    9.2867   31.7180 C.3     1  UNL1        0.0308
     25 C         -26.7348    7.3515   32.9514 C.2     1  UNL1       -0.0107
     26 C         -27.1581   10.6705   31.2334 C.3     1  UNL1        0.0310
     27 C         -25.8557    6.8293   33.6018 C.2     1  UNL1       -0.0287
     28 C         -26.6490    8.9522   32.6704 C.3     1  UNL1        0.0320
     29 C         -26.0486   10.7010   30.6372 C.ar    1  UNL1       -0.0218
     30 C         -25.1902    9.7997   30.5304 C.ar    1  UNL1       -0.0043
     31 C         -23.9497   10.0385   29.7292 C.ar    1  UNL1       -0.0003
     32 C         -23.7494   11.2003   29.2135 C.ar    1  UNL1       -0.0000
     33 C         -25.6352   11.9684   29.9171 C.ar    1  UNL1       -0.0043
     34 C         -24.5829   12.1966   29.2680 C.ar    1  UNL1       -0.0003
     35 C         -24.9755    7.3931   34.5049 C.3     1  UNL1        0.0304
@<TRIPOS>BOND
     1     4     5    1
     2     8     9    1
     3     9    10    2
     4    10    11    1
     5    11    12    2
     6    14    17    1
     7    17    18    2
     8    17    19   am
     9    19    20    1
    10    20    21    2
    11    21    22    1
    12    22    23    2
    13    23    24    1
    14    20    25    1
    15    24    26    1
    16    25    27    2
    17    24    28    1
    18    25    28    1
    19    26    29    1
    20    27    35    1
    21    29    30   ar
    22    30    31   ar
    23    31    32   ar
    24    32    34   ar
    25    34    33   ar
    26    33    29   ar
    27     1     2   ar
    28     2     6   ar
    29     6     7   ar
    30     7     4   ar
    31     4     3   ar
    32     3     1   ar
    33     5     8   ar
    34     8    16   ar
    35    16    15   ar
    36    15    14   ar
    37    14    13   ar
    38    13     5   ar
