@<TRIPOS>MOLECULE
No_2051-gen_results/8p0m/2024-11-27-11-27-31/
 14 15 0 0 0
SMALL
GASTEIGER

@<TRIPOS>ATOM
      1 C         -28.0162   -0.8135   28.8779 C.ar    1  UNL1        0.0068
      2 C         -28.4690   -0.7850   29.8287 C.ar    1  UNL1        0.0540
      3 C         -27.0871    0.2903   28.6377 C.ar    1  UNL1        0.0298
      4 C         -26.7676    1.0274   29.4716 C.ar    1  UNL1        0.1401
      5 C         -28.2764    0.0268   31.0145 C.ar    1  UNL1        0.0068
      6 C         -27.3287    1.0538   30.7535 C.ar    1  UNL1        0.0298
      7 F         -25.8653    2.0415   29.2470 F       1  UNL1       -0.2042
      8 C         -29.5148   -1.9936   30.2525 C.2     1  UNL1        0.2528
      9 O         -29.3565   -3.1699   30.2284 O.2     1  UNL1       -0.2696
     10 N         -30.8160   -1.6071   30.6087 N.am    1  UNL1       -0.2540
     11 C         -31.2606   -0.2838   30.6247 C.2     1  UNL1        0.0632
     12 C         -32.6000   -0.2799   30.9184 C.2     1  UNL1       -0.0082
     13 C         -33.2849   -1.3865   31.1156 C.3     1  UNL1        0.0493
     14 C         -31.8694   -2.4392   30.8738 C.3     1  UNL1        0.1032
@<TRIPOS>BOND
     1     4     7    1
     2     2     8    1
     3     8     9    2
     4     8    10   am
     5    10    11    1
     6    11    12    2
     7    12    13    1
     8    10    14    1
     9    13    14    1
    10     1     2   ar
    11     2     5   ar
    12     5     6   ar
    13     6     4   ar
    14     4     3   ar
    15     3     1   ar
