@<TRIPOS>MOLECULE
outputs/IAG933/test6/raw/output_2052_IAG933_linker_design_.xyz
 46 50 0 0 0
SMALL
GASTEIGER

@<TRIPOS>ATOM
      1 C         -24.8550   -1.0120   30.1430 C.3     1  UNL1        0.0443
      2 C         -24.9730   -2.5050   29.7880 C.2     1  UNL1       -0.0208
      3 C         -23.9060   -3.1730   29.1460 C.2     1  UNL1       -0.0042
      4 C         -23.9890   -4.5490   28.8530 C.2     1  UNL1       -0.0003
      5 C         -25.1370   -5.2800   29.2050 C.2     1  UNL1       -0.0000
      6 C         -26.2320   -4.6110   29.7840 C.2     1  UNL1       -0.0003
      7 C         -26.1550   -3.2320   30.0650 C.2     1  UNL1       -0.0042
      8 C         -25.3870   -0.6790   31.5710 C.3     1  UNL1        0.0772
      9 C         -25.1890    0.7730   32.0280 C.3     1  UNL1        0.0192
     10 C         -25.3360    0.6840   33.5440 C.3     1  UNL1        0.0202
     11 C         -24.8290   -0.7150   33.9050 C.3     1  UNL1        0.0887
     12 N         -24.7580   -1.4810   32.6460 N.3     1  UNL1       -0.2191
     13 C         -25.6880    1.6140   26.4610 C.2     1  UNL1        0.0392
     14 C         -26.2500    2.9200   26.3950 C.2     1  UNL1        0.0766
     15 C         -25.6420    4.0930   27.1230 C.2     1  UNL1        0.2664
     16 N         -25.6140    5.2520   26.4490 N.am    1  UNL1       -0.1997
     17 C         -25.0260    6.4790   26.9630 C.3     1  UNL1        0.1388
     18 O         -25.1430    3.9660   28.2430 O.2     1  UNL1       -0.2683
     19 C         -27.4380    3.0910   25.6450 C.2     1  UNL1        0.1067
     20 N         -28.0750    2.0890   25.0030 N.2     1  UNL1       -0.2081
     21 C         -27.5430    0.8490   25.0790 C.2     1  UNL1        0.2533
     22 O         -28.1930   -0.2080   24.4770 O.2     1  UNL1       -0.4558
     23 C         -29.4600    0.0050   23.8660 C.3     1  UNL1        0.2426
     24 C         -30.0650   -1.3770   23.5730 C.3     1  UNL1        0.2292
     25 O         -30.7290   -1.8780   24.7210 O.3     1  UNL1       -0.2162
     26 C         -26.3540    0.5760   25.7770 C.2     1  UNL1        0.1931
     27 F         -25.8600   -0.6810   25.7950 F       1  UNL1       -0.1992
     28 C         -22.1658    1.8651   26.9677 C.2     1  UNL1        0.0207
     29 N         -30.2449    6.3109   27.5310 N.am    1  UNL1       -0.0837
     30 C         -26.3722    1.0225   29.7822 C.3     1  UNL1        0.0754
     31 C         -23.3999    1.9589   26.4195 C.2     1  UNL1        0.0028
     32 C         -22.1145    1.2322   28.1919 C.2     1  UNL1        0.0984
     33 C         -28.5386    2.5196   29.9775 C.2     1  UNL1        0.0347
     34 N         -23.0927    0.3831   28.6400 N.2     1  UNL1       -0.2481
     35 C         -24.4076    0.7696   28.4625 C.2     1  UNL1        0.0595
     36 C         -29.7941    2.7096   29.5290 C.2     1  UNL1        0.0030
     37 C         -29.2009    6.0727   28.3136 C.2     1  UNL1        0.2842
     38 C         -27.9576    3.5565   30.6889 C.2     1  UNL1        0.0030
     39 C         -27.7064    1.2889   29.4173 C.2     1  UNL1        0.1734
     40 C         -29.2544    5.0103   29.3705 C.2     1  UNL1        0.0567
     41 C         -30.1748    3.9981   29.2093 C.2     1  UNL1        0.0047
     42 O         -28.1587    6.6637   28.1139 O.2     1  UNL1       -0.2667
     43 O         -28.1769    0.4893   28.6494 O.2     1  UNL1       -0.2913
     44 C         -28.3155    4.8578   30.3611 C.2     1  UNL1        0.0047
     45 C         -25.4825   -0.0124   29.0942 C.3     1  UNL1        0.0533
     46 C         -24.5158    1.3920   27.1237 C.2     1  UNL1        0.0161
@<TRIPOS>BOND
     1     1    45    1
     2     2     7    1
     3     2     1    1
     4     3     2    2
     5     4     3    1
     6     4     5    2
     7     5     6    1
     8     6     7    2
     9     8     1    1
    10     8     9    1
    11     8    12    1
    12     9    10    1
    13    10    11    1
    14    12    11    1
    15    13    46    1
    16    14    13    1
    17    14    15    1
    18    15    18    2
    19    16    17    1
    20    16    15    1
    21    19    14    2
    22    20    21    2
    23    20    19    1
    24    21    26    1
    25    22    21    1
    26    23    22    1
    27    24    23    1
    28    24    25    1
    29    26    27    1
    30    26    13    2
    31    28    32    1
    32    29    37    1
    33    31    28    2
    34    31    46    1
    35    32    34    2
    36    33    38    1
    37    35    34    1
    38    35    45    1
    39    36    33    2
    40    37    40    1
    41    39    30    1
    42    39    33    1
    43    40    44    1
    44    41    40    2
    45    41    36    1
    46    42    37    2
    47    43    39    2
    48    44    38    2
    49    45    30    1
    50    46    35    2
