@<TRIPOS>MOLECULE
outputs/IAG933/test6/raw/output_2053_IAG933_linker_design_.xyz
 42 45 0 0 0
SMALL
GASTEIGER

@<TRIPOS>ATOM
      1 C         -24.8550   -1.0120   30.1430 C.3     1  UNL1        0.1137
      2 C         -24.9730   -2.5050   29.7880 C.2     1  UNL1       -0.0050
      3 C         -23.9060   -3.1730   29.1460 C.2     1  UNL1       -0.0029
      4 C         -23.9890   -4.5490   28.8530 C.2     1  UNL1       -0.0003
      5 C         -25.1370   -5.2800   29.2050 C.2     1  UNL1       -0.0000
      6 C         -26.2320   -4.6110   29.7840 C.2     1  UNL1       -0.0003
      7 C         -26.1550   -3.2320   30.0650 C.2     1  UNL1       -0.0029
      8 C         -25.3870   -0.6790   31.5710 C.3     1  UNL1        0.0930
      9 C         -25.1890    0.7730   32.0280 C.3     1  UNL1        0.0206
     10 C         -25.3360    0.6840   33.5440 C.3     1  UNL1        0.0203
     11 C         -24.8290   -0.7150   33.9050 C.3     1  UNL1        0.0888
     12 N         -24.7580   -1.4810   32.6460 N.3     1  UNL1       -0.2177
     13 C         -25.6880    1.6140   26.4610 C.2     1  UNL1        0.0407
     14 C         -26.2500    2.9200   26.3950 C.2     1  UNL1        0.0745
     15 C         -25.6420    4.0930   27.1230 C.2     1  UNL1        0.2252
     16 N         -25.6140    5.2520   26.4490 N.2     1  UNL1       -0.2356
     17 C         -25.0260    6.4790   26.9630 C.3     1  UNL1        0.1550
     18 O         -25.1430    3.9660   28.2430 O.2     1  UNL1       -0.4250
     19 C         -27.4380    3.0910   25.6450 C.2     1  UNL1        0.1068
     20 N         -28.0750    2.0890   25.0030 N.2     1  UNL1       -0.2081
     21 C         -27.5430    0.8490   25.0790 C.2     1  UNL1        0.2533
     22 O         -28.1930   -0.2080   24.4770 O.2     1  UNL1       -0.4558
     23 C         -29.4600    0.0050   23.8660 C.3     1  UNL1        0.2426
     24 C         -30.0650   -1.3770   23.5730 C.3     1  UNL1        0.2292
     25 O         -30.7290   -1.8780   24.7210 O.3     1  UNL1       -0.2162
     26 C         -26.3540    0.5760   25.7770 C.2     1  UNL1        0.1931
     27 F         -25.8600   -0.6810   25.7950 F       1  UNL1       -0.1992
     28 C         -25.6624    2.2598   29.7772 C.3     1  UNL1        0.1839
     29 N         -24.2910    1.7415   29.6537 N.3     1  UNL1       -0.1783
     30 O         -22.3379    2.7487   27.8170 O.3     1  UNL1       -0.1391
     31 F         -21.6295    1.4167   26.2704 F       1  UNL1       -0.1562
     32 C         -23.6648    0.6502   29.0410 C.3     1  UNL1        0.2314
     33 C         -25.9782    3.7357   29.5147 C.3     1  UNL1        0.3516
     34 N         -27.4104    4.0500   29.1840 N.3     1  UNL1       -0.1034
     35 C         -21.9276    1.4743   27.5011 C.3     1  UNL1        0.4691
     36 C         -29.3085    4.7422   28.9845 C.3     1  UNL1        0.1867
     37 C         -28.6904    3.3362   28.9796 C.3     1  UNL1        0.1413
     38 F         -20.6616    1.1889   27.8996 F       1  UNL1       -0.1562
     39 N         -22.7473    0.4820   28.0163 N.3     1  UNL1       -0.0994
     40 O         -25.6890    4.4430   30.5787 O.3     1  UNL1       -0.1614
     41 O         -28.0013    5.2894   29.3483 O.3     1  UNL1       -0.2757
     42 N         -23.9031   -0.3598   29.6700 N.3     1  UNL1       -0.1821
@<TRIPOS>BOND
     1     1    42    1
     2     2     7    1
     3     2     1    1
     4     3     2    2
     5     4     3    1
     6     4     5    2
     7     5     6    1
     8     6     7    2
     9     8     1    1
    10     8     9    1
    11     8    12    1
    12     9    10    1
    13    10    11    1
    14    12    11    1
    15    14    13    1
    16    14    15    1
    17    15    18    1
    18    16    17    1
    19    16    15    2
    20    18    33    1
    21    19    14    2
    22    20    21    2
    23    20    19    1
    24    21    26    1
    25    22    21    1
    26    23    22    1
    27    24    23    1
    28    24    25    1
    29    26    27    1
    30    26    13    2
    31    29    28    1
    32    31    35    1
    33    32    39    1
    34    32    29    1
    35    32    42    1
    36    33    28    1
    37    33    40    1
    38    34    41    1
    39    34    33    1
    40    35    30    1
    41    35    38    1
    42    35    39    1
    43    36    41    1
    44    37    36    1
    45    37    34    1
