@<TRIPOS>MOLECULE
outputs/IAG933/test6/raw/output_2054_IAG933_linker_design_.xyz
 47 51 0 0 0
SMALL
GASTEIGER

@<TRIPOS>ATOM
      1 C         -24.8550   -1.0120   30.1430 C.3     1  UNL1        0.0743
      2 C         -24.9730   -2.5050   29.7880 C.2     1  UNL1       -0.0158
      3 C         -23.9060   -3.1730   29.1460 C.2     1  UNL1       -0.0039
      4 C         -23.9890   -4.5490   28.8530 C.2     1  UNL1       -0.0003
      5 C         -25.1370   -5.2800   29.2050 C.2     1  UNL1       -0.0000
      6 C         -26.2320   -4.6110   29.7840 C.2     1  UNL1       -0.0003
      7 C         -26.1550   -3.2320   30.0650 C.2     1  UNL1       -0.0039
      8 C         -25.3870   -0.6790   31.5710 C.3     1  UNL1        0.0821
      9 C         -25.1890    0.7730   32.0280 C.3     1  UNL1        0.0196
     10 C         -25.3360    0.6840   33.5440 C.3     1  UNL1        0.0203
     11 C         -24.8290   -0.7150   33.9050 C.3     1  UNL1        0.0887
     12 N         -24.7580   -1.4810   32.6460 N.3     1  UNL1       -0.2188
     13 C         -25.6880    1.6140   26.4610 C.2     1  UNL1        0.0391
     14 C         -26.2500    2.9200   26.3950 C.2     1  UNL1        0.0745
     15 C         -25.6420    4.0930   27.1230 C.2     1  UNL1        0.2662
     16 N         -25.6140    5.2520   26.4490 N.am    1  UNL1       -0.1997
     17 C         -25.0260    6.4790   26.9630 C.3     1  UNL1        0.1388
     18 O         -25.1430    3.9660   28.2430 O.2     1  UNL1       -0.2683
     19 C         -27.4380    3.0910   25.6450 C.2     1  UNL1        0.1065
     20 N         -28.0750    2.0890   25.0030 N.2     1  UNL1       -0.2081
     21 C         -27.5430    0.8490   25.0790 C.2     1  UNL1        0.2530
     22 O         -28.1930   -0.2080   24.4770 O.2     1  UNL1       -0.4558
     23 C         -29.4600    0.0050   23.8660 C.3     1  UNL1        0.2426
     24 C         -30.0650   -1.3770   23.5730 C.3     1  UNL1        0.2292
     25 O         -30.7290   -1.8780   24.7210 O.3     1  UNL1       -0.2162
     26 C         -26.3540    0.5760   25.7770 C.2     1  UNL1        0.1910
     27 F         -25.8600   -0.6810   25.7950 F       1  UNL1       -0.1995
     28 C         -30.4294    4.5410   33.6953 C.3     1  UNL1        0.0770
     29 C         -22.2629    0.8742   28.0422 C.2     1  UNL1        0.0100
     30 F         -28.8615    6.3371   33.8395 F       1  UNL1       -0.1996
     31 N         -25.1192    0.3525   28.5175 N.pl3   1  UNL1       -0.2758
     32 C         -27.4828    5.0361   31.9530 C.2     1  UNL1        0.0122
     33 C         -29.6483    5.6362   32.9656 C.3     1  UNL1        0.2826
     34 C         -24.6623    1.1722   27.4100 C.3     1  UNL1        0.1354
     35 C         -26.6905    4.3811   30.9970 C.3     1  UNL1        0.2032
     36 O         -25.3459    4.7566   30.9425 O.3     1  UNL1       -0.2128
     37 F         -30.5077    6.5117   32.4517 F       1  UNL1       -0.1996
     38 C         -24.1165   -0.0225   29.3552 C.2     1  UNL1        0.0349
     39 C         -22.6517    0.1869   29.2141 C.2     1  UNL1        0.0114
     40 C         -27.3038    1.8202   29.5885 C.1     1  UNL1       -0.0866
     41 C         -28.7247    3.7611   29.7956 C.2     1  UNL1        0.0060
     42 CL        -22.6507    1.8649   25.5336 Cl      1  UNL1       -0.0849
     43 C         -29.4840    4.5563   30.6698 C.2     1  UNL1        0.0011
     44 C         -26.6306    0.3259   28.8559 C.2     1  UNL1        0.1083
     45 C         -23.2304    1.4057   27.1005 C.2     1  UNL1        0.0580
     46 C         -28.8664    5.0497   31.8196 C.2     1  UNL1        0.0363
     47 C         -27.4585    3.4130   30.1148 C.2     1  UNL1        0.0476
@<TRIPOS>BOND
     1     1    38    1
     2     2     7    1
     3     2     1    1
     4     3     2    2
     5     4     3    1
     6     4     5    2
     7     5     6    1
     8     6     7    2
     9     8     1    1
    10     8     9    1
    11     8    12    1
    12     9    10    1
    13    10    11    1
    14    12    11    1
    15    14    13    1
    16    14    15    1
    17    15    18    2
    18    16    17    1
    19    16    15    1
    20    19    14    2
    21    20    21    2
    22    20    19    1
    23    21    26    1
    24    22    21    1
    25    23    22    1
    26    24    23    1
    27    24    25    1
    28    26    27    1
    29    26    13    2
    30    29    39    1
    31    31    44    1
    32    31    38    1
    33    33    28    1
    34    33    30    1
    35    34    13    1
    36    34    31    1
    37    35    36    1
    38    35    32    1
    39    37    33    1
    40    39    38    2
    41    40    47    2
    42    41    47    1
    43    41    43    2
    44    42    45    1
    45    43    46    1
    46    44    40    2
    47    45    34    1
    48    45    29    2
    49    46    32    2
    50    46    33    1
    51    47    35    1
