@<TRIPOS>MOLECULE
No_2055-gen_results/8p0m/2024-11-27-11-27-31/
 25 26 0 0 0
SMALL
GASTEIGER

@<TRIPOS>ATOM
      1 C         -28.0162   -0.8135   28.8779 C.ar    1  UNL1        0.0183
      2 C         -28.4690   -0.7850   29.8287 C.ar    1  UNL1        0.0725
      3 C         -26.5042   -0.7777   28.8766 C.ar    1  UNL1        0.0915
      4 C         -25.8103   -0.8531   30.1028 C.ar    1  UNL1        0.1495
      5 C         -27.9906   -0.8916   31.2257 C.ar    1  UNL1        0.0070
      6 C         -26.6042   -0.8676   31.2652 C.ar    1  UNL1        0.0377
      7 C         -30.0739   -0.8360   29.8615 C.3     1  UNL1        0.4186
      8 F         -30.4860   -0.5896   28.8487 F       1  UNL1       -0.1659
      9 F         -30.5162   -2.0731   30.3017 F       1  UNL1       -0.1659
     10 F         -30.5425    0.0617   30.7005 F       1  UNL1       -0.1659
     11 CL        -25.5101   -0.7015   27.4827 Cl      1  UNL1       -0.0791
     12 O         -24.5002   -0.7787   30.1926 O.3     1  UNL1       -0.4698
     13 C         -23.7257    0.3525   29.9875 C.3     1  UNL1        0.2320
     14 C         -23.3617    0.7550   28.7448 C.ar    1  UNL1        0.0212
     15 C         -21.9779    0.5187   28.3980 C.ar    1  UNL1       -0.0007
     16 C         -21.5484    1.1312   27.1799 C.ar    1  UNL1       -0.0002
     17 C         -22.4491    2.0274   26.5037 C.ar    1  UNL1       -0.0000
     18 C         -23.7232    2.2327   26.9456 C.ar    1  UNL1       -0.0002
     19 C         -24.0974    1.7112   28.1409 C.ar    1  UNL1       -0.0007
     20 C         -24.5268    3.2449   26.2218 C.2     1  UNL1       -0.0000
     21 C         -25.9159    3.0579   26.3064 C.2     1  UNL1       -0.0000
     22 C         -26.7815    4.0561   26.6618 C.2     1  UNL1       -0.0000
     23 C         -28.1975    3.8708   26.5527 C.2     1  UNL1        0.0000
     24 C         -28.6270    2.6440   26.0012 C.2     1  UNL1        0.0000
     25 C         -27.8086    1.6879   25.5918 C.2     1  UNL1        0.0000
@<TRIPOS>BOND
     1     2     7    1
     2     7     8    1
     3     7     9    1
     4     7    10    1
     5     3    11    1
     6     4    12    1
     7    12    13    1
     8    13    14    1
     9    18    20    1
    10    20    21    2
    11    21    22    1
    12    22    23    2
    13    23    24    1
    14    24    25    2
    15    14    15   ar
    16    15    16   ar
    17    16    17   ar
    18    17    18   ar
    19    18    19   ar
    20    19    14   ar
    21     1     2   ar
    22     2     5   ar
    23     5     6   ar
    24     6     4   ar
    25     4     3   ar
    26     3     1   ar
