@<TRIPOS>MOLECULE
outputs/IAG933/test6/raw/output_2057_IAG933_linker_design_.xyz
 44 48 0 0 0
SMALL
GASTEIGER

@<TRIPOS>ATOM
      1 C         -24.8550   -1.0120   30.1430 C.3     1  UNL1        0.0494
      2 C         -24.9730   -2.5050   29.7880 C.2     1  UNL1       -0.0204
      3 C         -23.9060   -3.1730   29.1460 C.2     1  UNL1       -0.0042
      4 C         -23.9890   -4.5490   28.8530 C.2     1  UNL1       -0.0003
      5 C         -25.1370   -5.2800   29.2050 C.2     1  UNL1       -0.0000
      6 C         -26.2320   -4.6110   29.7840 C.2     1  UNL1       -0.0003
      7 C         -26.1550   -3.2320   30.0650 C.2     1  UNL1       -0.0042
      8 C         -25.3870   -0.6790   31.5710 C.3     1  UNL1        0.0775
      9 C         -25.1890    0.7730   32.0280 C.3     1  UNL1        0.0192
     10 C         -25.3360    0.6840   33.5440 C.3     1  UNL1        0.0202
     11 C         -24.8290   -0.7150   33.9050 C.3     1  UNL1        0.0887
     12 N         -24.7580   -1.4810   32.6460 N.3     1  UNL1       -0.2191
     13 C         -25.6880    1.6140   26.4610 C.2     1  UNL1        0.0392
     14 C         -26.2500    2.9200   26.3950 C.2     1  UNL1        0.0766
     15 C         -25.6420    4.0930   27.1230 C.2     1  UNL1        0.2664
     16 N         -25.6140    5.2520   26.4490 N.am    1  UNL1       -0.1997
     17 C         -25.0260    6.4790   26.9630 C.3     1  UNL1        0.1388
     18 O         -25.1430    3.9660   28.2430 O.2     1  UNL1       -0.2683
     19 C         -27.4380    3.0910   25.6450 C.2     1  UNL1        0.1067
     20 N         -28.0750    2.0890   25.0030 N.2     1  UNL1       -0.2081
     21 C         -27.5430    0.8490   25.0790 C.2     1  UNL1        0.2533
     22 O         -28.1930   -0.2080   24.4770 O.2     1  UNL1       -0.4558
     23 C         -29.4600    0.0050   23.8660 C.3     1  UNL1        0.2426
     24 C         -30.0650   -1.3770   23.5730 C.3     1  UNL1        0.2292
     25 O         -30.7290   -1.8780   24.7210 O.3     1  UNL1       -0.2162
     26 C         -26.3540    0.5760   25.7770 C.2     1  UNL1        0.1931
     27 F         -25.8600   -0.6810   25.7950 F       1  UNL1       -0.1992
     28 O         -29.8820   -0.0933   27.7362 O.3     1  UNL1       -0.3438
     29 C         -24.2752   -0.0668   29.1795 C.3     1  UNL1        0.0874
     30 C         -29.0581    0.4944   28.6545 C.3     1  UNL1        0.2137
     31 C         -26.7765    0.2270   28.7500 C.1     1  UNL1       -0.0714
     32 C         -22.5539    1.0929   27.9965 C.2     1  UNL1        0.1740
     33 C         -25.2787    0.4543   28.3680 C.2     1  UNL1        0.0222
     34 C         -28.0719   -0.4540   28.7086 C.2     1  UNL1        0.1801
     35 F         -22.0475   -0.2212   29.9071 F       1  UNL1       -0.2061
     36 O         -28.3976   -1.6684   29.3588 O.2     1  UNL1       -0.4673
     37 C         -22.9511    0.2514   29.0356 C.2     1  UNL1        0.1503
     38 F         -21.3292    1.5766   27.7765 F       1  UNL1       -0.2012
     39 C         -23.4675    1.5693   27.0972 C.2     1  UNL1        0.0873
     40 C         -29.8100   -1.6856   29.6161 C.3     1  UNL1        0.2351
     41 C         -24.7508    1.2136   27.3090 C.2     1  UNL1        0.0189
     42 CL        -22.9238    2.5321   25.7497 Cl      1  UNL1       -0.0798
     43 C         -30.6721   -0.8136   28.7399 C.3     1  UNL1        0.1594
     44 C         -31.7744   -0.0296   29.4528 C.3     1  UNL1        0.0361
@<TRIPOS>BOND
     1     1     2    1
     2     2     7    1
     3     3     2    2
     4     4     3    1
     5     4     5    2
     6     5     6    1
     7     6     7    2
     8     8     1    1
     9     8     9    1
    10     8    12    1
    11     9    10    1
    12    10    11    1
    13    12    11    1
    14    13    41    1
    15    14    13    1
    16    14    15    1
    17    15    18    2
    18    16    17    1
    19    16    15    1
    20    19    14    2
    21    20    21    2
    22    20    19    1
    23    21    26    1
    24    22    21    1
    25    23    22    1
    26    24    23    1
    27    24    25    1
    28    26    27    1
    29    26    13    2
    30    28    30    1
    31    28    43    1
    32    29     1    1
    33    30    34    1
    34    32    37    2
    35    33    31    2
    36    33    29    1
    37    34    31    2
    38    34    36    1
    39    36    40    1
    40    37    29    1
    41    37    35    1
    42    38    32    1
    43    39    41    2
    44    39    32    1
    45    41    33    1
    46    42    39    1
    47    43    44    1
    48    43    40    1
