@<TRIPOS>MOLECULE
outputs/IAG933/test6/raw/output_2059_IAG933_linker_design_.xyz
 44 49 0 0 0
SMALL
GASTEIGER

@<TRIPOS>ATOM
      1 C         -24.8550   -1.0120   30.1430 C.3     1  UNL1        0.0437
      2 C         -24.9730   -2.5050   29.7880 C.2     1  UNL1       -0.0208
      3 C         -23.9060   -3.1730   29.1460 C.2     1  UNL1       -0.0042
      4 C         -23.9890   -4.5490   28.8530 C.2     1  UNL1       -0.0003
      5 C         -25.1370   -5.2800   29.2050 C.2     1  UNL1       -0.0000
      6 C         -26.2320   -4.6110   29.7840 C.2     1  UNL1       -0.0003
      7 C         -26.1550   -3.2320   30.0650 C.2     1  UNL1       -0.0042
      8 C         -25.3870   -0.6790   31.5710 C.3     1  UNL1        0.0772
      9 C         -25.1890    0.7730   32.0280 C.3     1  UNL1        0.0204
     10 C         -25.3360    0.6840   33.5440 C.3     1  UNL1        0.0203
     11 C         -24.8290   -0.7150   33.9050 C.3     1  UNL1        0.0887
     12 N         -24.7580   -1.4810   32.6460 N.3     1  UNL1       -0.2191
     13 C         -25.6880    1.6140   26.4610 C.2     1  UNL1        0.0407
     14 C         -26.2500    2.9200   26.3950 C.2     1  UNL1        0.0744
     15 C         -25.6420    4.0930   27.1230 C.2     1  UNL1        0.2222
     16 N         -25.6140    5.2520   26.4490 N.2     1  UNL1       -0.2356
     17 C         -25.0260    6.4790   26.9630 C.3     1  UNL1        0.1550
     18 O         -25.1430    3.9660   28.2430 O.2     1  UNL1       -0.4579
     19 C         -27.4380    3.0910   25.6450 C.2     1  UNL1        0.1068
     20 N         -28.0750    2.0890   25.0030 N.2     1  UNL1       -0.2081
     21 C         -27.5430    0.8490   25.0790 C.2     1  UNL1        0.2533
     22 O         -28.1930   -0.2080   24.4770 O.2     1  UNL1       -0.4558
     23 C         -29.4600    0.0050   23.8660 C.3     1  UNL1        0.2426
     24 C         -30.0650   -1.3770   23.5730 C.3     1  UNL1        0.2292
     25 O         -30.7290   -1.8780   24.7210 O.3     1  UNL1       -0.2162
     26 C         -26.3540    0.5760   25.7770 C.2     1  UNL1        0.1931
     27 F         -25.8600   -0.6810   25.7950 F       1  UNL1       -0.1992
     28 C         -26.5982    3.1216   30.1122 C.3     1  UNL1        0.0394
     29 C         -21.2965    1.3185   27.5979 C.2     1  UNL1        0.0622
     30 O         -27.5401    5.2933   29.1871 O.3     1  UNL1       -0.2205
     31 O         -28.2670    3.2360   31.8123 O.3     1  UNL1       -0.3511
     32 N         -23.1504    0.9030   29.6844 N.2     1  UNL1       -0.2400
     33 C         -26.0456    2.0807   31.4321 C.3     1  UNL1        0.0351
     34 C         -27.5237    1.9824   31.7902 C.3     1  UNL1        0.1424
     35 F         -20.0320    0.3810   27.9460 F       1  UNL1       -0.2025
     36 C         -21.9251    0.1505   29.5655 C.2     1  UNL1        0.1283
     37 C         -23.4525    1.9232   28.7662 C.2     1  UNL1        0.1261
     38 C         -27.4768    4.4291   31.6047 C.3     1  UNL1        0.1748
     39 C         -26.8058    4.6535   30.1628 C.3     1  UNL1        0.1815
     40 C         -21.0513    0.4901   28.4736 C.2     1  UNL1        0.1614
     41 C         -25.4006    2.2550   30.1409 C.3     1  UNL1        0.0512
     42 C         -22.6398    2.0002   27.6505 C.2     1  UNL1        0.1593
     43 F         -22.9736    2.7006   26.5001 F       1  UNL1       -0.2027
     44 C         -24.6243    2.7634   28.8672 C.3     1  UNL1        0.2093
@<TRIPOS>BOND
     1     2     7    1
     2     2     1    1
     3     3     2    2
     4     4     3    1
     5     4     5    2
     6     5     6    1
     7     6     7    2
     8     8     1    1
     9     8     9    1
    10     8    12    1
    11     9    10    1
    12    10    11    1
    13    12    11    1
    14    14    13    1
    15    14    15    1
    16    15    18    1
    17    16    17    1
    18    16    15    2
    19    18    44    1
    20    19    14    2
    21    20    21    2
    22    20    19    1
    23    21    26    1
    24    22    21    1
    25    23    22    1
    26    24    23    1
    27    24    25    1
    28    26    27    1
    29    26    13    2
    30    28    41    1
    31    28    39    1
    32    28    33    1
    33    29    42    2
    34    29    40    1
    35    30    39    1
    36    33    34    1
    37    33     9    1
    38    34    31    1
    39    35    40    1
    40    36    32    1
    41    37    44    1
    42    37    32    2
    43    38    31    1
    44    39    38    1
    45    40    36    2
    46    41    33    1
    47    42    37    1
    48    43    42    1
    49    44    41    1
