@<TRIPOS>MOLECULE
outputs/IAG933/test6/raw/output_2060_IAG933_linker_design_.xyz
 43 46 0 0 0
SMALL
GASTEIGER

@<TRIPOS>ATOM
      1 C         -24.8550   -1.0120   30.1430 C.3     1  UNL1        0.1160
      2 C         -24.9730   -2.5050   29.7880 C.2     1  UNL1       -0.0028
      3 C         -23.9060   -3.1730   29.1460 C.2     1  UNL1       -0.0026
      4 C         -23.9890   -4.5490   28.8530 C.2     1  UNL1       -0.0003
      5 C         -25.1370   -5.2800   29.2050 C.2     1  UNL1       -0.0000
      6 C         -26.2320   -4.6110   29.7840 C.2     1  UNL1       -0.0003
      7 C         -26.1550   -3.2320   30.0650 C.2     1  UNL1       -0.0026
      8 C         -25.3870   -0.6790   31.5710 C.3     1  UNL1        0.0952
      9 C         -25.1890    0.7730   32.0280 C.3     1  UNL1        0.0209
     10 C         -25.3360    0.6840   33.5440 C.3     1  UNL1        0.0203
     11 C         -24.8290   -0.7150   33.9050 C.3     1  UNL1        0.0888
     12 N         -24.7580   -1.4810   32.6460 N.3     1  UNL1       -0.2174
     13 C         -25.6880    1.6140   26.4610 C.3     1  UNL1        0.1430
     14 C         -26.2500    2.9200   26.3950 C.2     1  UNL1        0.0709
     15 C         -25.6420    4.0930   27.1230 C.2     1  UNL1        0.2638
     16 N         -25.6140    5.2520   26.4490 N.am    1  UNL1       -0.2000
     17 C         -25.0260    6.4790   26.9630 C.3     1  UNL1        0.1388
     18 O         -25.1430    3.9660   28.2430 O.2     1  UNL1       -0.2686
     19 C         -27.4380    3.0910   25.6450 C.2     1  UNL1        0.1035
     20 N         -28.0750    2.0890   25.0030 N.2     1  UNL1       -0.2118
     21 C         -27.5430    0.8490   25.0790 C.2     1  UNL1        0.2356
     22 O         -28.1930   -0.2080   24.4770 O.2     1  UNL1       -0.4585
     23 C         -29.4600    0.0050   23.8660 C.3     1  UNL1        0.2423
     24 C         -30.0650   -1.3770   23.5730 C.3     1  UNL1        0.2292
     25 O         -30.7290   -1.8780   24.7210 O.3     1  UNL1       -0.2162
     26 C         -26.3540    0.5760   25.7770 C.3     1  UNL1        0.2559
     27 F         -25.8600   -0.6810   25.7950 F       1  UNL1       -0.2253
     28 O         -22.5871   -0.0630   29.6133 O.2     1  UNL1       -0.2733
     29 C         -30.9117   -2.2265   30.7293 C.2     1  UNL1        0.0065
     30 N         -24.8368   -0.1474   29.0568 N.am    1  UNL1       -0.2495
     31 C         -23.3961    0.8681   27.4153 C.3     1  UNL1        0.1494
     32 O         -27.3063    0.4601   28.9085 O.3     1  UNL1       -0.3294
     33 N         -24.4490    1.4329   26.8355 N.3     1  UNL1       -0.2037
     34 C         -25.9240    0.4144   28.5312 C.3     1  UNL1        0.2430
     35 C         -31.5810   -1.0798   31.1598 C.2     1  UNL1        0.0345
     36 C         -23.5695    0.1540   28.7688 C.2     1  UNL1        0.2434
     37 C         -31.0703    0.1795   30.8228 C.2     1  UNL1        0.0065
     38 BR        -33.1093   -1.2102   32.1878 Br      1  UNL1       -0.0490
     39 C         -29.8992    0.2783   30.0757 C.2     1  UNL1       -0.0013
     40 C         -29.7260   -2.1208   30.0215 C.2     1  UNL1       -0.0013
     41 C         -27.9500   -0.8194   28.8093 C.3     1  UNL1        0.1706
     42 C         -22.0420    1.5305   27.2981 C.3     1  UNL1        0.0287
     43 C         -29.2007   -0.8802   29.6588 C.2     1  UNL1        0.0074
@<TRIPOS>BOND
     1     1    30    1
     2     2     7    1
     3     2     1    1
     4     3     2    2
     5     4     3    1
     6     4     5    2
     7     5     6    1
     8     6     7    2
     9     8     1    1
    10     8     9    1
    11     8    12    1
    12     9    10    1
    13    10    11    1
    14    12    11    1
    15    13    33    1
    16    14    13    1
    17    14    15    1
    18    15    18    2
    19    16    17    1
    20    16    15    1
    21    19    14    2
    22    20    21    2
    23    20    19    1
    24    21    26    1
    25    22    21    1
    26    23    22    1
    27    24    23    1
    28    24    25    1
    29    26    27    1
    30    26    13    1
    31    29    35    1
    32    31    42    1
    33    31    36    1
    34    33    31    1
    35    34    32    1
    36    34    30    1
    37    35    38    1
    38    36    30   am
    39    36    28    2
    40    37    35    2
    41    39    37    1
    42    40    29    2
    43    41    32    1
    44    41    43    1
    45    43    40    1
    46    43    39    2
