@<TRIPOS>MOLECULE
outputs/IAG933/test6/raw/output_2061_IAG933_linker_design_.xyz
 42 45 0 0 0
SMALL
GASTEIGER

@<TRIPOS>ATOM
      1 C         -24.8550   -1.0120   30.1430 C.3     1  UNL1        0.0771
      2 C         -24.9730   -2.5050   29.7880 C.2     1  UNL1       -0.0157
      3 C         -23.9060   -3.1730   29.1460 C.2     1  UNL1       -0.0039
      4 C         -23.9890   -4.5490   28.8530 C.2     1  UNL1       -0.0003
      5 C         -25.1370   -5.2800   29.2050 C.2     1  UNL1       -0.0000
      6 C         -26.2320   -4.6110   29.7840 C.2     1  UNL1       -0.0003
      7 C         -26.1550   -3.2320   30.0650 C.2     1  UNL1       -0.0039
      8 C         -25.3870   -0.6790   31.5710 C.3     1  UNL1        0.0822
      9 C         -25.1890    0.7730   32.0280 C.3     1  UNL1        0.0196
     10 C         -25.3360    0.6840   33.5440 C.3     1  UNL1        0.0203
     11 C         -24.8290   -0.7150   33.9050 C.3     1  UNL1        0.0887
     12 N         -24.7580   -1.4810   32.6460 N.3     1  UNL1       -0.2188
     13 C         -25.6880    1.6140   26.4610 C.2     1  UNL1        0.0427
     14 C         -26.2500    2.9200   26.3950 C.2     1  UNL1        0.0746
     15 C         -25.6420    4.0930   27.1230 C.2     1  UNL1        0.2662
     16 N         -25.6140    5.2520   26.4490 N.am    1  UNL1       -0.1997
     17 C         -25.0260    6.4790   26.9630 C.3     1  UNL1        0.1388
     18 O         -25.1430    3.9660   28.2430 O.2     1  UNL1       -0.2683
     19 C         -27.4380    3.0910   25.6450 C.2     1  UNL1        0.1065
     20 N         -28.0750    2.0890   25.0030 N.2     1  UNL1       -0.2081
     21 C         -27.5430    0.8490   25.0790 C.2     1  UNL1        0.2530
     22 O         -28.1930   -0.2080   24.4770 O.2     1  UNL1       -0.4558
     23 C         -29.4600    0.0050   23.8660 C.3     1  UNL1        0.2426
     24 C         -30.0650   -1.3770   23.5730 C.3     1  UNL1        0.2292
     25 O         -30.7290   -1.8780   24.7210 O.3     1  UNL1       -0.2162
     26 C         -26.3540    0.5760   25.7770 C.2     1  UNL1        0.1911
     27 F         -25.8600   -0.6810   25.7950 F       1  UNL1       -0.1995
     28 F         -21.2486    1.7411   27.8107 F       1  UNL1       -0.1998
     29 C         -24.5406    1.2700   27.3092 C.3     1  UNL1        0.1772
     30 C         -27.4447    0.4338   29.2352 C.2     1  UNL1        0.2598
     31 N         -22.1115    0.3254   29.9440 N.pl3   1  UNL1       -0.1246
     32 F         -21.3166    2.0077   25.3386 F       1  UNL1       -0.1809
     33 C         -28.4957    0.6866   30.3087 C.3     1  UNL1        0.0981
     34 O         -23.4815    1.5637   25.4361 O.2     1  UNL1       -0.4446
     35 C         -23.4260    1.4424   26.8349 C.2     1  UNL1        0.1717
     36 O         -27.6546   -0.5615   28.5021 O.2     1  UNL1       -0.2717
     37 C         -22.8524    0.4076   28.9188 C.2     1  UNL1        0.1303
     38 C         -22.4516    1.1627   27.7582 C.2     1  UNL1        0.1893
     39 C         -22.4674    2.0921   24.7549 C.3     1  UNL1        0.4031
     40 N         -26.4403    1.2546   29.0711 N.am    1  UNL1       -0.1094
     41 C         -24.1944    0.0576   29.1834 C.2     1  UNL1        0.0695
     42 N         -25.1144    0.8610   28.5293 N.pl3   1  UNL1       -0.2101
@<TRIPOS>BOND
     1     1    41    1
     2     2     7    1
     3     2     1    1
     4     3     2    2
     5     4     3    1
     6     4     5    2
     7     5     6    1
     8     6     7    2
     9     8     1    1
    10     8     9    1
    11     8    12    1
    12     9    10    1
    13    10    11    1
    14    12    11    1
    15    14    13    1
    16    14    15    1
    17    15    18    2
    18    16    17    1
    19    16    15    1
    20    19    14    2
    21    20    21    2
    22    20    19    1
    23    21    26    1
    24    22    21    1
    25    23    22    1
    26    24    23    1
    27    24    25    1
    28    26    27    1
    29    26    13    2
    30    29    13    1
    31    29    42    1
    32    30    33    1
    33    34    35    1
    34    35    29    1
    35    35    38    2
    36    36    30    2
    37    37    41    2
    38    37    31    1
    39    38    28    1
    40    38    37    1
    41    39    32    1
    42    39    34    1
    43    40    30    1
    44    42    40    1
    45    42    41    1
