@<TRIPOS>MOLECULE
outputs/IAG933/test6/raw/output_2063_IAG933_linker_design_.xyz
 44 48 0 0 0
SMALL
GASTEIGER

@<TRIPOS>ATOM
      1 C         -24.8550   -1.0120   30.1430 C.3     1  UNL1        0.0410
      2 C         -24.9730   -2.5050   29.7880 C.2     1  UNL1       -0.0211
      3 C         -23.9060   -3.1730   29.1460 C.2     1  UNL1       -0.0042
      4 C         -23.9890   -4.5490   28.8530 C.2     1  UNL1       -0.0003
      5 C         -25.1370   -5.2800   29.2050 C.2     1  UNL1       -0.0000
      6 C         -26.2320   -4.6110   29.7840 C.2     1  UNL1       -0.0003
      7 C         -26.1550   -3.2320   30.0650 C.2     1  UNL1       -0.0042
      8 C         -25.3870   -0.6790   31.5710 C.3     1  UNL1        0.0769
      9 C         -25.1890    0.7730   32.0280 C.3     1  UNL1        0.0192
     10 C         -25.3360    0.6840   33.5440 C.3     1  UNL1        0.0202
     11 C         -24.8290   -0.7150   33.9050 C.3     1  UNL1        0.0887
     12 N         -24.7580   -1.4810   32.6460 N.3     1  UNL1       -0.2191
     13 C         -25.6880    1.6140   26.4610 C.2     1  UNL1        0.0254
     14 C         -26.2500    2.9200   26.3950 C.2     1  UNL1        0.0731
     15 C         -25.6420    4.0930   27.1230 C.2     1  UNL1        0.2661
     16 N         -25.6140    5.2520   26.4490 N.am    1  UNL1       -0.1997
     17 C         -25.0260    6.4790   26.9630 C.3     1  UNL1        0.1388
     18 O         -25.1430    3.9660   28.2430 O.2     1  UNL1       -0.2683
     19 C         -27.4380    3.0910   25.6450 C.2     1  UNL1        0.1064
     20 N         -28.0750    2.0890   25.0030 N.2     1  UNL1       -0.2081
     21 C         -27.5430    0.8490   25.0790 C.2     1  UNL1        0.2530
     22 O         -28.1930   -0.2080   24.4770 O.2     1  UNL1       -0.4558
     23 C         -29.4600    0.0050   23.8660 C.3     1  UNL1        0.2426
     24 C         -30.0650   -1.3770   23.5730 C.3     1  UNL1        0.2292
     25 O         -30.7290   -1.8780   24.7210 O.3     1  UNL1       -0.2162
     26 C         -26.3540    0.5760   25.7770 C.2     1  UNL1        0.1896
     27 F         -25.8600   -0.6810   25.7950 F       1  UNL1       -0.1996
     28 O         -25.0286    2.1519   29.4346 O.3     1  UNL1       -0.3537
     29 C         -25.3725    4.4521   31.1816 C.3     1  UNL1        0.0346
     30 C         -23.3477    1.4449   26.6299 C.2     1  UNL1        0.1602
     31 C         -21.6635    1.9695   25.2431 C.3     1  UNL1        0.4291
     32 C         -24.4737    0.9121   28.6709 C.3     1  UNL1        0.1221
     33 C         -22.0536    1.5473   27.2909 C.2     1  UNL1        0.1724
     34 C         -25.3230    5.7978   32.0910 C.3     1  UNL1        0.1424
     35 C         -26.4060    2.4849   30.0743 C.3     1  UNL1        0.1425
     36 C         -24.4849    1.3287   27.2296 C.3     1  UNL1        0.1135
     37 C         -21.9277    1.3095   28.6689 C.2     1  UNL1        0.0376
     38 C         -25.4250   -0.1619   28.9681 C.3     1  UNL1        0.0379
     39 C         -23.0673    0.9552   29.3600 C.2     1  UNL1        0.0042
     40 C         -27.0247    7.4208   32.8875 C.3     1  UNL1        0.1741
     41 O         -22.9497    1.5315   25.1692 O.2     1  UNL1       -0.4387
     42 O         -26.4468    6.1473   32.9774 O.3     1  UNL1       -0.3511
     43 C         -26.7132    4.0545   30.7042 C.3     1  UNL1        0.0347
     44 O         -21.0956    1.9713   26.4758 O.2     1  UNL1       -0.4350
@<TRIPOS>BOND
     1     1    38    1
     2     2     7    1
     3     2     1    1
     4     3     2    2
     5     4     3    1
     6     4     5    2
     7     5     6    1
     8     6     7    2
     9     8     1    1
    10     8     9    1
    11     8    12    1
    12     9    10    1
    13    10    11    1
    14    12    11    1
    15    14    13    1
    16    14    15    1
    17    15    18    2
    18    16    17    1
    19    16    15    1
    20    19    14    2
    21    20    21    2
    22    20    19    1
    23    21    26    1
    24    22    21    1
    25    23    22    1
    26    24    23    1
    27    24    25    1
    28    26    27    1
    29    26    13    2
    30    28    35    1
    31    29    34    1
    32    30    36    1
    33    30    33    2
    34    31    44    1
    35    32    38    1
    36    32    39    1
    37    32    28    1
    38    33    37    1
    39    34    42    1
    40    35    43    1
    41    36    13    1
    42    36    32    1
    43    37    39    2
    44    40    42    1
    45    41    31    1
    46    41    30    1
    47    43    29    1
    48    44    33    1
