@<TRIPOS>MOLECULE
outputs/IAG933/test6/raw/output_2067_IAG933_linker_design_.xyz
 44 47 0 0 0
SMALL
GASTEIGER

@<TRIPOS>ATOM
      1 C         -24.8550   -1.0120   30.1430 C.3     1  UNL1        0.0591
      2 C         -24.9730   -2.5050   29.7880 C.2     1  UNL1       -0.0197
      3 C         -23.9060   -3.1730   29.1460 C.2     1  UNL1       -0.0042
      4 C         -23.9890   -4.5490   28.8530 C.2     1  UNL1       -0.0003
      5 C         -25.1370   -5.2800   29.2050 C.2     1  UNL1       -0.0000
      6 C         -26.2320   -4.6110   29.7840 C.2     1  UNL1       -0.0003
      7 C         -26.1550   -3.2320   30.0650 C.2     1  UNL1       -0.0042
      8 C         -25.3870   -0.6790   31.5710 C.3     1  UNL1        0.0782
      9 C         -25.1890    0.7730   32.0280 C.3     1  UNL1        0.0192
     10 C         -25.3360    0.6840   33.5440 C.3     1  UNL1        0.0202
     11 C         -24.8290   -0.7150   33.9050 C.3     1  UNL1        0.0887
     12 N         -24.7580   -1.4810   32.6460 N.3     1  UNL1       -0.2191
     13 C         -25.6880    1.6140   26.4610 C.2     1  UNL1        0.0407
     14 C         -26.2500    2.9200   26.3950 C.2     1  UNL1        0.0744
     15 C         -25.6420    4.0930   27.1230 C.2     1  UNL1        0.2220
     16 N         -25.6140    5.2520   26.4490 N.2     1  UNL1       -0.2357
     17 C         -25.0260    6.4790   26.9630 C.3     1  UNL1        0.1550
     18 O         -25.1430    3.9660   28.2430 O.2     1  UNL1       -0.4584
     19 C         -27.4380    3.0910   25.6450 C.2     1  UNL1        0.1068
     20 N         -28.0750    2.0890   25.0030 N.2     1  UNL1       -0.2081
     21 C         -27.5430    0.8490   25.0790 C.2     1  UNL1        0.2533
     22 O         -28.1930   -0.2080   24.4770 O.2     1  UNL1       -0.4558
     23 C         -29.4600    0.0050   23.8660 C.3     1  UNL1        0.2426
     24 C         -30.0650   -1.3770   23.5730 C.3     1  UNL1        0.2292
     25 O         -30.7290   -1.8780   24.7210 O.3     1  UNL1       -0.2162
     26 C         -26.3540    0.5760   25.7770 C.2     1  UNL1        0.1931
     27 F         -25.8600   -0.6810   25.7950 F       1  UNL1       -0.1992
     28 N         -26.7738    1.5946   28.7835 N.am    1  UNL1       -0.1999
     29 O         -24.5340    6.4630   32.2321 O.2     1  UNL1       -0.2501
     30 C         -25.8887    4.7815   30.4661 C.3     1  UNL1        0.2395
     31 C         -24.7550    5.1713   32.6618 C.2     1  UNL1        0.3176
     32 C         -25.6297    3.6665   29.5262 C.3     1  UNL1        0.2319
     33 C         -27.3620    5.1312   30.3209 C.3     1  UNL1        0.1895
     34 C         -25.0115   -0.0691   29.0178 C.3     1  UNL1        0.1471
     35 O         -28.1338    4.0957   30.6859 O.3     1  UNL1       -0.3478
     36 C         -26.6645    2.6828   29.5316 C.3     1  UNL1        0.1683
     37 O         -27.3778   -0.5517   28.7450 O.2     1  UNL1       -0.2723
     38 C         -27.6788    2.9694   30.5243 C.3     1  UNL1        0.1677
     39 C         -22.7175    1.0153   28.1961 C.1     1  UNL1       -0.0895
     40 C         -24.8809    5.0639   34.2215 C.3     1  UNL1        0.1212
     41 C         -23.7992    0.5258   28.5258 C.1     1  UNL1       -0.0823
     42 C         -21.3894    1.4945   27.8983 C.3     1  UNL1        0.0900
     43 O         -25.6159    4.3870   31.9068 O.3     1  UNL1       -0.4458
     44 C         -26.4970    0.3231   28.8304 C.2     1  UNL1        0.2536
@<TRIPOS>BOND
     1     1    34    1
     2     2     7    1
     3     2     1    1
     4     3     2    2
     5     4     3    1
     6     4     5    2
     7     5     6    1
     8     6     7    2
     9     8     1    1
    10     8     9    1
    11     8    12    1
    12     9    10    1
    13    10    11    1
    14    12    11    1
    15    14    13    1
    16    14    15    1
    17    15    18    1
    18    16    17    1
    19    16    15    2
    20    19    14    2
    21    20    21    2
    22    20    19    1
    23    21    26    1
    24    22    21    1
    25    23    22    1
    26    24    23    1
    27    24    25    1
    28    26    27    1
    29    26    13    2
    30    28    44    1
    31    29    31    2
    32    30    43    1
    33    31    40    1
    34    32    18    1
    35    32    36    1
    36    32    30    1
    37    33    30    1
    38    33    35    1
    39    34    41    1
    40    36    28    1
    41    36    38    1
    42    37    44    2
    43    38    35    1
    44    39    41    3
    45    42    39    1
    46    43    31    1
    47    44    34    1
