@<TRIPOS>MOLECULE
No_2068-gen_results/8p0m/2024-11-27-11-27-31/
 11 11 0 0 0
SMALL
GASTEIGER

@<TRIPOS>ATOM
      1 C         -28.0162   -0.8135   28.8779 C.ar    1  UNL1        0.0113
      2 C         -27.0636   -0.1189   28.6079 C.ar    1  UNL1        0.0577
      3 C         -26.9287    1.1713   29.0083 C.ar    1  UNL1        0.0113
      4 C         -27.9560    1.7411   29.7840 C.ar    1  UNL1        0.0047
      5 C         -29.0569   -0.3271   29.7466 C.ar    1  UNL1        0.0047
      6 C         -28.9828    0.9722   30.1516 C.ar    1  UNL1        0.0715
      7 CL        -25.7352   -0.7297   27.6631 Cl      1  UNL1       -0.0822
      8 C         -30.0810    1.5109   31.0108 C.3     1  UNL1        0.4186
      9 F         -29.7821    2.4085   31.7990 F       1  UNL1       -0.1659
     10 F         -30.6290    0.4760   31.7257 F       1  UNL1       -0.1659
     11 F         -31.0363    1.9673   30.1146 F       1  UNL1       -0.1659
@<TRIPOS>BOND
     1     2     7    1
     2     6     8    1
     3     8     9    1
     4     8    10    1
     5     8    11    1
     6     1     2   ar
     7     2     3   ar
     8     3     4   ar
     9     4     6   ar
    10     6     5   ar
    11     5     1   ar
