@<TRIPOS>MOLECULE
outputs/IAG933/test6/raw/output_207_IAG933_linker_design_.xyz
 45 48 0 0 0
SMALL
GASTEIGER

@<TRIPOS>ATOM
      1 C         -24.8550   -1.0120   30.1430 C.3     1  UNL1        0.0567
      2 C         -24.9730   -2.5050   29.7880 C.2     1  UNL1       -0.0197
      3 C         -23.9060   -3.1730   29.1460 C.2     1  UNL1       -0.0042
      4 C         -23.9890   -4.5490   28.8530 C.2     1  UNL1       -0.0003
      5 C         -25.1370   -5.2800   29.2050 C.2     1  UNL1       -0.0000
      6 C         -26.2320   -4.6110   29.7840 C.2     1  UNL1       -0.0003
      7 C         -26.1550   -3.2320   30.0650 C.2     1  UNL1       -0.0042
      8 C         -25.3870   -0.6790   31.5710 C.3     1  UNL1        0.0782
      9 C         -25.1890    0.7730   32.0280 C.3     1  UNL1        0.0192
     10 C         -25.3360    0.6840   33.5440 C.3     1  UNL1        0.0202
     11 C         -24.8290   -0.7150   33.9050 C.3     1  UNL1        0.0887
     12 N         -24.7580   -1.4810   32.6460 N.3     1  UNL1       -0.2191
     13 C         -25.6880    1.6140   26.4610 C.2     1  UNL1        0.0328
     14 C         -26.2500    2.9200   26.3950 C.2     1  UNL1        0.0739
     15 C         -25.6420    4.0930   27.1230 C.2     1  UNL1        0.2662
     16 N         -25.6140    5.2520   26.4490 N.am    1  UNL1       -0.1997
     17 C         -25.0260    6.4790   26.9630 C.3     1  UNL1        0.1388
     18 O         -25.1430    3.9660   28.2430 O.2     1  UNL1       -0.2683
     19 C         -27.4380    3.0910   25.6450 C.2     1  UNL1        0.1065
     20 N         -28.0750    2.0890   25.0030 N.2     1  UNL1       -0.2081
     21 C         -27.5430    0.8490   25.0790 C.2     1  UNL1        0.2530
     22 O         -28.1930   -0.2080   24.4770 O.2     1  UNL1       -0.4558
     23 C         -29.4600    0.0050   23.8660 C.3     1  UNL1        0.2426
     24 C         -30.0650   -1.3770   23.5730 C.3     1  UNL1        0.2292
     25 O         -30.7290   -1.8780   24.7210 O.3     1  UNL1       -0.2162
     26 C         -26.3540    0.5760   25.7770 C.2     1  UNL1        0.1904
     27 F         -25.8600   -0.6810   25.7950 F       1  UNL1       -0.1995
     28 C         -22.8390    0.6831   28.7652 C.3     1  UNL1        0.2203
     29 N         -24.2287    0.5686   28.3300 N.3     1  UNL1       -0.2402
     30 C         -29.5445    0.9624   29.4661 C.3     1  UNL1        0.2389
     31 O         -30.4205   -0.0654   27.2090 O.2     1  UNL1       -0.2900
     32 C         -30.8088    0.3836   29.4333 C.2     1  UNL1        0.0532
     33 C         -23.1080    1.5947   26.4973 C.3     1  UNL1        0.1644
     34 N         -33.1788   -1.2321   29.4108 N.3     1  UNL1       -0.1226
     35 O         -27.4408    0.6193   28.7443 O.3     1  UNL1       -0.4451
     36 C         -28.4228    0.0605   29.2160 C.2     1  UNL1        0.3489
     37 C         -24.2956    1.3005   27.0556 C.3     1  UNL1        0.1146
     38 O         -29.5623    2.4120   29.4639 O.3     1  UNL1       -0.3385
     39 C         -29.0737    3.1075   28.3134 C.3     1  UNL1        0.1752
     40 O         -28.5205   -1.1751   29.4012 O.2     1  UNL1       -0.2470
     41 C         -25.1927   -0.1867   28.9554 C.3     1  UNL1        0.1091
     42 C         -31.2012   -0.1798   28.2809 C.2     1  UNL1        0.1909
     43 C         -32.6007   -0.7344   28.1233 C.3     1  UNL1        0.1777
     44 C         -26.4444   -0.1900   28.4951 C.3     1  UNL1        0.2247
     45 O         -22.2560    1.3529   27.5260 O.3     1  UNL1       -0.3355
@<TRIPOS>BOND
     1     1    41    1
     2     2     7    1
     3     2     1    1
     4     3     2    2
     5     4     3    1
     6     4     5    2
     7     5     6    1
     8     6     7    2
     9     8     1    1
    10     8     9    1
    11     8    12    1
    12     9    10    1
    13    10    11    1
    14    12    11    1
    15    14    13    1
    16    14    15    1
    17    15    18    2
    18    16    17    1
    19    16    15    1
    20    19    14    2
    21    20    21    2
    22    20    19    1
    23    21    26    1
    24    22    21    1
    25    23    22    1
    26    24    23    1
    27    24    25    1
    28    26    27    1
    29    26    13    2
    30    29    28    1
    31    29    41    1
    32    30    32    1
    33    31    42    1
    34    33    37    1
    35    33    45    1
    36    35    36    1
    37    36    40    2
    38    36    30    1
    39    37    13    1
    40    37    29    1
    41    38    30    1
    42    39    38    1
    43    41    44    1
    44    42    32    2
    45    43    42    1
    46    43    34    1
    47    44    35    1
    48    45    28    1
