@<TRIPOS>MOLECULE
No_2070-gen_results/8p0m/2024-11-27-11-27-31/
 12 13 0 0 0
SMALL
GASTEIGER

@<TRIPOS>ATOM
      1 C         -28.0162   -0.8135   28.8779 C.ar    1  UNL1        0.0000
      2 C         -27.0636   -0.1189   28.6079 C.ar    1  UNL1        0.0000
      3 C         -25.7923   -0.4302   29.0761 C.ar    1  UNL1        0.0000
      4 C         -24.5456    0.3494   28.8225 C.ar    1  UNL1        0.0000
      5 C         -24.6586    1.4196   27.8878 C.ar    1  UNL1        0.0000
      6 C         -23.5403    2.1791   27.5500 C.ar    1  UNL1        0.0000
      7 C         -22.2925    1.7428   28.0473 C.ar    1  UNL1        0.0000
      8 C         -22.1712    0.7079   28.9284 C.ar    1  UNL1        0.0000
      9 C         -23.3345   -0.0624   29.3081 C.ar    1  UNL1        0.0000
     10 C         -27.9546   -1.8765   29.8726 C.ar    1  UNL1        0.0000
     11 C         -26.7258   -2.3300   30.3106 C.ar    1  UNL1        0.0000
     12 C         -25.6021   -1.5640   29.9668 C.ar    1  UNL1        0.0000
@<TRIPOS>BOND
     1     3     4    1
     2     1     2   ar
     3     2     3   ar
     4     3    12   ar
     5    12    11   ar
     6    11    10   ar
     7    10     1   ar
     8     4     5   ar
     9     5     6   ar
    10     6     7   ar
    11     7     8   ar
    12     8     9   ar
    13     9     4   ar
