@<TRIPOS>MOLECULE
No_2071-gen_results/8p0m/2024-11-27-11-27-31/
 16 17 0 0 0
SMALL
GASTEIGER

@<TRIPOS>ATOM
      1 C         -28.0162   -0.8135   28.8779 C.ar    1  UNL1       -0.0036
      2 C         -28.4690   -0.7850   29.8287 C.ar    1  UNL1       -0.0003
      3 C         -27.0871    0.2903   28.6377 C.ar    1  UNL1       -0.0143
      4 C         -26.9102    0.8486   27.4199 C.3     1  UNL1        0.0660
      5 C         -27.8863   -0.5049   31.0944 C.ar    1  UNL1       -0.0000
      6 C         -26.9294    0.5930   31.0741 C.ar    1  UNL1       -0.0003
      7 C         -26.5225    0.9550   29.8008 C.ar    1  UNL1       -0.0036
      8 C         -27.6922    1.1530   26.5994 C.2     1  UNL1       -0.0222
      9 C         -29.0563    1.0772   26.8859 C.2     1  UNL1       -0.0297
     10 C         -30.0022    1.4088   25.8021 C.3     1  UNL1        0.0304
     11 C         -25.3416    0.8793   27.0683 C.ar    1  UNL1       -0.0143
     12 C         -24.3881    0.4431   27.9193 C.ar    1  UNL1       -0.0036
     13 C         -23.1049    0.9305   28.1191 C.ar    1  UNL1       -0.0003
     14 C         -22.6415    1.8999   27.1396 C.ar    1  UNL1       -0.0000
     15 C         -23.5529    2.2607   26.1417 C.ar    1  UNL1       -0.0003
     16 C         -24.9286    1.9100   26.1321 C.ar    1  UNL1       -0.0036
@<TRIPOS>BOND
     1     3     4    1
     2     4     8    1
     3     8     9    2
     4     9    10    1
     5     4    11    1
     6    11    12   ar
     7    12    13   ar
     8    13    14   ar
     9    14    15   ar
    10    15    16   ar
    11    16    11   ar
    12     1     2   ar
    13     2     5   ar
    14     5     6   ar
    15     6     7   ar
    16     7     3   ar
    17     3     1   ar
