@<TRIPOS>MOLECULE
outputs/IAG933/test6/raw/output_2072_IAG933_linker_design_.xyz
 47 49 0 0 0
SMALL
GASTEIGER

@<TRIPOS>ATOM
      1 C         -24.8550   -1.0120   30.1430 C.3     1  UNL1        0.0397
      2 C         -24.9730   -2.5050   29.7880 C.2     1  UNL1       -0.0211
      3 C         -23.9060   -3.1730   29.1460 C.2     1  UNL1       -0.0042
      4 C         -23.9890   -4.5490   28.8530 C.2     1  UNL1       -0.0003
      5 C         -25.1370   -5.2800   29.2050 C.2     1  UNL1       -0.0000
      6 C         -26.2320   -4.6110   29.7840 C.2     1  UNL1       -0.0003
      7 C         -26.1550   -3.2320   30.0650 C.2     1  UNL1       -0.0042
      8 C         -25.3870   -0.6790   31.5710 C.3     1  UNL1        0.0768
      9 C         -25.1890    0.7730   32.0280 C.3     1  UNL1        0.0192
     10 C         -25.3360    0.6840   33.5440 C.3     1  UNL1        0.0202
     11 C         -24.8290   -0.7150   33.9050 C.3     1  UNL1        0.0887
     12 N         -24.7580   -1.4810   32.6460 N.3     1  UNL1       -0.2191
     13 C         -25.6880    1.6140   26.4610 C.2     1  UNL1        0.0407
     14 C         -26.2500    2.9200   26.3950 C.2     1  UNL1        0.0744
     15 C         -25.6420    4.0930   27.1230 C.2     1  UNL1        0.2224
     16 N         -25.6140    5.2520   26.4490 N.2     1  UNL1       -0.2356
     17 C         -25.0260    6.4790   26.9630 C.3     1  UNL1        0.1550
     18 O         -25.1430    3.9660   28.2430 O.2     1  UNL1       -0.4502
     19 C         -27.4380    3.0910   25.6450 C.2     1  UNL1        0.1068
     20 N         -28.0750    2.0890   25.0030 N.2     1  UNL1       -0.2081
     21 C         -27.5430    0.8490   25.0790 C.2     1  UNL1        0.2533
     22 O         -28.1930   -0.2080   24.4770 O.2     1  UNL1       -0.4558
     23 C         -29.4600    0.0050   23.8660 C.3     1  UNL1        0.2426
     24 C         -30.0650   -1.3770   23.5730 C.3     1  UNL1        0.2292
     25 O         -30.7290   -1.8780   24.7210 O.3     1  UNL1       -0.2162
     26 C         -26.3540    0.5760   25.7770 C.2     1  UNL1        0.1931
     27 F         -25.8600   -0.6810   25.7950 F       1  UNL1       -0.1992
     28 N         -31.6962    1.0523   29.5025 N.am    1  UNL1       -0.0878
     29 C         -24.0094    0.3321   28.2336 C.3     1  UNL1        0.0179
     30 C         -25.6570    2.9630   29.1003 C.3     1  UNL1        0.2928
     31 C         -26.0122    3.7241   30.3104 C.2     1  UNL1        0.2872
     32 C         -22.1259    1.6081   27.8970 C.1     1  UNL1        0.0731
     33 C         -27.1174   -0.2737   28.8817 C.3     1  UNL1        0.0740
     34 C         -33.6102   -0.2106   27.4636 C.3     1  UNL1        0.0005
     35 C         -31.2951    1.2826   28.3125 C.2     1  UNL1        0.2603
     36 C         -22.7834    0.8963   28.9844 C.3     1  UNL1        0.1055
     37 C         -29.0322    0.8634   28.9557 C.3     1  UNL1        0.0742
     38 C         -30.9612    0.0975   27.3920 C.3     1  UNL1        0.0812
     39 C         -27.9271    1.4826   30.2202 C.3     1  UNL1        0.1903
     40 O         -25.7543    4.7861   30.7194 O.2     1  UNL1       -0.2692
     41 O         -31.3293    2.6218   27.7578 O.2     1  UNL1       -0.2717
     42 N         -21.5566    1.8638   26.9446 N.1     1  UNL1       -0.1959
     43 N         -26.8866    2.8306   30.9040 N.am    1  UNL1       -0.1840
     44 C         -29.3837    0.0636   27.6512 C.3     1  UNL1        0.0266
     45 C         -32.2641   -0.9430   27.2635 C.3     1  UNL1        0.0092
     46 N         -27.9444    0.6927   29.7685 N.3     1  UNL1       -0.2544
     47 C         -25.3464   -0.0349   29.0462 C.3     1  UNL1        0.0225
@<TRIPOS>BOND
     1     1    47    1
     2     2     7    1
     3     2     1    1
     4     3     2    2
     5     4     3    1
     6     4     5    2
     7     5     6    1
     8     6     7    2
     9     8     1    1
    10     8     9    1
    11     8    12    1
    12     9    10    1
    13    10    11    1
    14    12    11    1
    15    14    13    1
    16    14    15    1
    17    15    18    1
    18    16    17    1
    19    16    15    2
    20    18    30    1
    21    19    14    2
    22    20    21    2
    23    20    19    1
    24    21    26    1
    25    22    21    1
    26    23    22    1
    27    24    23    1
    28    24    25    1
    29    26    27    1
    30    26    13    2
    31    29    36    1
    32    30    31    1
    33    31    40    2
    34    31    43    1
    35    32    36    1
    36    33    47    1
    37    33    46    1
    38    35    28    1
    39    37    46    1
    40    38    45    1
    41    38    44    1
    42    38    35    1
    43    39    43    1
    44    41    35    2
    45    42    32    3
    46    44    37    1
    47    45    34    1
    48    46    39    1
    49    47    29    1
