@<TRIPOS>MOLECULE
outputs/IAG933/test6/raw/output_2073_IAG933_linker_design_.xyz
 41 45 0 0 0
SMALL
GASTEIGER

@<TRIPOS>ATOM
      1 C         -24.8550   -1.0120   30.1430 C.3     1  UNL1        0.1156
      2 C         -24.9730   -2.5050   29.7880 C.2     1  UNL1       -0.0029
      3 C         -23.9060   -3.1730   29.1460 C.2     1  UNL1       -0.0026
      4 C         -23.9890   -4.5490   28.8530 C.2     1  UNL1       -0.0003
      5 C         -25.1370   -5.2800   29.2050 C.2     1  UNL1       -0.0000
      6 C         -26.2320   -4.6110   29.7840 C.2     1  UNL1       -0.0003
      7 C         -26.1550   -3.2320   30.0650 C.2     1  UNL1       -0.0026
      8 C         -25.3870   -0.6790   31.5710 C.3     1  UNL1        0.0952
      9 C         -25.1890    0.7730   32.0280 C.3     1  UNL1        0.0209
     10 C         -25.3360    0.6840   33.5440 C.3     1  UNL1        0.0203
     11 C         -24.8290   -0.7150   33.9050 C.3     1  UNL1        0.0888
     12 N         -24.7580   -1.4810   32.6460 N.3     1  UNL1       -0.2174
     13 C         -25.6880    1.6140   26.4610 C.2     1  UNL1        0.0913
     14 C         -26.2500    2.9200   26.3950 C.2     1  UNL1        0.0902
     15 C         -25.6420    4.0930   27.1230 C.2     1  UNL1        0.2676
     16 N         -25.6140    5.2520   26.4490 N.am    1  UNL1       -0.1997
     17 C         -25.0260    6.4790   26.9630 C.3     1  UNL1        0.1388
     18 O         -25.1430    3.9660   28.2430 O.2     1  UNL1       -0.2683
     19 C         -27.4380    3.0910   25.6450 C.2     1  UNL1        0.1080
     20 N         -28.0750    2.0890   25.0030 N.2     1  UNL1       -0.2080
     21 C         -27.5430    0.8490   25.0790 C.2     1  UNL1        0.2546
     22 O         -28.1930   -0.2080   24.4770 O.2     1  UNL1       -0.4558
     23 C         -29.4600    0.0050   23.8660 C.3     1  UNL1        0.2426
     24 C         -30.0650   -1.3770   23.5730 C.3     1  UNL1        0.2292
     25 O         -30.7290   -1.8780   24.7210 O.3     1  UNL1       -0.2162
     26 C         -26.3540    0.5760   25.7770 C.2     1  UNL1        0.2066
     27 F         -25.8600   -0.6810   25.7950 F       1  UNL1       -0.1979
     28 O         -24.2935    2.0825   29.9766 O.2     1  UNL1       -0.2697
     29 C         -20.4753    0.3656   28.1308 C.2     1  UNL1        0.0454
     30 C         -21.5621   -0.0889   28.7519 C.2     1  UNL1        0.2015
     31 C         -24.0472    0.9536   29.4995 C.2     1  UNL1        0.2549
     32 O         -22.1064    2.4014   25.6348 O.2     1  UNL1       -0.4702
     33 C         -22.7771    0.6727   28.6658 C.2     1  UNL1        0.1090
     34 C         -20.6525    1.3270   27.1287 C.2     1  UNL1        0.0415
     35 N         -24.8985    0.0704   29.2537 N.am    1  UNL1       -0.2547
     36 C         -23.1125    1.2391   27.5497 C.2     1  UNL1        0.0948
     37 C         -21.9407    1.6461   26.7812 C.2     1  UNL1        0.1526
     38 O         -21.8273   -1.2472   29.3524 O.2     1  UNL1       -0.2864
     39 N         -24.4808    1.1413   27.0835 N.pl3   1  UNL1       -0.2643
     40 C         -24.9803   -0.0919   27.7579 C.3     1  UNL1        0.1954
     41 C         -23.3611    2.9871   25.2964 C.3     1  UNL1        0.2525
@<TRIPOS>BOND
     1     1     2    1
     2     2     7    1
     3     3     2    2
     4     4     3    1
     5     4     5    2
     6     5     6    1
     7     6     7    2
     8     8     1    1
     9     8     9    1
    10     8    12    1
    11     9    10    1
    12    10    11    1
    13    12    11    1
    14    13    39    1
    15    14    13    1
    16    14    15    1
    17    15    18    2
    18    16    17    1
    19    16    15    1
    20    19    14    2
    21    20    21    2
    22    20    19    1
    23    21    26    1
    24    22    21    1
    25    23    22    1
    26    24    23    1
    27    24    25    1
    28    26    27    1
    29    26    13    2
    30    29    30    1
    31    30    38    1
    32    31    28    2
    33    32    37    1
    34    33    30    2
    35    33    31    1
    36    34    29    2
    37    35    31   am
    38    35     1    1
    39    36    33    1
    40    37    34    1
    41    37    36    2
    42    39    36    1
    43    39    40    1
    44    40    35    1
    45    41    32    1
