@<TRIPOS>MOLECULE
No_2075-gen_results/8p0m/2024-11-27-11-27-31/
 13 14 0 0 0
SMALL
GASTEIGER

@<TRIPOS>ATOM
      1 C         -28.0162   -0.8135   28.8779 C.3     1  UNL1        0.0708
      2 C         -28.4690   -0.7850   29.8287 C.3     1  UNL1        0.0313
      3 C         -28.1960    0.3478   28.0550 C.2     1  UNL1        0.1830
      4 C         -27.4421    0.5100   26.7946 C.3     1  UNL1        0.2176
      5 C         -26.1689   -0.0794   26.6787 C.3     1  UNL1        0.0435
      6 C         -25.7312   -0.9607   27.6875 C.3     1  UNL1        0.0128
      7 C         -26.5043   -1.2222   28.7582 C.3     1  UNL1        0.0853
      8 C         -28.3432   -2.0040   30.7789 C.3     1  UNL1        0.1156
      9 N         -27.1300   -2.6401   30.6981 N.am    1  UNL1       -0.2054
     10 C         -26.2532   -2.4346   29.6051 C.2     1  UNL1        0.2413
     11 O         -25.2319   -3.1183   29.5395 O.2     1  UNL1       -0.2733
     12 O         -29.3802    0.9379   27.9803 O.2     1  UNL1       -0.2932
     13 F         -27.7447    1.4106   25.9123 F       1  UNL1       -0.2293
@<TRIPOS>BOND
     1     1     3    1
     2     3     4    1
     3     4     5    1
     4     5     6    1
     5     1     7    1
     6     2     8    1
     7     7    10    1
     8     9    10   am
     9    10    11    2
    10     3    12    2
    11     4    13    1
    12     1     2    1
    13     8     9    1
    14     7     6    1
