@<TRIPOS>MOLECULE
outputs/IAG933/test6/raw/output_2076_IAG933_linker_design_.xyz
 42 47 0 0 0
SMALL
GASTEIGER

@<TRIPOS>ATOM
      1 C         -24.8550   -1.0120   30.1430 C.3     1  UNL1        0.1279
      2 C         -24.9730   -2.5050   29.7880 C.2     1  UNL1       -0.0003
      3 C         -23.9060   -3.1730   29.1460 C.2     1  UNL1       -0.0024
      4 C         -23.9890   -4.5490   28.8530 C.2     1  UNL1       -0.0003
      5 C         -25.1370   -5.2800   29.2050 C.2     1  UNL1       -0.0000
      6 C         -26.2320   -4.6110   29.7840 C.2     1  UNL1       -0.0003
      7 C         -26.1550   -3.2320   30.0650 C.2     1  UNL1       -0.0024
      8 C         -25.3870   -0.6790   31.5710 C.3     1  UNL1        0.0978
      9 C         -25.1890    0.7730   32.0280 C.3     1  UNL1        0.0211
     10 C         -25.3360    0.6840   33.5440 C.3     1  UNL1        0.0203
     11 C         -24.8290   -0.7150   33.9050 C.3     1  UNL1        0.0888
     12 N         -24.7580   -1.4810   32.6460 N.3     1  UNL1       -0.2172
     13 C         -25.6880    1.6140   26.4610 C.3     1  UNL1        0.1332
     14 C         -26.2500    2.9200   26.3950 C.2     1  UNL1        0.0604
     15 C         -25.6420    4.0930   27.1230 C.2     1  UNL1        0.2626
     16 N         -25.6140    5.2520   26.4490 N.am    1  UNL1       -0.2000
     17 C         -25.0260    6.4790   26.9630 C.3     1  UNL1        0.1388
     18 O         -25.1430    3.9660   28.2430 O.2     1  UNL1       -0.2687
     19 C         -27.4380    3.0910   25.6450 C.2     1  UNL1        0.1023
     20 N         -28.0750    2.0890   25.0030 N.2     1  UNL1       -0.2119
     21 C         -27.5430    0.8490   25.0790 C.2     1  UNL1        0.2343
     22 O         -28.1930   -0.2080   24.4770 O.2     1  UNL1       -0.4585
     23 C         -29.4600    0.0050   23.8660 C.3     1  UNL1        0.2423
     24 C         -30.0650   -1.3770   23.5730 C.3     1  UNL1        0.2292
     25 O         -30.7290   -1.8780   24.7210 O.3     1  UNL1       -0.2162
     26 C         -26.3540    0.5760   25.7770 C.3     1  UNL1        0.2455
     27 F         -25.8600   -0.6810   25.7950 F       1  UNL1       -0.2267
     28 N         -24.2465    0.0542   29.4484 N.ar    1  UNL1       -0.2804
     29 O         -21.6061    2.3932   25.2603 O.2     1  UNL1       -0.2469
     30 O         -23.5975    2.5090   26.0295 O.3     1  UNL1       -0.4278
     31 C         -24.6394    1.2466   29.0979 C.ar    1  UNL1        0.3339
     32 O         -25.0319    2.0810   29.9435 O.2     1  UNL1       -0.2462
     33 C         -21.9247   -0.6635   29.3774 C.3     1  UNL1        0.0478
     34 C         -19.8376    0.3018   28.4972 C.3     1  UNL1        0.1437
     35 C         -24.3428    1.6926   26.9460 C.3     1  UNL1        0.2702
     36 C         -21.7850    1.5090   27.3258 C.3     1  UNL1        0.2533
     37 O         -20.4573    1.5050   27.6215 O.3     1  UNL1       -0.3402
     38 C         -20.7700   -0.3667   28.8613 C.3     1  UNL1        0.0384
     39 C         -22.2198    2.1668   26.1331 C.2     1  UNL1        0.3518
     40 C         -23.0704    0.0632   28.9932 C.ar    1  UNL1        0.0563
     41 N         -23.8978    1.3296   27.8417 N.ar    1  UNL1       -0.2475
     42 C         -22.8460    0.9883   28.0110 C.ar    1  UNL1        0.0940
@<TRIPOS>BOND
     1     1     2    1
     2     2     7    1
     3     3     2    2
     4     4     3    1
     5     4     5    2
     6     5     6    1
     7     6     7    2
     8     8     1    1
     9     8     9    1
    10     8    12    1
    11     9    10    1
    12    10    11    1
    13    12    11    1
    14    13    14    1
    15    13    35    1
    16    14    15    1
    17    15    18    2
    18    16    17    1
    19    16    15    1
    20    19    14    2
    21    20    21    2
    22    20    19    1
    23    21    26    1
    24    22    21    1
    25    23    22    1
    26    24    23    1
    27    24    25    1
    28    26    27    1
    29    26    13    1
    30    28     1    1
    31    29    39    2
    32    30    39    1
    33    31    28   ar
    34    31    32    2
    35    34    38    1
    36    35    30    1
    37    35    41    1
    38    36    39    1
    39    36    37    1
    40    36    42    1
    41    37    34    1
    42    38    33    1
    43    40    33    1
    44    40    28   ar
    45    41    42   ar
    46    41    31   ar
    47    42    40   ar
