@<TRIPOS>MOLECULE
outputs/IAG933/test6/raw/output_2078_IAG933_linker_design_.xyz
 41 44 0 0 0
SMALL
GASTEIGER

@<TRIPOS>ATOM
      1 C         -24.8550   -1.0120   30.1430 C.3     1  UNL1        0.0978
      2 C         -24.9730   -2.5050   29.7880 C.2     1  UNL1       -0.0064
      3 C         -23.9060   -3.1730   29.1460 C.2     1  UNL1       -0.0029
      4 C         -23.9890   -4.5490   28.8530 C.2     1  UNL1       -0.0003
      5 C         -25.1370   -5.2800   29.2050 C.2     1  UNL1       -0.0000
      6 C         -26.2320   -4.6110   29.7840 C.2     1  UNL1       -0.0003
      7 C         -26.1550   -3.2320   30.0650 C.2     1  UNL1       -0.0029
      8 C         -25.3870   -0.6790   31.5710 C.3     1  UNL1        0.0916
      9 C         -25.1890    0.7730   32.0280 C.3     1  UNL1        0.0206
     10 C         -25.3360    0.6840   33.5440 C.3     1  UNL1        0.0203
     11 C         -24.8290   -0.7150   33.9050 C.3     1  UNL1        0.0888
     12 N         -24.7580   -1.4810   32.6460 N.3     1  UNL1       -0.2178
     13 C         -25.6880    1.6140   26.4610 C.2     1  UNL1        0.0366
     14 C         -26.2500    2.9200   26.3950 C.2     1  UNL1        0.0763
     15 C         -25.6420    4.0930   27.1230 C.2     1  UNL1        0.2664
     16 N         -25.6140    5.2520   26.4490 N.am    1  UNL1       -0.1997
     17 C         -25.0260    6.4790   26.9630 C.3     1  UNL1        0.1388
     18 O         -25.1430    3.9660   28.2430 O.2     1  UNL1       -0.2683
     19 C         -27.4380    3.0910   25.6450 C.2     1  UNL1        0.1067
     20 N         -28.0750    2.0890   25.0030 N.2     1  UNL1       -0.2081
     21 C         -27.5430    0.8490   25.0790 C.2     1  UNL1        0.2533
     22 O         -28.1930   -0.2080   24.4770 O.2     1  UNL1       -0.4558
     23 C         -29.4600    0.0050   23.8660 C.3     1  UNL1        0.2426
     24 C         -30.0650   -1.3770   23.5730 C.3     1  UNL1        0.2292
     25 O         -30.7290   -1.8780   24.7210 O.3     1  UNL1       -0.2162
     26 C         -26.3540    0.5760   25.7770 C.2     1  UNL1        0.1928
     27 F         -25.8600   -0.6810   25.7950 F       1  UNL1       -0.1992
     28 O         -27.8582    1.5748   30.2985 O.3     1  UNL1       -0.0987
     29 C         -21.9193   -0.0856   29.3862 C.3     1  UNL1        0.0304
     30 O         -29.0267   -0.2464   28.5967 O.3     1  UNL1       -0.2172
     31 N         -26.9557    1.4902   29.2639 N.3     1  UNL1       -0.0299
     32 C         -24.3862    1.3332   27.1318 C.2     1  UNL1        0.0115
     33 N         -25.1241   -0.0942   29.0720 N.3     1  UNL1       -0.2463
     34 C         -22.1427    1.4902   27.3953 C.2     1  UNL1        0.1440
     35 C         -23.1583    1.9097   26.5295 C.2     1  UNL1        0.0821
     36 C         -26.5590    0.2866   28.7652 C.3     1  UNL1        0.1993
     37 C         -22.7330    0.6851   28.4102 C.2     1  UNL1        0.0029
     38 C         -24.1240    0.5773   28.2970 C.3     1  UNL1        0.1035
     39 CL        -22.9232    2.8936   25.2142 Cl      1  UNL1       -0.0802
     40 F         -20.8235    1.7681   27.2292 F       1  UNL1       -0.2039
     41 C         -27.6690   -0.7538   28.7900 C.3     1  UNL1        0.2187
@<TRIPOS>BOND
     1     1    33    1
     2     2     7    1
     3     2     1    1
     4     3     2    2
     5     4     3    1
     6     4     5    2
     7     5     6    1
     8     6     7    2
     9     8     1    1
    10     8     9    1
    11     8    12    1
    12     9    10    1
    13    10    11    1
    14    12    11    1
    15    13    32    1
    16    14    13    1
    17    14    15    1
    18    15    18    2
    19    16    17    1
    20    16    15    1
    21    19    14    2
    22    20    21    2
    23    20    19    1
    24    21    26    1
    25    22    21    1
    26    23    22    1
    27    24    23    1
    28    24    25    1
    29    26    27    1
    30    26    13    2
    31    30    41    1
    32    31    28    1
    33    32    38    1
    34    34    37    2
    35    35    32    2
    36    35    34    1
    37    36    41    1
    38    36    33    1
    39    36    31    1
    40    37    29    1
    41    38    37    1
    42    38    33    1
    43    39    35    1
    44    40    34    1
