@<TRIPOS>MOLECULE
No_208-gen_results/8p0m/2024-11-27-11-27-31/
 23 25 0 0 0
SMALL
GASTEIGER

@<TRIPOS>ATOM
      1 C         -28.0162   -0.8135   28.8779 C.ar    1  UNL1       -0.0036
      2 C         -27.0636   -0.1189   28.6079 C.ar    1  UNL1       -0.0143
      3 C         -25.7923   -0.4302   29.0761 C.ar    1  UNL1       -0.0036
      4 C         -25.5756   -1.5654   29.9363 C.ar    1  UNL1       -0.0003
      5 C         -26.7354   -2.3004   30.2173 C.ar    1  UNL1       -0.0000
      6 C         -27.9184   -1.9537   29.7629 C.ar    1  UNL1       -0.0003
      7 C         -27.1057    1.1023   27.7593 C.3     1  UNL1        0.0661
      8 C         -26.7157    2.2350   27.9945 C.ar    1  UNL1       -0.0143
      9 C         -26.6929    3.3459   27.0337 C.ar    1  UNL1       -0.0036
     10 C         -26.1137    4.6521   27.2832 C.ar    1  UNL1       -0.0003
     11 C         -25.5470    4.8355   28.5363 C.ar    1  UNL1       -0.0000
     12 C         -25.4931    3.8265   29.4633 C.ar    1  UNL1       -0.0003
     13 C         -26.0070    2.5721   29.2356 C.ar    1  UNL1       -0.0036
     14 C         -27.8082    0.8213   26.4618 C.2     1  UNL1       -0.0218
     15 C         -27.1343    0.6006   25.3834 C.2     1  UNL1       -0.0237
     16 C         -25.7246    0.2556   25.4322 C.3     1  UNL1        0.0714
     17 C         -24.7988    0.3150   26.4843 C.ar    1  UNL1        0.0633
     18 C         -23.9042    1.3327   26.8002 C.ar    1  UNL1        0.0148
     19 C         -22.8314    1.2025   27.6729 C.ar    1  UNL1       -0.0015
     20 C         -22.6748   -0.0302   28.3615 C.ar    1  UNL1       -0.0027
     21 C         -21.6173   -0.1344   29.3361 C.3     1  UNL1        0.0327
     22 N         -24.5631   -0.8430   27.2060 N.ar    1  UNL1       -0.2481
     23 C         -23.5847   -1.0343   28.0442 C.ar    1  UNL1        0.0942
@<TRIPOS>BOND
     1     2     7    1
     2     7    14    1
     3    14    15    2
     4    15    16    1
     5    20    21    1
     6     7     8    1
     7    16    17    1
     8     1     2   ar
     9     2     3   ar
    10     3     4   ar
    11     4     5   ar
    12     5     6   ar
    13     6     1   ar
    14     8     9   ar
    15     9    10   ar
    16    10    11   ar
    17    11    12   ar
    18    12    13   ar
    19    13     8   ar
    20    17    18   ar
    21    18    19   ar
    22    19    20   ar
    23    20    23   ar
    24    23    22   ar
    25    22    17   ar
