@<TRIPOS>MOLECULE
outputs/IAG933/test6/raw/output_2080_IAG933_linker_design_.xyz
 43 47 0 0 0
SMALL
GASTEIGER

@<TRIPOS>ATOM
      1 C         -24.8550   -1.0120   30.1430 C.3     1  UNL1        0.1113
      2 C         -24.9730   -2.5050   29.7880 C.2     1  UNL1       -0.0030
      3 C         -23.9060   -3.1730   29.1460 C.2     1  UNL1       -0.0026
      4 C         -23.9890   -4.5490   28.8530 C.2     1  UNL1       -0.0003
      5 C         -25.1370   -5.2800   29.2050 C.2     1  UNL1       -0.0000
      6 C         -26.2320   -4.6110   29.7840 C.2     1  UNL1       -0.0003
      7 C         -26.1550   -3.2320   30.0650 C.2     1  UNL1       -0.0026
      8 C         -25.3870   -0.6790   31.5710 C.3     1  UNL1        0.0950
      9 C         -25.1890    0.7730   32.0280 C.3     1  UNL1        0.0209
     10 C         -25.3360    0.6840   33.5440 C.3     1  UNL1        0.0203
     11 C         -24.8290   -0.7150   33.9050 C.3     1  UNL1        0.0888
     12 N         -24.7580   -1.4810   32.6460 N.3     1  UNL1       -0.2174
     13 C         -25.6880    1.6140   26.4610 C.2     1  UNL1        0.0415
     14 C         -26.2500    2.9200   26.3950 C.2     1  UNL1        0.0767
     15 C         -25.6420    4.0930   27.1230 C.2     1  UNL1        0.2664
     16 N         -25.6140    5.2520   26.4490 N.am    1  UNL1       -0.1997
     17 C         -25.0260    6.4790   26.9630 C.3     1  UNL1        0.1388
     18 O         -25.1430    3.9660   28.2430 O.2     1  UNL1       -0.2683
     19 C         -27.4380    3.0910   25.6450 C.2     1  UNL1        0.1067
     20 N         -28.0750    2.0890   25.0030 N.2     1  UNL1       -0.2081
     21 C         -27.5430    0.8490   25.0790 C.2     1  UNL1        0.2533
     22 O         -28.1930   -0.2080   24.4770 O.2     1  UNL1       -0.4558
     23 C         -29.4600    0.0050   23.8660 C.3     1  UNL1        0.2426
     24 C         -30.0650   -1.3770   23.5730 C.3     1  UNL1        0.2292
     25 O         -30.7290   -1.8780   24.7210 O.3     1  UNL1       -0.2162
     26 C         -26.3540    0.5760   25.7770 C.2     1  UNL1        0.1932
     27 F         -25.8600   -0.6810   25.7950 F       1  UNL1       -0.1992
     28 C         -22.9220    0.5646   28.8833 C.2     1  UNL1        0.0170
     29 C         -27.6271    0.9062   29.0675 C.3     1  UNL1        0.0198
     30 C         -23.2634    1.4134   26.2623 C.2     1  UNL1        0.1686
     31 C         -24.2229    0.5892   28.3498 C.2     1  UNL1        0.0504
     32 C         -29.9139    0.8409   27.8731 C.3     1  UNL1        0.0000
     33 C         -27.8713   -0.2914   28.3431 C.3     1  UNL1        0.0017
     34 F         -23.3636    1.4952   24.9177 F       1  UNL1       -0.2018
     35 C         -24.3774    1.1930   27.0747 C.2     1  UNL1        0.0456
     36 C         -28.5998    1.7209   29.6938 C.3     1  UNL1        0.0017
     37 C         -29.9863    1.5896   29.1539 C.3     1  UNL1        0.0001
     38 C         -29.3177   -0.4260   28.1314 C.3     1  UNL1        0.0001
     39 C         -26.2651    1.2495   29.4278 C.3     1  UNL1        0.0910
     40 C         -21.8059    1.0140   28.1352 C.2     1  UNL1        0.0332
     41 F         -20.9704    1.9804   26.0780 F       1  UNL1       -0.2018
     42 N         -25.3223    0.0549   29.1605 N.pl3   1  UNL1       -0.3040
     43 C         -22.0025    1.4928   26.8320 C.2     1  UNL1        0.1675
@<TRIPOS>BOND
     1     1    42    1
     2     2     7    1
     3     2     1    1
     4     3     2    2
     5     4     3    1
     6     4     5    2
     7     5     6    1
     8     6     7    2
     9     8     1    1
    10     8     9    1
    11     8    12    1
    12     9    10    1
    13    10    11    1
    14    12    11    1
    15    13    35    1
    16    14    13    1
    17    14    15    1
    18    15    18    2
    19    16    17    1
    20    16    15    1
    21    19    14    2
    22    20    21    2
    23    20    19    1
    24    21    26    1
    25    22    21    1
    26    23    22    1
    27    24    23    1
    28    24    25    1
    29    26    27    1
    30    26    13    2
    31    29    39    1
    32    29    36    1
    33    30    43    2
    34    30    35    1
    35    31    28    1
    36    31    42    1
    37    32    38    1
    38    32    37    1
    39    33    29    1
    40    34    30    1
    41    35    31    2
    42    37    36    1
    43    38    33    1
    44    40    28    2
    45    41    43    1
    46    42    39    1
    47    43    40    1
