@<TRIPOS>MOLECULE
outputs/IAG933/test6/raw/output_2081_IAG933_linker_design_.xyz
 42 45 0 0 0
SMALL
GASTEIGER

@<TRIPOS>ATOM
      1 C         -24.8550   -1.0120   30.1430 C.3     1  UNL1        0.0406
      2 C         -24.9730   -2.5050   29.7880 C.2     1  UNL1       -0.0211
      3 C         -23.9060   -3.1730   29.1460 C.2     1  UNL1       -0.0042
      4 C         -23.9890   -4.5490   28.8530 C.2     1  UNL1       -0.0003
      5 C         -25.1370   -5.2800   29.2050 C.2     1  UNL1       -0.0000
      6 C         -26.2320   -4.6110   29.7840 C.2     1  UNL1       -0.0003
      7 C         -26.1550   -3.2320   30.0650 C.2     1  UNL1       -0.0042
      8 C         -25.3870   -0.6790   31.5710 C.3     1  UNL1        0.0769
      9 C         -25.1890    0.7730   32.0280 C.3     1  UNL1        0.0192
     10 C         -25.3360    0.6840   33.5440 C.3     1  UNL1        0.0202
     11 C         -24.8290   -0.7150   33.9050 C.3     1  UNL1        0.0887
     12 N         -24.7580   -1.4810   32.6460 N.3     1  UNL1       -0.2191
     13 C         -25.6880    1.6140   26.4610 C.3     1  UNL1        0.1290
     14 C         -26.2500    2.9200   26.3950 C.2     1  UNL1        0.0696
     15 C         -25.6420    4.0930   27.1230 C.2     1  UNL1        0.2637
     16 N         -25.6140    5.2520   26.4490 N.am    1  UNL1       -0.2000
     17 C         -25.0260    6.4790   26.9630 C.3     1  UNL1        0.1388
     18 O         -25.1430    3.9660   28.2430 O.2     1  UNL1       -0.2686
     19 C         -27.4380    3.0910   25.6450 C.2     1  UNL1        0.1035
     20 N         -28.0750    2.0890   25.0030 N.2     1  UNL1       -0.2118
     21 C         -27.5430    0.8490   25.0790 C.2     1  UNL1        0.2355
     22 O         -28.1930   -0.2080   24.4770 O.2     1  UNL1       -0.4585
     23 C         -29.4600    0.0050   23.8660 C.3     1  UNL1        0.2423
     24 C         -30.0650   -1.3770   23.5730 C.3     1  UNL1        0.2292
     25 O         -30.7290   -1.8780   24.7210 O.3     1  UNL1       -0.2162
     26 C         -26.3540    0.5760   25.7770 C.3     1  UNL1        0.2546
     27 F         -25.8600   -0.6810   25.7950 F       1  UNL1       -0.2254
     28 O         -21.1591    1.5211   27.7526 O.3     1  UNL1       -0.2217
     29 S         -26.8995    1.0038   28.9579 S.3     1  UNL1       -0.1126
     30 C         -22.5539    1.3625   28.1570 C.3     1  UNL1        0.1680
     31 C         -25.1795    0.7142   28.4874 C.3     1  UNL1        0.1072
     32 C         -22.8365    0.0666   28.9502 C.3     1  UNL1        0.0369
     33 O         -28.8003   -1.0307   29.2790 O.3     1  UNL1       -0.3248
     34 C         -23.4195    1.4482   26.9421 C.3     1  UNL1        0.1062
     35 C         -29.5903    0.0789   28.8653 C.3     1  UNL1        0.2865
     36 C         -24.3905   -0.1194   29.2404 C.3     1  UNL1        0.0330
     37 C         -28.8705   -1.1166   30.6313 C.3     1  UNL1        0.1770
     38 C         -28.9766    1.6614   30.4518 C.2     1  UNL1        0.2231
     39 O         -29.9122   -0.2878   27.5516 O.3     1  UNL1       -0.1885
     40 N         -24.7912    1.2430   27.3663 N.3     1  UNL1       -0.2578
     41 C         -28.7068    1.3049   28.9655 C.3     1  UNL1        0.1726
     42 O         -29.5398    1.5259   31.0995 O.2     1  UNL1       -0.2872
@<TRIPOS>BOND
     1     1     2    1
     2     2     7    1
     3     3     2    2
     4     4     3    1
     5     4     5    2
     6     5     6    1
     7     6     7    2
     8     8     1    1
     9     8     9    1
    10     8    12    1
    11     9    10    1
    12    10    11    1
    13    12    11    1
    14    13    14    1
    15    13    40    1
    16    14    15    1
    17    15    18    2
    18    16    17    1
    19    16    15    1
    20    19    14    2
    21    20    21    2
    22    20    19    1
    23    21    26    1
    24    22    21    1
    25    23    22    1
    26    24    23    1
    27    24    25    1
    28    26    27    1
    29    26    13    1
    30    29    41    1
    31    30    28    1
    32    30    32    1
    33    31    29    1
    34    31    36    1
    35    32    36    1
    36    33    37    1
    37    34    30    1
    38    35    39    1
    39    35    41    1
    40    35    33    1
    41    36     1    1
    42    38    42    2
    43    40    34    1
    44    40    31    1
    45    41    38    1
