@<TRIPOS>MOLECULE
outputs/IAG933/test6/raw/output_2083_IAG933_linker_design_.xyz
 44 47 0 0 0
SMALL
GASTEIGER

@<TRIPOS>ATOM
      1 C         -24.8550   -1.0120   30.1430 C.3     1  UNL1        0.0462
      2 C         -24.9730   -2.5050   29.7880 C.2     1  UNL1       -0.0207
      3 C         -23.9060   -3.1730   29.1460 C.2     1  UNL1       -0.0042
      4 C         -23.9890   -4.5490   28.8530 C.2     1  UNL1       -0.0003
      5 C         -25.1370   -5.2800   29.2050 C.2     1  UNL1       -0.0000
      6 C         -26.2320   -4.6110   29.7840 C.2     1  UNL1       -0.0003
      7 C         -26.1550   -3.2320   30.0650 C.2     1  UNL1       -0.0042
      8 C         -25.3870   -0.6790   31.5710 C.3     1  UNL1        0.1042
      9 C         -25.1890    0.7730   32.0280 C.3     1  UNL1        0.1332
     10 C         -25.3360    0.6840   33.5440 C.3     1  UNL1        0.0498
     11 C         -24.8290   -0.7150   33.9050 C.3     1  UNL1        0.0913
     12 N         -24.7580   -1.4810   32.6460 N.3     1  UNL1       -0.2166
     13 C         -25.6880    1.6140   26.4610 C.3     1  UNL1        0.1143
     14 C         -26.2500    2.9200   26.3950 C.2     1  UNL1        0.0586
     15 C         -25.6420    4.0930   27.1230 C.2     1  UNL1        0.2626
     16 N         -25.6140    5.2520   26.4490 N.am    1  UNL1       -0.2000
     17 C         -25.0260    6.4790   26.9630 C.3     1  UNL1        0.1388
     18 O         -25.1430    3.9660   28.2430 O.2     1  UNL1       -0.2687
     19 C         -27.4380    3.0910   25.6450 C.2     1  UNL1        0.1023
     20 N         -28.0750    2.0890   25.0030 N.2     1  UNL1       -0.2119
     21 C         -27.5430    0.8490   25.0790 C.2     1  UNL1        0.2342
     22 O         -28.1930   -0.2080   24.4770 O.2     1  UNL1       -0.4585
     23 C         -29.4600    0.0050   23.8660 C.3     1  UNL1        0.2423
     24 C         -30.0650   -1.3770   23.5730 C.3     1  UNL1        0.2292
     25 O         -30.7290   -1.8780   24.7210 O.3     1  UNL1       -0.2162
     26 C         -26.3540    0.5760   25.7770 C.3     1  UNL1        0.2438
     27 F         -25.8600   -0.6810   25.7950 F       1  UNL1       -0.2268
     28 C         -21.3645    1.4604   27.8079 C.3     1  UNL1        0.0505
     29 C         -27.1679    4.7789   31.0751 C.2     1  UNL1        0.0013
     30 C         -25.2002    6.9679   34.3621 C.3     1  UNL1        0.0344
     31 O         -24.6357    2.1056   31.7630 O.3     1  UNL1       -0.3513
     32 C         -25.8227    6.3115   33.1213 C.2     1  UNL1        0.0168
     33 CL        -22.8251    2.5112   25.8103 Cl      1  UNL1       -0.0822
     34 C         -27.1584    6.7012   32.7575 C.2     1  UNL1       -0.0011
     35 C         -25.8769    4.2870   31.4675 C.2     1  UNL1        0.0446
     36 N         -24.8232    1.3724   28.7238 N.3     1  UNL1       -0.1886
     37 C         -25.8194    1.7874   29.7378 C.3     1  UNL1        0.1253
     38 C         -25.3335    2.9108   30.8444 C.3     1  UNL1        0.1578
     39 C         -24.7297    1.0739   27.5015 C.3     1  UNL1        0.1980
     40 C         -27.7770    5.9682   31.6576 C.2     1  UNL1       -0.0004
     41 O         -23.8998    4.8264   32.7177 O.2     1  UNL1       -0.2872
     42 C         -25.1868    5.1228   32.4373 C.2     1  UNL1        0.1900
     43 O         -23.6108    0.3778   26.9550 O.3     1  UNL1       -0.3260
     44 C         -22.7638    1.6489   27.1611 C.3     1  UNL1        0.1956
@<TRIPOS>BOND
     1     2     7    1
     2     2     1    1
     3     3     2    2
     4     4     3    1
     5     4     5    2
     6     5     6    1
     7     6     7    2
     8     8     1    1
     9     8     9    1
    10     8    12    1
    11     9    31    1
    12     9    10    1
    13    10    11    1
    14    12    11    1
    15    13    39    1
    16    14    13    1
    17    14    15    1
    18    15    18    2
    19    16    17    1
    20    16    15    1
    21    19    14    2
    22    20    21    2
    23    20    19    1
    24    21    26    1
    25    22    21    1
    26    23    22    1
    27    24    23    1
    28    24    25    1
    29    26    27    1
    30    26    13    1
    31    29    35    2
    32    29    40    1
    33    32    30    1
    34    33    44    1
    35    34    32    1
    36    35    42    1
    37    36    37    1
    38    38    37    1
    39    38    35    1
    40    38    31    1
    41    39    43    1
    42    39    36    1
    43    40    34    2
    44    42    41    1
    45    42    32    2
    46    43    44    1
    47    44    28    1
