@<TRIPOS>MOLECULE
No_2086-gen_results/8p0m/2024-11-27-11-27-31/
 11 11 0 0 0
SMALL
GASTEIGER

@<TRIPOS>ATOM
      1 O         -28.1229   -1.3353   28.4874 O.2     1  UNL1       -0.2733
      2 C         -27.0637   -0.8242   28.8687 C.2     1  UNL1        0.2429
      3 C         -26.9592    0.0926   29.7582 C.3     1  UNL1        0.1034
      4 N         -25.8472   -1.5491   28.6589 N.am    1  UNL1       -0.2054
      5 C         -25.7222    0.7177   30.1925 C.3     1  UNL1        0.0130
      6 C         -24.5648   -1.0740   29.0510 C.3     1  UNL1        0.1152
      7 C         -24.5288    0.0511   29.8479 C.3     1  UNL1        0.0240
      8 C         -28.1893    0.8778   30.1322 C.3     1  UNL1        0.1476
      9 N         -28.9301    0.3852   30.9635 N.2     1  UNL1       -0.1925
     10 C         -30.1475    0.4329   31.0536 C.1     1  UNL1        0.2353
     11 O         -30.8778   -0.1078   31.9963 O.2     1  UNL1       -0.2102
@<TRIPOS>BOND
     1     1     2    2
     2     2     3    1
     3     2     4   am
     4     3     5    1
     5     5     7    1
     6     6     7    1
     7     3     8    1
     8     8     9    1
     9     9    10    2
    10    10    11    2
    11     6     4    1
