@<TRIPOS>MOLECULE
No_2088-gen_results/8p0m/2024-11-27-11-27-31/
 20 23 0 0 0
SMALL
GASTEIGER

@<TRIPOS>ATOM
      1 C         -28.0162   -0.8135   28.8779 C.ar    1  UNL1        0.0211
      2 C         -28.4690   -0.7850   29.8287 C.ar    1  UNL1        0.0810
      3 C         -26.5455   -0.8762   28.8500 C.ar    1  UNL1        0.0480
      4 C         -25.8041   -1.0324   30.0571 C.ar    1  UNL1       -0.0041
      5 C         -24.3697   -1.0998   30.0718 C.3     1  UNL1        0.0551
      6 C         -27.9902   -1.0051   31.2092 C.ar    1  UNL1        0.0063
      7 C         -26.5616   -1.1368   31.2600 C.ar    1  UNL1       -0.0025
      8 C         -23.6342   -0.7825   29.0667 C.ar    1  UNL1       -0.0044
      9 C         -22.1763   -0.6779   29.1657 C.ar    1  UNL1       -0.0027
     10 C         -21.4400   -0.1303   28.1207 C.ar    1  UNL1       -0.0006
     11 C         -22.1014    0.8766   27.3078 C.ar    1  UNL1       -0.0031
     12 C         -23.5471    0.9962   27.3643 C.ar    1  UNL1       -0.0088
     13 C         -24.2626    0.3021   28.2488 C.ar    1  UNL1        0.0438
     14 N         -25.7334   -0.2934   27.8598 N.pl3   1  UNL1       -0.2876
     15 C         -26.2058    0.1296   26.5958 C.3     1  UNL1        0.0959
     16 C         -25.8895    1.3828   26.1086 C.3     1  UNL1        0.0265
     17 C         -24.2138    1.7425   26.2285 C.3     1  UNL1        0.0294
     18 C         -30.0865   -0.7717   29.8683 C.2     1  UNL1        0.3878
     19 O         -30.7308   -1.5387   30.3495 O.co2   1  UNL1       -0.2406
     20 O         -30.5887    0.2089   29.1916 O.co2   1  UNL1       -0.2406
@<TRIPOS>BOND
     1     4     5    1
     2     3    14    1
     3    13    14    1
     4    14    15    1
     5    15    16    1
     6    12    17    1
     7     2    18    1
     8    18    19   ar
     9    18    20   ar
    10     5     8    1
    11    17    16    1
    12     1     2   ar
    13     2     6   ar
    14     6     7   ar
    15     7     4   ar
    16     4     3   ar
    17     3     1   ar
    18     8     9   ar
    19     9    10   ar
    20    10    11   ar
    21    11    12   ar
    22    12    13   ar
    23    13     8   ar
