@<TRIPOS>MOLECULE
No_2089-gen_results/8p0m/2024-11-27-11-27-31/
 12 12 0 0 0
SMALL
GASTEIGER

@<TRIPOS>ATOM
      1 C         -28.0162   -0.8135   28.8779 C.2     1  UNL1        0.0528
      2 C         -27.0636   -0.1190   28.6079 C.2     1  UNL1       -0.0297
      3 C         -25.7647   -0.3897   29.0360 C.3     1  UNL1        0.0237
      4 C         -24.5516    0.4058   28.7646 C.3     1  UNL1        0.0104
      5 C         -24.6957    1.4480   27.7988 C.3     1  UNL1        0.0440
      6 C         -25.9755    1.7250   27.3077 C.3     1  UNL1        0.0104
      7 C         -27.0718    1.0134   27.6535 C.3     1  UNL1        0.0237
      8 N         -29.1830   -0.1483   29.1167 N.pl3   1  UNL1       -0.3036
      9 C         -29.6123    0.1122   30.3365 C.3     1  UNL1        0.1123
     10 C         -30.0496    0.0287   28.0103 C.3     1  UNL1        0.1123
     11 C         -23.5067    2.2336   27.5317 C.2     1  UNL1        0.0953
     12 N         -22.5460    1.9768   27.3826 N.2     1  UNL1       -0.1514
@<TRIPOS>BOND
     1     1     2    2
     2     2     3    1
     3     3     4    1
     4     4     5    1
     5     5     6    1
     6     2     7    1
     7     6     7    1
     8     1     8    1
     9     8     9    1
    10     8    10    1
    11     5    11    1
    12    11    12    2
