@<TRIPOS>MOLECULE
No_2090-gen_results/8p0m/2024-11-27-11-27-31/
 13 14 0 0 0
SMALL
GASTEIGER

@<TRIPOS>ATOM
      1 C         -28.0162   -0.8135   28.8779 C.ar    1  UNL1        0.0296
      2 C         -27.0636   -0.1190   28.6079 C.ar    1  UNL1        0.0023
      3 C         -25.7647   -0.3897   29.0360 C.ar    1  UNL1        0.0001
      4 C         -25.5296   -1.5302   29.9014 C.ar    1  UNL1        0.0023
      5 C         -26.6577   -2.2915   30.2035 C.ar    1  UNL1        0.0296
      6 C         -27.8548   -1.9555   29.7630 C.ar    1  UNL1        0.1401
      7 C         -24.5349    0.4128   28.7431 C.ar    1  UNL1        0.0000
      8 C         -24.4835    1.2431   27.7398 C.ar    1  UNL1        0.0000
      9 C         -23.2788    1.9376   27.4159 C.ar    1  UNL1        0.0000
     10 C         -22.0791    1.6508   28.0213 C.ar    1  UNL1        0.0000
     11 C         -23.2748    0.1108   29.4386 C.ar    1  UNL1        0.0000
     12 C         -22.0811    0.7712   29.0650 C.ar    1  UNL1        0.0000
     13 F         -28.8959   -2.7209   30.1004 F       1  UNL1       -0.2042
@<TRIPOS>BOND
     1     3     7    1
     2     6    13    1
     3     7     8   ar
     4     8     9   ar
     5     9    10   ar
     6    10    12   ar
     7    12    11   ar
     8    11     7   ar
     9     1     2   ar
    10     2     3   ar
    11     3     4   ar
    12     4     5   ar
    13     5     6   ar
    14     6     1   ar
