@<TRIPOS>MOLECULE
No_2091-gen_results/8p0m/2024-11-27-11-27-31/
 19 20 0 0 0
SMALL
GASTEIGER

@<TRIPOS>ATOM
      1 C         -28.0162   -0.8135   28.8779 C.ar    1  UNL1        0.0063
      2 C         -28.4690   -0.7850   29.8287 C.ar    1  UNL1        0.0798
      3 C         -26.5042   -0.7777   28.8766 C.ar    1  UNL1       -0.0041
      4 C         -25.8103   -0.8531   30.1028 C.ar    1  UNL1       -0.0223
      5 C         -30.0136   -0.8410   29.8508 C.2     1  UNL1        0.3878
      6 C         -24.3668   -0.8189   30.1382 C.3     1  UNL1        0.0291
      7 C         -23.8230    0.5080   30.1227 C.3     1  UNL1        0.1071
      8 C         -22.6871    0.6589   29.2569 C.3     1  UNL1        0.0116
      9 C         -27.9139   -0.9590   31.2085 C.ar    1  UNL1        0.0063
     10 C         -26.5259   -0.9721   31.3017 C.ar    1  UNL1       -0.0041
     11 C         -21.9350   -0.4699   28.9246 C.3     1  UNL1        0.0006
     12 C         -22.5078   -1.7204   29.0166 C.3     1  UNL1        0.0004
     13 C         -23.7619   -1.7352   29.2007 C.3     1  UNL1        0.0046
     14 O         -30.5005   -0.3644   28.9225 O.co2   1  UNL1       -0.2406
     15 O         -30.7037   -0.9997   30.9695 O.co2   1  UNL1       -0.2406
     16 C         -23.9184   -1.3285   31.6475 C.3     1  UNL1        0.0049
     17 C         -24.3513    1.6816   30.8175 C.2     1  UNL1        0.3646
     18 O         -24.8403    2.6575   30.1853 O.co2   1  UNL1       -0.2457
     19 O         -24.2635    1.7548   32.1382 O.co2   1  UNL1       -0.2457
@<TRIPOS>BOND
     1     2     5    1
     2     4     6    1
     3     6     7    1
     4     8    11    1
     5     6    13    1
     6    12    13    1
     7     5    14   ar
     8     5    15   ar
     9     6    16    1
    10     7    17    1
    11    17    18   ar
    12    17    19   ar
    13     7     8    1
    14    11    12    1
    15     1     2   ar
    16     2     9   ar
    17     9    10   ar
    18    10     4   ar
    19     4     3   ar
    20     3     1   ar
