@<TRIPOS>MOLECULE
outputs/IAG933/test6/raw/output_2092_IAG933_linker_design_.xyz
 45 49 0 0 0
SMALL
GASTEIGER

@<TRIPOS>ATOM
      1 C         -24.8550   -1.0120   30.1430 C.3     1  UNL1        0.0572
      2 C         -24.9730   -2.5050   29.7880 C.2     1  UNL1       -0.0174
      3 C         -23.9060   -3.1730   29.1460 C.2     1  UNL1       -0.0039
      4 C         -23.9890   -4.5490   28.8530 C.2     1  UNL1       -0.0003
      5 C         -25.1370   -5.2800   29.2050 C.2     1  UNL1       -0.0000
      6 C         -26.2320   -4.6110   29.7840 C.2     1  UNL1       -0.0003
      7 C         -26.1550   -3.2320   30.0650 C.2     1  UNL1       -0.0039
      8 C         -25.3870   -0.6790   31.5710 C.3     1  UNL1        0.0806
      9 C         -25.1890    0.7730   32.0280 C.3     1  UNL1        0.0195
     10 C         -25.3360    0.6840   33.5440 C.3     1  UNL1        0.0203
     11 C         -24.8290   -0.7150   33.9050 C.3     1  UNL1        0.0887
     12 N         -24.7580   -1.4810   32.6460 N.3     1  UNL1       -0.2188
     13 C         -25.6880    1.6140   26.4610 C.3     1  UNL1        0.1288
     14 C         -26.2500    2.9200   26.3950 C.2     1  UNL1        0.0696
     15 C         -25.6420    4.0930   27.1230 C.2     1  UNL1        0.2637
     16 N         -25.6140    5.2520   26.4490 N.am    1  UNL1       -0.2000
     17 C         -25.0260    6.4790   26.9630 C.3     1  UNL1        0.1388
     18 O         -25.1430    3.9660   28.2430 O.2     1  UNL1       -0.2686
     19 C         -27.4380    3.0910   25.6450 C.2     1  UNL1        0.1035
     20 N         -28.0750    2.0890   25.0030 N.2     1  UNL1       -0.2118
     21 C         -27.5430    0.8490   25.0790 C.2     1  UNL1        0.2355
     22 O         -28.1930   -0.2080   24.4770 O.2     1  UNL1       -0.4585
     23 C         -29.4600    0.0050   23.8660 C.3     1  UNL1        0.2423
     24 C         -30.0650   -1.3770   23.5730 C.3     1  UNL1        0.2292
     25 O         -30.7290   -1.8780   24.7210 O.3     1  UNL1       -0.2162
     26 C         -26.3540    0.5760   25.7770 C.3     1  UNL1        0.2546
     27 F         -25.8600   -0.6810   25.7950 F       1  UNL1       -0.2254
     28 C         -27.4410   -0.0266   28.1362 C.3     1  UNL1        0.1054
     29 C         -24.9732   -0.0943   29.1268 C.2     1  UNL1       -0.0306
     30 C         -22.2597    0.1858   29.3723 C.3     1  UNL1        0.0484
     31 C         -21.0568    0.6853   28.4733 C.2     1  UNL1       -0.0262
     32 C         -23.6556    0.9799   27.4819 C.3     1  UNL1        0.0808
     33 C         -30.4985    1.0609   30.3225 C.3     1  UNL1        0.1163
     34 C         -28.4233    0.2999   29.2913 C.2     1  UNL1        0.2292
     35 O         -27.8474    0.9546   30.2845 O.2     1  UNL1       -0.2747
     36 N         -29.6648    0.1191   29.4832 N.am    1  UNL1       -0.2501
     37 C         -25.9444    0.2725   28.3513 C.3     1  UNL1        0.0856
     38 C         -30.2720   -1.2481   29.3001 C.3     1  UNL1        0.2803
     39 N         -25.0048    1.2636   27.5579 N.3     1  UNL1       -0.2625
     40 O         -29.4513   -2.2489   29.7234 O.3     1  UNL1       -0.1958
     41 C         -21.3804    1.6656   27.3958 C.2     1  UNL1       -0.0286
     42 C         -31.8277    1.3524   29.6304 C.3     1  UNL1        0.1308
     43 C         -23.5627    0.4348   28.5778 C.2     1  UNL1       -0.0315
     44 N         -32.9389    1.2910   30.6376 N.3     1  UNL1       -0.1295
     45 C         -22.6668    2.0955   27.1107 C.3     1  UNL1        0.0458
@<TRIPOS>BOND
     1     1    29    1
     2     2     7    1
     3     2     1    1
     4     3     2    2
     5     4     3    1
     6     4     5    2
     7     5     6    1
     8     6     7    2
     9     8     1    1
    10     8     9    1
    11     8    12    1
    12     9    10    1
    13    10    11    1
    14    12    11    1
    15    13    14    1
    16    14    15    1
    17    15    18    2
    18    16    17    1
    19    16    15    1
    20    19    14    2
    21    20    21    2
    22    20    19    1
    23    21    26    1
    24    22    21    1
    25    23    22    1
    26    24    23    1
    27    24    25    1
    28    26    27    1
    29    26    13    1
    30    28    34    1
    31    31    30    1
    32    32    45    1
    33    32    39    1
    34    32    43    1
    35    34    36   am
    36    34    35    2
    37    36    33    1
    38    37    28    1
    39    37    29    1
    40    38    36    1
    41    38    40    1
    42    39    13    1
    43    39    37    1
    44    41    31    2
    45    42    33    1
    46    42    44    1
    47    43    29    2
    48    43    30    1
    49    45    41    1
