@<TRIPOS>MOLECULE
No_2093-gen_results/8p0m/2024-11-27-11-27-31/
 16 18 0 0 0
SMALL
GASTEIGER

@<TRIPOS>ATOM
      1 C         -28.0162   -0.8135   28.8779 C.ar    1  UNL1       -0.0040
      2 C         -28.4690   -0.7850   29.8287 C.ar    1  UNL1       -0.0003
      3 C         -27.1356    0.2359   28.5352 C.ar    1  UNL1       -0.0183
      4 C         -26.8745    1.2825   29.3982 C.ar    1  UNL1       -0.0040
      5 C         -27.5070    1.2380   30.6295 C.ar    1  UNL1       -0.0003
      6 C         -28.3269    0.1637   30.9240 C.ar    1  UNL1       -0.0000
      7 C         -26.4110    0.3070   27.2192 C.3     1  UNL1        0.0476
      8 C         -25.0121    0.3340   27.3197 C.ar    1  UNL1       -0.0035
      9 C         -27.0431    0.3567   25.9990 C.3     1  UNL1        0.0321
     10 C         -26.2715    0.2663   24.8487 C.3     1  UNL1        0.1129
     11 C         -24.3072    0.1881   28.5707 C.ar    1  UNL1       -0.0027
     12 C         -22.9558    0.4914   28.5436 C.ar    1  UNL1       -0.0002
     13 C         -22.3848    1.2850   27.5148 C.ar    1  UNL1        0.0013
     14 C         -23.1558    1.7000   26.4577 C.ar    1  UNL1        0.0158
     15 C         -24.4551    1.2635   26.3461 C.ar    1  UNL1        0.0616
     16 N         -24.8305    0.8702   24.9260 N.pl3   1  UNL1       -0.2379
@<TRIPOS>BOND
     1     3     7    1
     2     7     8    1
     3     7     9    1
     4     9    10    1
     5    10    16    1
     6    15    16    1
     7     1     2   ar
     8     2     6   ar
     9     6     5   ar
    10     5     4   ar
    11     4     3   ar
    12     3     1   ar
    13     8    11   ar
    14    11    12   ar
    15    12    13   ar
    16    13    14   ar
    17    14    15   ar
    18    15     8   ar
