@<TRIPOS>MOLECULE
outputs/IAG933/test6/raw/output_2094_IAG933_linker_design_.xyz
 41 45 0 0 0
SMALL
GASTEIGER

@<TRIPOS>ATOM
      1 C         -24.8550   -1.0120   30.1430 C.3     1  UNL1        0.0630
      2 C         -24.9730   -2.5050   29.7880 C.2     1  UNL1       -0.0191
      3 C         -23.9060   -3.1730   29.1460 C.2     1  UNL1       -0.0042
      4 C         -23.9890   -4.5490   28.8530 C.2     1  UNL1       -0.0003
      5 C         -25.1370   -5.2800   29.2050 C.2     1  UNL1       -0.0000
      6 C         -26.2320   -4.6110   29.7840 C.2     1  UNL1       -0.0003
      7 C         -26.1550   -3.2320   30.0650 C.2     1  UNL1       -0.0042
      8 C         -25.3870   -0.6790   31.5710 C.3     1  UNL1        0.0874
      9 C         -25.1890    0.7730   32.0280 C.3     1  UNL1        0.0960
     10 C         -25.3360    0.6840   33.5440 C.3     1  UNL1        0.0294
     11 C         -24.8290   -0.7150   33.9050 C.3     1  UNL1        0.0892
     12 N         -24.7580   -1.4810   32.6460 N.3     1  UNL1       -0.2186
     13 C         -25.6880    1.6140   26.4610 C.2     1  UNL1        0.0919
     14 C         -26.2500    2.9200   26.3950 C.2     1  UNL1        0.0714
     15 C         -25.6420    4.0930   27.1230 C.2     1  UNL1        0.2638
     16 N         -25.6140    5.2520   26.4490 N.am    1  UNL1       -0.2000
     17 C         -25.0260    6.4790   26.9630 C.3     1  UNL1        0.1388
     18 O         -25.1430    3.9660   28.2430 O.2     1  UNL1       -0.2686
     19 C         -27.4380    3.0910   25.6450 C.3     1  UNL1        0.1604
     20 N         -28.0750    2.0890   25.0030 N.2     1  UNL1       -0.2340
     21 C         -27.5430    0.8490   25.0790 C.2     1  UNL1        0.2355
     22 O         -28.1930   -0.2080   24.4770 O.2     1  UNL1       -0.4585
     23 C         -29.4600    0.0050   23.8660 C.3     1  UNL1        0.2423
     24 C         -30.0650   -1.3770   23.5730 C.3     1  UNL1        0.2292
     25 O         -30.7290   -1.8780   24.7210 O.3     1  UNL1       -0.2162
     26 C         -26.3540    0.5760   25.7770 C.3     1  UNL1        0.2726
     27 F         -25.8600   -0.6810   25.7950 F       1  UNL1       -0.2209
     28 C         -21.0737    0.5041   28.3302 C.2     1  UNL1        0.0077
     29 N         -24.8333    1.4514   27.3865 N.pl3   1  UNL1       -0.2116
     30 O         -24.4351    2.9538   31.3721 O.2     1  UNL1       -0.2733
     31 C         -24.5888    0.0670   29.4969 C.3     1  UNL1        0.1241
     32 C         -23.4636    0.3488   28.7602 C.2     1  UNL1        0.0151
     33 C         -23.6786    1.0986   27.6014 C.2     1  UNL1        0.0974
     34 C         -22.0916    0.0734   29.1297 C.2     1  UNL1       -0.0032
     35 C         -24.9712    1.8444   31.0064 C.2     1  UNL1        0.2426
     36 F         -23.0888    2.3258   25.7429 F       1  UNL1       -0.2004
     37 C         -22.7256    1.5987   26.7997 C.2     1  UNL1        0.1819
     38 C         -19.8982    0.0119   28.6047 C.3     1  UNL1        0.0334
     39 N         -25.2616    1.2982   29.7639 N.am    1  UNL1       -0.2022
     40 C         -21.4094    1.3772   27.2176 C.2     1  UNL1        0.1647
     41 F         -20.5076    2.0085   26.5434 F       1  UNL1       -0.2021
@<TRIPOS>BOND
     1     1     2    1
     2     1     8    1
     3     2     7    1
     4     3     2    2
     5     4     3    1
     6     4     5    2
     7     5     6    1
     8     6     7    2
     9     8     9    1
    10     8    12    1
    11     9    10    1
    12    10    11    1
    13    12    11    1
    14    13    29    1
    15    14    13    2
    16    14    15    1
    17    15    18    2
    18    16    17    1
    19    16    15    1
    20    19    14    1
    21    20    21    2
    22    20    19    1
    23    21    26    1
    24    22    21    1
    25    23    22    1
    26    24    23    1
    27    24    25    1
    28    26    27    1
    29    26    13    1
    30    28    38    1
    31    28    34    1
    32    29    33    1
    33    31    32    1
    34    31    39    1
    35    31     1    1
    36    32    34    2
    37    33    32    1
    38    35    30    2
    39    35     9    1
    40    36    37    1
    41    37    40    1
    42    37    33    2
    43    39    35    1
    44    40    28    2
    45    41    40    1
