@<TRIPOS>MOLECULE
No_2095-gen_results/8p0m/2024-11-27-11-27-31/
 35 38 0 0 0
SMALL
GASTEIGER

@<TRIPOS>ATOM
      1 C         -28.0162   -0.8135   28.8779 C.ar    1  UNL1        0.0665
      2 C         -27.0636   -0.1189   28.6079 C.ar    1  UNL1        0.1431
      3 C         -25.7647   -0.3897   29.0360 C.ar    1  UNL1        0.0278
      4 C         -25.5296   -1.5302   29.9014 C.ar    1  UNL1        0.0053
      5 C         -26.6888   -2.2893   30.1810 C.ar    1  UNL1        0.0371
      6 C         -27.8727   -1.9508   29.7373 C.ar    1  UNL1        0.1412
      7 O         -28.9304   -2.7298   30.1154 O.3     1  UNL1       -0.4723
      8 C         -24.5394    0.4211   28.7421 C.ar    1  UNL1        0.0064
      9 C         -24.5259    1.2743   27.7265 C.ar    1  UNL1        0.0333
     10 C         -25.5567    1.6073   26.8963 C.ar    1  UNL1       -0.0020
     11 C         -23.1685    1.9096   27.4273 C.ar    1  UNL1        0.1620
     12 N         -23.0446    2.5227   26.2281 N.ar    1  UNL1       -0.2251
     13 N         -22.0734    1.6239   28.1146 N.ar    1  UNL1       -0.2251
     14 C         -25.4315    2.4112   25.7676 C.ar    1  UNL1        0.0179
     15 C         -24.1163    2.9273   25.5186 C.ar    1  UNL1        0.1003
     16 C         -23.3244    0.1704   29.5159 C.ar    1  UNL1        0.0208
     17 C         -22.1126    0.8478   29.1381 C.ar    1  UNL1        0.1006
     18 C         -29.3521   -2.6713   31.4302 C.3     1  UNL1        0.2162
     19 C         -29.7717   -3.9476   31.8747 C.3     1  UNL1        0.1919
     20 BR        -31.2061   -3.9712   32.5047 Br      1  UNL1       -0.0564
     21 N         -29.6356   -5.0049   30.8597 N.3     1  UNL1       -0.1162
     22 C         -29.3024   -1.5453   32.2057 C.ar    1  UNL1        0.0195
     23 C         -30.3755   -0.6855   32.1988 C.ar    1  UNL1       -0.0005
     24 C         -30.0895    0.4913   32.4876 C.ar    1  UNL1        0.0064
     25 C         -28.1404   -1.1414   32.9206 C.ar    1  UNL1       -0.0005
     26 C         -27.9020    0.0529   33.4716 C.ar    1  UNL1        0.0064
     27 C         -29.0049    0.9982   33.3052 C.ar    1  UNL1        0.0798
     28 C         -28.8459    2.3623   33.7999 C.2     1  UNL1        0.3878
     29 O         -28.8350    2.5932   34.9305 O.co2   1  UNL1       -0.2406
     30 O         -28.3558    3.2197   32.9083 O.co2   1  UNL1       -0.2406
     31 F         -27.1679    0.8977   27.7303 F       1  UNL1       -0.2041
     32 C         -26.1851    0.6414   26.2478 C.3     1  UNL1        0.0952
     33 N         -25.8622   -0.5418   26.1910 N.3     1  UNL1       -0.2135
     34 C         -27.2699    0.8881   25.2270 C.3     1  UNL1        0.0236
     35 C         -25.4048    0.1076   25.3202 C.3     1  UNL1        0.1078
@<TRIPOS>BOND
     1     6     7    1
     2     3     8    1
     3     7    18    1
     4    18    19    1
     5    19    20    1
     6    19    21    1
     7    18    22    1
     8    27    28    1
     9    28    29   ar
    10    28    30   ar
    11     2    31    1
    12    10    32    1
    13    32    33    1
    14    32    34    1
    15    33    35    1
    16     8     9   ar
    17    11    13   ar
    18    13    17   ar
    19    17    16   ar
    20    16     8   ar
    21     1     2   ar
    22     2     3   ar
    23     3     4   ar
    24     4     5   ar
    25     5     6   ar
    26     6     1   ar
    27     9    10   ar
    28    10    14   ar
    29    14    15   ar
    30    15    12   ar
    31    12    11   ar
    32    11     9   ar
    33    22    23   ar
    34    23    24   ar
    35    24    27   ar
    36    27    26   ar
    37    26    25   ar
    38    25    22   ar
