@<TRIPOS>MOLECULE
outputs/IAG933/test6/raw/output_2096_IAG933_linker_design_.xyz
 43 47 0 0 0
SMALL
GASTEIGER

@<TRIPOS>ATOM
      1 C         -24.8550   -1.0120   30.1430 C.3     1  UNL1        0.0582
      2 C         -24.9730   -2.5050   29.7880 C.2     1  UNL1       -0.0197
      3 C         -23.9060   -3.1730   29.1460 C.2     1  UNL1       -0.0042
      4 C         -23.9890   -4.5490   28.8530 C.2     1  UNL1       -0.0003
      5 C         -25.1370   -5.2800   29.2050 C.2     1  UNL1       -0.0000
      6 C         -26.2320   -4.6110   29.7840 C.2     1  UNL1       -0.0003
      7 C         -26.1550   -3.2320   30.0650 C.2     1  UNL1       -0.0042
      8 C         -25.3870   -0.6790   31.5710 C.3     1  UNL1        0.0783
      9 C         -25.1890    0.7730   32.0280 C.3     1  UNL1        0.0192
     10 C         -25.3360    0.6840   33.5440 C.3     1  UNL1        0.0202
     11 C         -24.8290   -0.7150   33.9050 C.3     1  UNL1        0.0887
     12 N         -24.7580   -1.4810   32.6460 N.3     1  UNL1       -0.2191
     13 C         -25.6880    1.6140   26.4610 C.2     1  UNL1        0.0375
     14 C         -26.2500    2.9200   26.3950 C.2     1  UNL1        0.0763
     15 C         -25.6420    4.0930   27.1230 C.2     1  UNL1        0.2664
     16 N         -25.6140    5.2520   26.4490 N.am    1  UNL1       -0.1997
     17 C         -25.0260    6.4790   26.9630 C.3     1  UNL1        0.1388
     18 O         -25.1430    3.9660   28.2430 O.2     1  UNL1       -0.2683
     19 C         -27.4380    3.0910   25.6450 C.2     1  UNL1        0.1067
     20 N         -28.0750    2.0890   25.0030 N.2     1  UNL1       -0.2081
     21 C         -27.5430    0.8490   25.0790 C.2     1  UNL1        0.2533
     22 O         -28.1930   -0.2080   24.4770 O.2     1  UNL1       -0.4558
     23 C         -29.4600    0.0050   23.8660 C.3     1  UNL1        0.2426
     24 C         -30.0650   -1.3770   23.5730 C.3     1  UNL1        0.2292
     25 O         -30.7290   -1.8780   24.7210 O.3     1  UNL1       -0.2162
     26 C         -26.3540    0.5760   25.7770 C.2     1  UNL1        0.1929
     27 F         -25.8600   -0.6810   25.7950 F       1  UNL1       -0.1992
     28 C         -21.8279    1.6587   26.7626 C.2     1  UNL1        0.0399
     29 C         -29.8745    0.5039   28.4433 C.2     1  UNL1        0.2513
     30 C         -28.7150    0.6239   28.9593 C.3     1  UNL1        0.1281
     31 O         -29.6150    2.5966   28.8883 O.3     1  UNL1       -0.2624
     32 C         -28.3538    1.9978   29.0694 C.3     1  UNL1        0.1819
     33 C         -24.2984    1.3490   27.0106 C.2     1  UNL1        0.0212
     34 C         -23.1597    1.8601   26.2894 C.2     1  UNL1        0.0025
     35 O         -30.1876   -0.2795   27.4686 O.2     1  UNL1       -0.2727
     36 C         -24.0096    0.6524   28.2554 C.3     1  UNL1        0.2045
     37 O         -22.6952    0.4598   28.7084 O.2     1  UNL1       -0.4702
     38 N         -30.5557    1.6107   29.1310 N.am    1  UNL1       -0.1663
     39 C         -21.6291    0.8616   27.9059 C.2     1  UNL1        0.1726
     40 C         -27.6759   -0.3739   29.1960 C.3     1  UNL1        0.1006
     41 C         -25.1185    0.1711   29.1770 C.3     1  UNL1        0.1223
     42 C         -31.6126    2.0680   30.0744 C.3     1  UNL1        0.1481
     43 N         -26.3817   -0.1717   28.4496 N.3     1  UNL1       -0.2145
@<TRIPOS>BOND
     1     1    41    1
     2     2     7    1
     3     2     1    1
     4     3     2    2
     5     4     3    1
     6     4     5    2
     7     5     6    1
     8     6     7    2
     9     8     1    1
    10     8     9    1
    11     8    12    1
    12     9    10    1
    13    10    11    1
    14    12    11    1
    15    13    33    1
    16    14    13    1
    17    14    15    1
    18    15    18    2
    19    16    17    1
    20    16    15    1
    21    19    14    2
    22    20    21    2
    23    20    19    1
    24    21    26    1
    25    22    21    1
    26    23    22    1
    27    24    23    1
    28    24    25    1
    29    26    27    1
    30    26    13    2
    31    28    39    2
    32    29    30    1
    33    29    38   am
    34    30    32    1
    35    30    40    1
    36    31    32    1
    37    31    38    1
    38    33    36    1
    39    34    28    1
    40    34    33    2
    41    35    29    2
    42    36    37    1
    43    36    41    1
    44    38    42    1
    45    39    37    1
    46    41    43    1
    47    43    40    1
