@<TRIPOS>MOLECULE
No_2100-gen_results/8p0m/2024-11-27-11-27-31/
 10 10 0 0 0
SMALL
GASTEIGER

@<TRIPOS>ATOM
      1 C         -28.0162   -0.8135   28.8779 C.ar    1  UNL1       -0.0001
      2 C         -27.0636   -0.1189   28.6079 C.ar    1  UNL1       -0.0000
      3 C         -26.9716    0.7139   27.5060 C.ar    1  UNL1       -0.0001
      4 C         -28.1053    0.7744   26.6421 C.ar    1  UNL1        0.0039
      5 C         -29.2008    0.1044   27.0527 C.ar    1  UNL1        0.0714
      6 C         -29.2096   -0.6029   28.1853 C.ar    1  UNL1        0.0039
      7 C         -30.2851    0.2916   26.0027 C.3     1  UNL1        0.4186
      8 F         -30.0444    0.4108   24.9090 F       1  UNL1       -0.1659
      9 F         -31.0389   -0.9140   26.1761 F       1  UNL1       -0.1659
     10 F         -31.1262    1.2790   26.4127 F       1  UNL1       -0.1659
@<TRIPOS>BOND
     1     5     7    1
     2     7     8    1
     3     7     9    1
     4     7    10    1
     5     1     2   ar
     6     2     3   ar
     7     3     4   ar
     8     4     5   ar
     9     5     6   ar
    10     6     1   ar
