@<TRIPOS>MOLECULE
outputs/IAG933/test6/raw/output_2103_IAG933_linker_design_.xyz
 44 48 0 0 0
SMALL
GASTEIGER

@<TRIPOS>ATOM
      1 C         -24.8550   -1.0120   30.1430 C.3     1  UNL1        0.1289
      2 C         -24.9730   -2.5050   29.7880 C.2     1  UNL1       -0.0040
      3 C         -23.9060   -3.1730   29.1460 C.2     1  UNL1       -0.0029
      4 C         -23.9890   -4.5490   28.8530 C.2     1  UNL1       -0.0003
      5 C         -25.1370   -5.2800   29.2050 C.2     1  UNL1       -0.0000
      6 C         -26.2320   -4.6110   29.7840 C.2     1  UNL1       -0.0003
      7 C         -26.1550   -3.2320   30.0650 C.2     1  UNL1       -0.0029
      8 C         -25.3870   -0.6790   31.5710 C.3     1  UNL1        0.0941
      9 C         -25.1890    0.7730   32.0280 C.3     1  UNL1        0.0207
     10 C         -25.3360    0.6840   33.5440 C.3     1  UNL1        0.0203
     11 C         -24.8290   -0.7150   33.9050 C.3     1  UNL1        0.0888
     12 N         -24.7580   -1.4810   32.6460 N.3     1  UNL1       -0.2177
     13 C         -25.6880    1.6140   26.4610 C.2     1  UNL1        0.1243
     14 C         -26.2500    2.9200   26.3950 C.2     1  UNL1        0.0838
     15 C         -25.6420    4.0930   27.1230 C.2     1  UNL1        0.2667
     16 N         -25.6140    5.2520   26.4490 N.am    1  UNL1       -0.1997
     17 C         -25.0260    6.4790   26.9630 C.3     1  UNL1        0.1388
     18 O         -25.1430    3.9660   28.2430 O.2     1  UNL1       -0.2683
     19 C         -27.4380    3.0910   25.6450 C.2     1  UNL1        0.1070
     20 N         -28.0750    2.0890   25.0030 N.2     1  UNL1       -0.2081
     21 C         -27.5430    0.8490   25.0790 C.2     1  UNL1        0.2535
     22 O         -28.1930   -0.2080   24.4770 O.2     1  UNL1       -0.4558
     23 C         -29.4600    0.0050   23.8660 C.3     1  UNL1        0.2426
     24 C         -30.0650   -1.3770   23.5730 C.3     1  UNL1        0.2292
     25 O         -30.7290   -1.8780   24.7210 O.3     1  UNL1       -0.2162
     26 C         -26.3540    0.5760   25.7770 C.2     1  UNL1        0.2003
     27 F         -25.8600   -0.6810   25.7950 F       1  UNL1       -0.1990
     28 C         -25.0045    2.3503   29.7636 C.3     1  UNL1        0.2331
     29 O         -22.8774    0.0982   29.8800 O.3     1  UNL1       -0.2184
     30 C         -27.3285    3.0917   30.6106 C.2     1  UNL1       -0.0003
     31 C         -26.1379    7.1935   30.8483 C.3     1  UNL1        0.0310
     32 C         -22.0560    1.2115   27.6270 C.2     1  UNL1        0.3642
     33 C         -24.5055    1.6048   27.1426 C.2     1  UNL1        0.3755
     34 N         -23.8232   -0.2180   29.5753 N.3     1  UNL1       -0.0898
     35 N         -23.4934    1.7893   26.3424 N.2     1  UNL1        0.1618
     36 N         -24.3776    1.5381   28.5045 N.pl3   1  UNL1       -0.1448
     37 N         -20.9746    0.6909   27.8904 N.2     1  UNL1       -0.0976
     38 C         -25.6927    4.8409   30.1977 C.2     1  UNL1       -0.0045
     39 C         -28.1704    4.0172   31.2249 C.2     1  UNL1       -0.0005
     40 C         -26.5634    5.7372   30.8089 C.2     1  UNL1       -0.0220
     41 O         -22.3345    1.8603   26.5091 O.2     1  UNL1       -0.2278
     42 C         -27.7876    5.3386   31.3133 C.2     1  UNL1       -0.0043
     43 C         -26.0521    3.4677   30.1480 C.2     1  UNL1        0.0241
     44 C         -23.4855    0.5564   29.0515 C.3     1  UNL1        0.3964
@<TRIPOS>BOND
     1     1     2    1
     2     2     7    1
     3     3     2    2
     4     4     3    1
     5     4     5    2
     6     5     6    1
     7     6     7    2
     8     8     1    1
     9     8     9    1
    10     8    12    1
    11     9    10    1
    12    10    11    1
    13    12    11    1
    14    13    33    1
    15    14    13    1
    16    14    15    1
    17    15    18    2
    18    16    17    1
    19    16    15    1
    20    19    14    2
    21    20    21    2
    22    20    19    1
    23    21    26    1
    24    22    21    1
    25    23    22    1
    26    24    23    1
    27    24    25    1
    28    26    27    1
    29    26    13    2
    30    28    43    1
    31    30    39    1
    32    32    37    2
    33    33    36    1
    34    34    29    1
    35    34     1    1
    36    35    41    1
    37    35    33    2
    38    36    28    1
    39    38    40    2
    40    39    42    2
    41    40    31    1
    42    40    42    1
    43    41    32    1
    44    43    38    1
    45    43    30    2
    46    44    36    1
    47    44    34    1
    48    44    29    1
