@<TRIPOS>MOLECULE
outputs/IAG933/test6/raw/output_2105_IAG933_linker_design_.xyz
 42 46 0 0 0
SMALL
GASTEIGER

@<TRIPOS>ATOM
      1 C         -24.8550   -1.0120   30.1430 C.3     1  UNL1        0.1121
      2 C         -24.9730   -2.5050   29.7880 C.2     1  UNL1       -0.0051
      3 C         -23.9060   -3.1730   29.1460 C.2     1  UNL1       -0.0029
      4 C         -23.9890   -4.5490   28.8530 C.2     1  UNL1       -0.0003
      5 C         -25.1370   -5.2800   29.2050 C.2     1  UNL1       -0.0000
      6 C         -26.2320   -4.6110   29.7840 C.2     1  UNL1       -0.0003
      7 C         -26.1550   -3.2320   30.0650 C.2     1  UNL1       -0.0029
      8 C         -25.3870   -0.6790   31.5710 C.3     1  UNL1        0.0929
      9 C         -25.1890    0.7730   32.0280 C.3     1  UNL1        0.0192
     10 C         -25.3360    0.6840   33.5440 C.3     1  UNL1        0.0202
     11 C         -24.8290   -0.7150   33.9050 C.3     1  UNL1        0.0888
     12 N         -24.7580   -1.4810   32.6460 N.3     1  UNL1       -0.2177
     13 C         -25.6880    1.6140   26.4610 C.3     1  UNL1        0.0716
     14 C         -26.2500    2.9200   26.3950 C.2     1  UNL1        0.0548
     15 C         -25.6420    4.0930   27.1230 C.2     1  UNL1        0.2624
     16 N         -25.6140    5.2520   26.4490 N.am    1  UNL1       -0.2000
     17 C         -25.0260    6.4790   26.9630 C.3     1  UNL1        0.1388
     18 O         -25.1430    3.9660   28.2430 O.2     1  UNL1       -0.2687
     19 C         -27.4380    3.0910   25.6450 C.2     1  UNL1        0.1021
     20 N         -28.0750    2.0890   25.0030 N.2     1  UNL1       -0.2119
     21 C         -27.5430    0.8490   25.0790 C.2     1  UNL1        0.2341
     22 O         -28.1930   -0.2080   24.4770 O.2     1  UNL1       -0.4585
     23 C         -29.4600    0.0050   23.8660 C.3     1  UNL1        0.2423
     24 C         -30.0650   -1.3770   23.5730 C.3     1  UNL1        0.2292
     25 O         -30.7290   -1.8780   24.7210 O.3     1  UNL1       -0.2162
     26 C         -26.3540    0.5760   25.7770 C.3     1  UNL1        0.2400
     27 F         -25.8600   -0.6810   25.7950 F       1  UNL1       -0.2269
     28 C         -23.1463    2.0897   26.2603 C.3     1  UNL1        0.0372
     29 C         -25.2868    1.8289   30.8857 C.3     1  UNL1        0.0021
     30 C         -24.8375    3.2697   31.1783 C.3     1  UNL1        0.0118
     31 F         -20.8595    1.9539   26.5911 F       1  UNL1       -0.2372
     32 N         -23.7196   -0.3096   29.5487 N.3     1  UNL1       -0.1997
     33 C         -25.0263    5.5173   32.4066 C.2     1  UNL1        0.3649
     34 C         -22.5303    0.9797   28.1610 C.3     1  UNL1        0.0676
     35 N         -24.2773   -0.2682   28.2820 N.3     1  UNL1       -0.1479
     36 C         -23.8717    0.6675   27.7238 C.3     1  UNL1        0.0949
     37 C         -22.4578    0.3349   29.4506 C.3     1  UNL1        0.0946
     38 C         -22.0906    1.7237   27.0388 C.3     1  UNL1        0.1637
     39 C         -24.2868    1.4945   26.8058 C.3     1  UNL1        0.0278
     40 C         -25.5743    4.1254   32.2235 C.3     1  UNL1        0.1141
     41 O         -25.4655    6.4718   31.7736 O.co2   1  UNL1       -0.2457
     42 O         -24.1451    5.7007   33.2186 O.co2   1  UNL1       -0.2457
@<TRIPOS>BOND
     1     1     2    1
     2     2     7    1
     3     3     2    2
     4     4     3    1
     5     4     5    2
     6     5     6    1
     7     6     7    2
     8     8     1    1
     9     8     9    1
    10     8    12    1
    11     9    29    1
    12     9    10    1
    13    10    11    1
    14    12    11    1
    15    13    14    1
    16    13    39    1
    17    14    15    1
    18    15    18    2
    19    16    17    1
    20    16    15    1
    21    19    14    2
    22    20    21    2
    23    20    19    1
    24    21    26    1
    25    22    21    1
    26    23    22    1
    27    24    23    1
    28    24    25    1
    29    26    27    1
    30    26    13    1
    31    28    38    1
    32    29    30    1
    33    30    40    1
    34    32     1    1
    35    33    42   ar
    36    34    37    1
    37    35    32    1
    38    36    34    1
    39    36    35    1
    40    37    32    1
    41    38    31    1
    42    38    34    1
    43    39    28    1
    44    39    36    1
    45    40    33    1
    46    41    33   ar
