@<TRIPOS>MOLECULE
No_2107-gen_results/8p0m/2024-11-27-11-27-31/
 26 27 0 0 0
SMALL
GASTEIGER

@<TRIPOS>ATOM
      1 O         -28.1229   -1.3353   28.4874 O.2     1  UNL1       -0.2741
      2 C         -28.5208   -0.4363   29.0779 C.2     1  UNL1        0.2362
      3 C         -27.6655    0.1129   30.0346 C.3     1  UNL1        0.1120
      4 N         -29.5662    0.3302   28.6099 N.am    1  UNL1       -0.2184
      5 C         -26.4276    0.0638   30.0544 C.ar    1  UNL1       -0.0131
      6 C         -30.3150   -0.1868   27.5796 C.2     1  UNL1        0.3270
      7 C         -25.7074   -0.8284   30.1373 C.ar    1  UNL1       -0.0036
      8 C         -24.2772   -0.9380   29.9387 C.ar    1  UNL1        0.0063
      9 C         -23.6057    0.2834   29.8079 C.ar    1  UNL1        0.0798
     10 C         -22.2027    0.3974   29.6563 C.2     1  UNL1        0.3878
     11 C         -24.3761    1.5303   29.8409 C.ar    1  UNL1        0.0063
     12 C         -25.7312    1.3939   29.9951 C.ar    1  UNL1       -0.0036
     13 O         -21.7612    1.4425   29.1507 O.co2   1  UNL1       -0.2406
     14 O         -21.4498   -0.6224   29.8016 O.co2   1  UNL1       -0.2406
     15 C         -30.1068    1.4614   29.2696 C.3     1  UNL1        0.1277
     16 C         -29.8193    2.6631   28.7294 C.ar    1  UNL1       -0.0019
     17 C         -29.6473    3.5996   29.4716 C.ar    1  UNL1       -0.0026
     18 C         -29.1813    4.9800   28.9756 C.ar    1  UNL1       -0.0003
     19 C         -29.0310    5.0718   27.5785 C.ar    1  UNL1       -0.0000
     20 C         -29.2401    3.9784   26.7471 C.ar    1  UNL1       -0.0003
     21 C         -29.5571    2.7480   27.3243 C.ar    1  UNL1       -0.0026
     22 O         -29.9282   -0.8224   26.7275 O.2     1  UNL1       -0.2653
     23 C         -31.6866    0.5198   27.3397 C.3     1  UNL1        0.4701
     24 F         -32.1411    1.2534   28.1400 F       1  UNL1       -0.1620
     25 F         -31.5282    0.7118   26.2302 F       1  UNL1       -0.1620
     26 F         -32.5341   -0.6271   27.2926 F       1  UNL1       -0.1620
@<TRIPOS>BOND
     1     1     2    2
     2     2     3    1
     3     2     4   am
     4     3     5    1
     5     4     6   am
     6     9    10    1
     7    10    13   ar
     8    10    14   ar
     9     4    15    1
    10    15    16    1
    11     6    22    2
    12     6    23    1
    13    23    24    1
    14    23    25    1
    15    23    26    1
    16     5     7   ar
    17     7     8   ar
    18     8     9   ar
    19     9    11   ar
    20    11    12   ar
    21    12     5   ar
    22    16    17   ar
    23    17    18   ar
    24    18    19   ar
    25    19    20   ar
    26    20    21   ar
    27    21    16   ar
