@<TRIPOS>MOLECULE
No_2108-gen_results/8p0m/2024-11-27-11-27-31/
 13 14 0 0 0
SMALL
GASTEIGER

@<TRIPOS>ATOM
      1 C         -28.0162   -0.8135   28.8779 C.ar    1  UNL1        0.0000
      2 C         -28.4690   -0.7850   29.8287 C.ar    1  UNL1        0.0000
      3 C         -26.5455   -0.8762   28.8500 C.ar    1  UNL1        0.0000
      4 C         -25.6825   -0.7773   27.6829 C.ar    1  UNL1        0.0003
      5 C         -27.9181   -1.0034   31.1877 C.ar    1  UNL1        0.0000
      6 C         -26.5308   -1.0794   31.2463 C.ar    1  UNL1        0.0000
      7 C         -25.7798   -1.0462   30.0905 C.ar    1  UNL1        0.0003
      8 C         -24.3676   -0.2501   27.7917 C.ar    1  UNL1        0.0080
      9 C         -23.6808   -0.4762   29.0175 C.ar    1  UNL1        0.0975
     10 C         -24.3689   -0.7866   30.1443 C.ar    1  UNL1        0.0080
     11 C         -22.2229   -0.1809   29.0568 C.2     1  UNL1        0.4766
     12 N         -21.4661    0.2331   28.3138 N.pl3   1  UNL1        0.2047
     13 N         -21.6742   -0.7090   30.2881 N.pl3   1  UNL1        0.2047
@<TRIPOS>BOND
     1     9    11    1
     2    11    12    2
     3    11    13    1
     4     1     2   ar
     5     2     5   ar
     6     5     6   ar
     7     6     7   ar
     8     3     1   ar
     9     3     4   ar
    10     4     8   ar
    11     8     9   ar
    12     9    10   ar
    13    10     7   ar
    14     7     3   ar
