@<TRIPOS>MOLECULE
outputs/IAG933/test6/raw/output_2109_IAG933_linker_design_.xyz
 46 50 0 0 0
SMALL
GASTEIGER

@<TRIPOS>ATOM
      1 C         -24.8550   -1.0120   30.1430 C.3     1  UNL1        0.0388
      2 C         -24.9730   -2.5050   29.7880 C.2     1  UNL1       -0.0211
      3 C         -23.9060   -3.1730   29.1460 C.2     1  UNL1       -0.0042
      4 C         -23.9890   -4.5490   28.8530 C.2     1  UNL1       -0.0003
      5 C         -25.1370   -5.2800   29.2050 C.2     1  UNL1       -0.0000
      6 C         -26.2320   -4.6110   29.7840 C.2     1  UNL1       -0.0003
      7 C         -26.1550   -3.2320   30.0650 C.2     1  UNL1       -0.0042
      8 C         -25.3870   -0.6790   31.5710 C.3     1  UNL1        0.0768
      9 C         -25.1890    0.7730   32.0280 C.3     1  UNL1        0.0192
     10 C         -25.3360    0.6840   33.5440 C.3     1  UNL1        0.0202
     11 C         -24.8290   -0.7150   33.9050 C.3     1  UNL1        0.0887
     12 N         -24.7580   -1.4810   32.6460 N.3     1  UNL1       -0.2191
     13 C         -25.6880    1.6140   26.4610 C.2     1  UNL1        0.0157
     14 C         -26.2500    2.9200   26.3950 C.2     1  UNL1        0.0726
     15 C         -25.6420    4.0930   27.1230 C.2     1  UNL1        0.2661
     16 N         -25.6140    5.2520   26.4490 N.am    1  UNL1       -0.1997
     17 C         -25.0260    6.4790   26.9630 C.3     1  UNL1        0.1388
     18 O         -25.1430    3.9660   28.2430 O.2     1  UNL1       -0.2683
     19 C         -27.4380    3.0910   25.6450 C.2     1  UNL1        0.1064
     20 N         -28.0750    2.0890   25.0030 N.2     1  UNL1       -0.2081
     21 C         -27.5430    0.8490   25.0790 C.2     1  UNL1        0.2530
     22 O         -28.1930   -0.2080   24.4770 O.2     1  UNL1       -0.4558
     23 C         -29.4600    0.0050   23.8660 C.3     1  UNL1        0.2426
     24 C         -30.0650   -1.3770   23.5730 C.3     1  UNL1        0.2292
     25 O         -30.7290   -1.8780   24.7210 O.3     1  UNL1       -0.2162
     26 C         -26.3540    0.5760   25.7770 C.2     1  UNL1        0.1891
     27 F         -25.8600   -0.6810   25.7950 F       1  UNL1       -0.1996
     28 C         -28.2471    2.4277   29.2012 C.3     1  UNL1        0.0805
     29 C         -30.0449    2.3422   32.6441 C.3     1  UNL1        0.0174
     30 C         -29.6975    1.6855   31.3010 C.3     1  UNL1        0.0179
     31 C         -27.3750    1.2969   29.1320 C.2     1  UNL1        0.1516
     32 C         -23.2237    1.6846   26.7992 C.3     1  UNL1        0.0371
     33 C         -30.4894    4.8940   32.7913 C.3     1  UNL1        0.0174
     34 C         -24.5095    1.2107   27.1579 C.3     1  UNL1        0.0278
     35 C         -26.0095    1.3759   29.5270 C.3     1  UNL1        0.0584
     36 C         -27.3508    4.2741   31.2222 C.3     1  UNL1        0.2589
     37 O         -27.8731    0.1811   28.9095 O.2     1  UNL1       -0.2960
     38 C         -24.8442    1.2202   28.6990 C.3     1  UNL1        0.0119
     39 O         -26.3127    4.5583   31.0552 O.3     1  UNL1       -0.2005
     40 N         -28.6064    3.7264   31.3805 N.3     1  UNL1       -0.2472
     41 C         -23.0688    1.9716   25.4027 C.3     1  UNL1        0.0030
     42 C         -21.8646    1.2679   27.4351 C.3     1  UNL1        0.1823
     43 C         -29.4388    3.7518   32.5939 C.3     1  UNL1        0.0599
     44 C         -25.3683   -0.0635   29.2167 C.3     1  UNL1        0.0130
     45 C         -28.8584    2.6185   30.5093 C.3     1  UNL1        0.0671
     46 O         -22.0383    0.3498   28.4530 O.3     1  UNL1       -0.2204
@<TRIPOS>BOND
     1     1     2    1
     2     2     7    1
     3     3     2    2
     4     4     3    1
     5     4     5    2
     6     5     6    1
     7     6     7    2
     8     8     1    1
     9     8     9    1
    10     8    12    1
    11     9    10    1
    12    10    11    1
    13    12    11    1
    14    13    34    1
    15    14    13    1
    16    14    15    1
    17    15    18    2
    18    16    17    1
    19    16    15    1
    20    19    14    2
    21    20    21    2
    22    20    19    1
    23    21    26    1
    24    22    21    1
    25    23    22    1
    26    24    23    1
    27    24    25    1
    28    26    27    1
    29    26    13    2
    30    30    29    1
    31    31    28    1
    32    32    41    1
    33    32    42    1
    34    34    32    1
    35    35    31    1
    36    36    40    1
    37    37    31    2
    38    38    34    1
    39    38    44    1
    40    38    35    1
    41    39    36    1
    42    40    43    1
    43    42    46    1
    44    43    29    1
    45    43    33    1
    46    44    35    1
    47    44     1    1
    48    45    28    1
    49    45    30    1
    50    45    40    1
