@<TRIPOS>MOLECULE
No_211-gen_results/8p0m/2024-11-27-11-27-31/
 18 20 0 0 0
SMALL
GASTEIGER

@<TRIPOS>ATOM
      1 C         -28.0162   -0.8135   28.8779 C.ar    1  UNL1       -0.0256
      2 C         -28.4690   -0.7850   29.8287 C.ar    1  UNL1       -0.0045
      3 C         -28.1960    0.3478   28.0550 C.ar    1  UNL1       -0.0156
      4 C         -27.4421    0.5100   26.7946 C.3     1  UNL1        0.0269
      5 C         -26.1689   -0.0794   26.6787 C.3     1  UNL1        0.0050
      6 C         -25.7312   -0.9607   27.6875 C.3     1  UNL1        0.0047
      7 C         -26.5043   -1.2222   28.7582 C.3     1  UNL1        0.0220
      8 C         -29.5802   -0.2435   30.2170 C.ar    1  UNL1        0.0005
      9 C         -30.0568    0.7240   29.3104 C.ar    1  UNL1        0.0111
     10 C         -29.3596    1.0530   28.1223 C.ar    1  UNL1        0.0534
     11 CL        -29.8824    2.1635   27.0303 Cl      1  UNL1       -0.0826
     12 C         -25.9463   -2.2770   29.7019 C.3     1  UNL1        0.0037
     13 C         -24.9925   -3.0644   29.2389 C.3     1  UNL1        0.0003
     14 C         -25.5293   -1.5758   30.9752 C.3     1  UNL1        0.0003
     15 C         -27.1149   -3.2622   30.0503 C.3     1  UNL1        0.0003
     16 C         -26.9968   -4.6358   29.7309 C.3     1  UNL1        0.0000
     17 C         -24.8190   -4.4271   28.9709 C.3     1  UNL1        0.0000
     18 C         -25.9091   -5.1779   29.3605 C.3     1  UNL1        0.0000
@<TRIPOS>BOND
     1     3     4    1
     2     4     5    1
     3     5     6    1
     4     1     7    1
     5     6     7    1
     6    10    11    1
     7     7    12    1
     8    12    13    1
     9    12    14    1
    10    12    15    1
    11    16    18    1
    12    17    18    1
    13    13    17    1
    14    16    15    1
    15     1     2   ar
    16     2     8   ar
    17     8     9   ar
    18     9    10   ar
    19    10     3   ar
    20     3     1   ar
