@<TRIPOS>MOLECULE
outputs/IAG933/test6/raw/output_2110_IAG933_linker_design_.xyz
 45 51 0 0 0
SMALL
GASTEIGER

@<TRIPOS>ATOM
      1 C         -24.8550   -1.0120   30.1430 C.3     1  UNL1        0.0977
      2 C         -24.9730   -2.5050   29.7880 C.2     1  UNL1       -0.0064
      3 C         -23.9060   -3.1730   29.1460 C.2     1  UNL1       -0.0029
      4 C         -23.9890   -4.5490   28.8530 C.2     1  UNL1       -0.0003
      5 C         -25.1370   -5.2800   29.2050 C.2     1  UNL1       -0.0000
      6 C         -26.2320   -4.6110   29.7840 C.2     1  UNL1       -0.0003
      7 C         -26.1550   -3.2320   30.0650 C.2     1  UNL1       -0.0029
      8 C         -25.3870   -0.6790   31.5710 C.3     1  UNL1        0.0916
      9 C         -25.1890    0.7730   32.0280 C.3     1  UNL1        0.0206
     10 C         -25.3360    0.6840   33.5440 C.3     1  UNL1        0.0203
     11 C         -24.8290   -0.7150   33.9050 C.3     1  UNL1        0.0888
     12 N         -24.7580   -1.4810   32.6460 N.3     1  UNL1       -0.2178
     13 C         -25.6880    1.6140   26.4610 C.2     1  UNL1        0.0208
     14 C         -26.2500    2.9200   26.3950 C.2     1  UNL1        0.0727
     15 C         -25.6420    4.0930   27.1230 C.2     1  UNL1        0.2661
     16 N         -25.6140    5.2520   26.4490 N.am    1  UNL1       -0.1997
     17 C         -25.0260    6.4790   26.9630 C.3     1  UNL1        0.1388
     18 O         -25.1430    3.9660   28.2430 O.2     1  UNL1       -0.2683
     19 C         -27.4380    3.0910   25.6450 C.2     1  UNL1        0.1064
     20 N         -28.0750    2.0890   25.0030 N.2     1  UNL1       -0.2081
     21 C         -27.5430    0.8490   25.0790 C.2     1  UNL1        0.2530
     22 O         -28.1930   -0.2080   24.4770 O.2     1  UNL1       -0.4558
     23 C         -29.4600    0.0050   23.8660 C.3     1  UNL1        0.2426
     24 C         -30.0650   -1.3770   23.5730 C.3     1  UNL1        0.2292
     25 O         -30.7290   -1.8780   24.7210 O.3     1  UNL1       -0.2162
     26 C         -26.3540    0.5760   25.7770 C.2     1  UNL1        0.1893
     27 F         -25.8600   -0.6810   25.7950 F       1  UNL1       -0.1996
     28 C         -26.9549    1.9794   29.9312 C.2     1  UNL1        0.3135
     29 S         -29.7187    2.1589   32.4191 S.3     1  UNL1       -0.0898
     30 N         -27.7150    3.7845   31.2721 N.3     1  UNL1        0.0070
     31 C         -28.9011    2.9235   31.0726 C.3     1  UNL1        0.2495
     32 O         -21.7441    1.6896   27.0405 O.3     1  UNL1       -0.3544
     33 C         -23.4241    1.5433   25.5165 C.3     1  UNL1        0.0419
     34 C         -22.1042    1.8890   25.7039 C.3     1  UNL1        0.1426
     35 C         -24.1487    1.3089   27.0792 C.3     1  UNL1        0.0851
     36 C         -22.6762    0.5990   29.0645 C.3     1  UNL1        0.1041
     37 O         -26.6161    3.2191   30.5000 O.2     1  UNL1       -0.3471
     38 C         -24.9022    0.9194   28.4973 C.3     1  UNL1        0.1736
     39 C         -22.7902    1.3237   27.8235 C.3     1  UNL1        0.1380
     40 C         -28.9394    0.5452   30.4368 C.2     1  UNL1        0.2454
     41 C         -30.0355    0.6034   31.5399 C.3     1  UNL1        0.1460
     42 N         -28.1578    1.7312   30.4646 N.am    1  UNL1       -0.1861
     43 O         -28.9449   -0.2292   29.4956 O.2     1  UNL1       -0.2734
     44 N         -26.1294    1.2153   29.1166 N.2     1  UNL1       -0.2072
     45 N         -23.9989   -0.1156   29.2123 N.3     1  UNL1       -0.2484
@<TRIPOS>BOND
     1     1     2    1
     2     2     7    1
     3     3     2    2
     4     4     3    1
     5     4     5    2
     6     5     6    1
     7     6     7    2
     8     8     1    1
     9     8     9    1
    10     8    12    1
    11     9    10    1
    12    10    11    1
    13    12    11    1
    14    14    13    1
    15    14    15    1
    16    15    18    2
    17    16    17    1
    18    16    15    1
    19    19    14    2
    20    20    21    2
    21    20    19    1
    22    21    26    1
    23    22    21    1
    24    23    22    1
    25    24    23    1
    26    24    25    1
    27    26    27    1
    28    26    13    2
    29    28    42    1
    30    28    37    1
    31    31    30    1
    32    31    29    1
    33    32    39    1
    34    33    34    1
    35    33    35    1
    36    34    32    1
    37    35    13    1
    38    35    39    1
    39    35    38    1
    40    36    45    1
    41    37    30    1
    42    38    44    1
    43    38    45    1
    44    39    36    1
    45    40    42   am
    46    40    41    1
    47    41    29    1
    48    42    31    1
    49    43    40    2
    50    44    28    2
    51    45     1    1
