@<TRIPOS>MOLECULE
outputs/IAG933/test6/raw/output_2111_IAG933_linker_design_.xyz
 42 44 0 0 0
SMALL
GASTEIGER

@<TRIPOS>ATOM
      1 C         -24.8550   -1.0120   30.1430 C.3     1  UNL1        0.0544
      2 C         -24.9730   -2.5050   29.7880 C.2     1  UNL1       -0.0198
      3 C         -23.9060   -3.1730   29.1460 C.2     1  UNL1       -0.0042
      4 C         -23.9890   -4.5490   28.8530 C.2     1  UNL1       -0.0003
      5 C         -25.1370   -5.2800   29.2050 C.2     1  UNL1       -0.0000
      6 C         -26.2320   -4.6110   29.7840 C.2     1  UNL1       -0.0003
      7 C         -26.1550   -3.2320   30.0650 C.2     1  UNL1       -0.0042
      8 C         -25.3870   -0.6790   31.5710 C.3     1  UNL1        0.0782
      9 C         -25.1890    0.7730   32.0280 C.3     1  UNL1        0.0192
     10 C         -25.3360    0.6840   33.5440 C.3     1  UNL1        0.0202
     11 C         -24.8290   -0.7150   33.9050 C.3     1  UNL1        0.0887
     12 N         -24.7580   -1.4810   32.6460 N.3     1  UNL1       -0.2191
     13 C         -25.6880    1.6140   26.4610 C.3     1  UNL1        0.0702
     14 C         -26.2500    2.9200   26.3950 C.2     1  UNL1        0.0548
     15 C         -25.6420    4.0930   27.1230 C.2     1  UNL1        0.2624
     16 N         -25.6140    5.2520   26.4490 N.am    1  UNL1       -0.2000
     17 C         -25.0260    6.4790   26.9630 C.3     1  UNL1        0.1388
     18 O         -25.1430    3.9660   28.2430 O.2     1  UNL1       -0.2687
     19 C         -27.4380    3.0910   25.6450 C.2     1  UNL1        0.1021
     20 N         -28.0750    2.0890   25.0030 N.2     1  UNL1       -0.2119
     21 C         -27.5430    0.8490   25.0790 C.2     1  UNL1        0.2341
     22 O         -28.1930   -0.2080   24.4770 O.2     1  UNL1       -0.4585
     23 C         -29.4600    0.0050   23.8660 C.3     1  UNL1        0.2423
     24 C         -30.0650   -1.3770   23.5730 C.3     1  UNL1        0.2292
     25 O         -30.7290   -1.8780   24.7210 O.3     1  UNL1       -0.2162
     26 C         -26.3540    0.5760   25.7770 C.3     1  UNL1        0.2400
     27 F         -25.8600   -0.6810   25.7950 F       1  UNL1       -0.2269
     28 C         -29.7558    1.4680   31.3100 C.3     1  UNL1        0.0354
     29 C         -21.1973    1.8264   27.1229 C.1     1  UNL1       -0.0141
     30 C         -21.8698    1.0806   27.8284 C.1     1  UNL1       -0.0779
     31 C         -24.2406    1.3782   26.8037 C.3     1  UNL1        0.0102
     32 O         -28.7470   -0.3965   28.3408 O.3     1  UNL1       -0.2189
     33 F         -28.4711    3.3953   31.0126 F       1  UNL1       -0.2400
     34 N         -26.1033    1.2387   29.4421 N.3     1  UNL1       -0.2177
     35 C         -22.6565    0.2258   28.5040 C.3     1  UNL1        0.0784
     36 C         -24.1485    0.5682   28.1343 C.3     1  UNL1        0.0298
     37 CA        -27.5666    1.1232   29.2862 C.3     1  UNL1        0.1083
     38 C         -28.0280   -0.3765   29.3677 C.3     1  UNL1        0.1994
     39 C         -30.5157    3.4477   30.0787 C.3     1  UNL1        0.0354
     40 C         -29.3379    2.6091   30.3966 C.3     1  UNL1        0.1354
     41 C         -25.2185    0.0961   29.1198 C.3     1  UNL1        0.0791
     42 C         -28.7656    2.2282   29.2263 C.3     1  UNL1        0.0526
@<TRIPOS>BOND
     1     1    41    1
     2     2     7    1
     3     2     1    1
     4     3     2    2
     5     4     3    1
     6     4     5    2
     7     5     6    1
     8     6     7    2
     9     8     1    1
    10     8     9    1
    11     8    12    1
    12     9    10    1
    13    10    11    1
    14    12    11    1
    15    13    31    1
    16    14    13    1
    17    14    15    1
    18    15    18    2
    19    16    17    1
    20    16    15    1
    21    19    14    2
    22    20    21    2
    23    20    19    1
    24    21    26    1
    25    22    21    1
    26    23    22    1
    27    24    23    1
    28    24    25    1
    29    26    27    1
    30    26    13    1
    31    29    30    3
    32    30    35    1
    33    32    38    1
    34    36    31    1
    35    36    35    1
    36    36    41    1
    37    37    42    1
    38    37    38    1
    39    37    34    1
    40    39    40    1
    41    40    33    1
    42    40    28    1
    43    41    34    1
    44    42    40    1
