@<TRIPOS>MOLECULE
outputs/IAG933/test6/raw/output_2113_IAG933_linker_design_.xyz
 43 46 0 0 0
SMALL
GASTEIGER

@<TRIPOS>ATOM
      1 C         -24.8550   -1.0120   30.1430 C.3     1  UNL1        0.0979
      2 C         -24.9730   -2.5050   29.7880 C.2     1  UNL1       -0.0064
      3 C         -23.9060   -3.1730   29.1460 C.2     1  UNL1       -0.0029
      4 C         -23.9890   -4.5490   28.8530 C.2     1  UNL1       -0.0003
      5 C         -25.1370   -5.2800   29.2050 C.2     1  UNL1       -0.0000
      6 C         -26.2320   -4.6110   29.7840 C.2     1  UNL1       -0.0003
      7 C         -26.1550   -3.2320   30.0650 C.2     1  UNL1       -0.0029
      8 C         -25.3870   -0.6790   31.5710 C.3     1  UNL1        0.0916
      9 C         -25.1890    0.7730   32.0280 C.3     1  UNL1        0.0206
     10 C         -25.3360    0.6840   33.5440 C.3     1  UNL1        0.0203
     11 C         -24.8290   -0.7150   33.9050 C.3     1  UNL1        0.0888
     12 N         -24.7580   -1.4810   32.6460 N.3     1  UNL1       -0.2178
     13 C         -25.6880    1.6140   26.4610 C.2     1  UNL1        0.0910
     14 C         -26.2500    2.9200   26.3950 C.2     1  UNL1        0.0902
     15 C         -25.6420    4.0930   27.1230 C.2     1  UNL1        0.2676
     16 N         -25.6140    5.2520   26.4490 N.am    1  UNL1       -0.1997
     17 C         -25.0260    6.4790   26.9630 C.3     1  UNL1        0.1388
     18 O         -25.1430    3.9660   28.2430 O.2     1  UNL1       -0.2683
     19 C         -27.4380    3.0910   25.6450 C.2     1  UNL1        0.1080
     20 N         -28.0750    2.0890   25.0030 N.2     1  UNL1       -0.2080
     21 C         -27.5430    0.8490   25.0790 C.2     1  UNL1        0.2546
     22 O         -28.1930   -0.2080   24.4770 O.2     1  UNL1       -0.4558
     23 C         -29.4600    0.0050   23.8660 C.3     1  UNL1        0.2426
     24 C         -30.0650   -1.3770   23.5730 C.3     1  UNL1        0.2292
     25 O         -30.7290   -1.8780   24.7210 O.3     1  UNL1       -0.2162
     26 C         -26.3540    0.5760   25.7770 C.2     1  UNL1        0.2066
     27 F         -25.8600   -0.6810   25.7950 F       1  UNL1       -0.1979
     28 N         -24.6543    1.2854   27.4535 N.pl3   1  UNL1       -0.2689
     29 C         -22.6741    1.7254   26.0419 C.3     1  UNL1        0.2399
     30 C         -28.2233    3.7025   30.8923 C.2     1  UNL1        0.3881
     31 O         -28.0812    3.8271   32.1275 O.co2   1  UNL1       -0.2405
     32 C         -27.5866    1.7564   29.1930 C.2     1  UNL1        0.0457
     33 C         -24.5510    1.0336   28.9254 C.3     1  UNL1        0.1735
     34 O         -28.0597    4.7359   30.1521 O.co2   1  UNL1       -0.2405
     35 C         -27.8848    0.5923   28.4506 C.2     1  UNL1        0.1895
     36 O         -28.9261   -0.0079   28.0675 O.2     1  UNL1       -0.2899
     37 C         -26.6488   -0.4334   28.3925 C.3     1  UNL1        0.1438
     38 O         -21.1036    1.8728   27.6143 O.2     1  UNL1       -0.3288
     39 N         -25.5424    0.0166   29.3062 N.3     1  UNL1       -0.2450
     40 C         -22.2845    1.7062   28.2209 C.2     1  UNL1        0.2331
     41 C         -28.4585    2.3655   30.3348 C.2     1  UNL1        0.0891
     42 C         -23.3303    1.5675   27.1839 C.2     1  UNL1        0.1058
     43 O         -21.2682    1.7630   26.1940 O.3     1  UNL1       -0.1661
@<TRIPOS>BOND
     1     1    39    1
     2     2     7    1
     3     2     1    1
     4     3     2    2
     5     4     3    1
     6     4     5    2
     7     5     6    1
     8     6     7    2
     9     8     1    1
    10     8     9    1
    11     8    12    1
    12     9    10    1
    13    10    11    1
    14    12    11    1
    15    13    28    1
    16    14    13    1
    17    14    15    1
    18    15    18    2
    19    16    17    1
    20    16    15    1
    21    19    14    2
    22    20    21    2
    23    20    19    1
    24    21    26    1
    25    22    21    1
    26    23    22    1
    27    24    23    1
    28    24    25    1
    29    26    27    1
    30    26    13    2
    31    28    33    1
    32    29    43    1
    33    29    42    1
    34    30    31   ar
    35    32    41    2
    36    33    39    1
    37    34    30   ar
    38    35    32    1
    39    36    35    2
    40    37    35    1
    41    37    39    1
    42    38    40    1
    43    41    30    1
    44    42    28    1
    45    42    40    2
    46    43    38    1
