@<TRIPOS>MOLECULE
outputs/IAG933/test6/raw/output_2120_IAG933_linker_design_.xyz
 43 46 0 0 0
SMALL
GASTEIGER

@<TRIPOS>ATOM
      1 C         -24.8550   -1.0120   30.1430 C.3     1  UNL1        0.0644
      2 C         -24.9730   -2.5050   29.7880 C.2     1  UNL1       -0.0191
      3 C         -23.9060   -3.1730   29.1460 C.2     1  UNL1       -0.0042
      4 C         -23.9890   -4.5490   28.8530 C.2     1  UNL1       -0.0003
      5 C         -25.1370   -5.2800   29.2050 C.2     1  UNL1       -0.0000
      6 C         -26.2320   -4.6110   29.7840 C.2     1  UNL1       -0.0003
      7 C         -26.1550   -3.2320   30.0650 C.2     1  UNL1       -0.0042
      8 C         -25.3870   -0.6790   31.5710 C.3     1  UNL1        0.0789
      9 C         -25.1890    0.7730   32.0280 C.3     1  UNL1        0.0193
     10 C         -25.3360    0.6840   33.5440 C.3     1  UNL1        0.0202
     11 C         -24.8290   -0.7150   33.9050 C.3     1  UNL1        0.0887
     12 N         -24.7580   -1.4810   32.6460 N.3     1  UNL1       -0.2191
     13 C         -25.6880    1.6140   26.4610 C.3     1  UNL1        0.1061
     14 C         -26.2500    2.9200   26.3950 C.2     1  UNL1        0.0602
     15 C         -25.6420    4.0930   27.1230 C.2     1  UNL1        0.2628
     16 N         -25.6140    5.2520   26.4490 N.am    1  UNL1       -0.2000
     17 C         -25.0260    6.4790   26.9630 C.3     1  UNL1        0.1388
     18 O         -25.1430    3.9660   28.2430 O.2     1  UNL1       -0.2686
     19 C         -27.4380    3.0910   25.6450 C.2     1  UNL1        0.1025
     20 N         -28.0750    2.0890   25.0030 N.2     1  UNL1       -0.2118
     21 C         -27.5430    0.8490   25.0790 C.2     1  UNL1        0.2345
     22 O         -28.1930   -0.2080   24.4770 O.2     1  UNL1       -0.4585
     23 C         -29.4600    0.0050   23.8660 C.3     1  UNL1        0.2423
     24 C         -30.0650   -1.3770   23.5730 C.3     1  UNL1        0.2292
     25 O         -30.7290   -1.8780   24.7210 O.3     1  UNL1       -0.2162
     26 C         -26.3540    0.5760   25.7770 C.3     1  UNL1        0.2453
     27 F         -25.8600   -0.6810   25.7950 F       1  UNL1       -0.2265
     28 C         -27.3799    0.0539   28.4850 C.2     1  UNL1        0.3110
     29 C         -30.4723    2.2242   29.1389 C.3     1  UNL1        0.0216
     30 C         -29.7436    0.0823   30.3524 C.3     1  UNL1        0.0216
     31 F         -21.2905    1.5383   27.2579 F       1  UNL1       -0.1931
     32 O         -22.4431    0.4009   29.3726 O.2     1  UNL1       -0.2897
     33 O         -27.4944   -1.0797   28.7824 O.2     1  UNL1       -0.2520
     34 C         -24.7744    0.0728   29.1400 C.3     1  UNL1        0.1476
     35 C         -23.5418    0.5859   28.7688 C.2     1  UNL1        0.1939
     36 N         -28.5947    0.8174   28.2703 N.am    1  UNL1       -0.2637
     37 C         -25.0298    1.1929   27.4054 C.2     1  UNL1        0.0442
     38 C         -23.6483    1.2264   27.5863 C.2     1  UNL1        0.0899
     39 N         -25.8182    0.4951   28.3297 N.am    1  UNL1       -0.2405
     40 C         -29.5604    0.0101   27.4503 C.3     1  UNL1        0.1164
     41 C         -22.4993    1.5176   26.8099 C.3     1  UNL1        0.3447
     42 C         -29.3274    1.2754   29.4980 C.3     1  UNL1        0.0770
     43 F         -22.5386    1.5897   25.5093 F       1  UNL1       -0.1931
@<TRIPOS>BOND
     1     1     2    1
     2     2     7    1
     3     3     2    2
     4     4     3    1
     5     4     5    2
     6     5     6    1
     7     6     7    2
     8     8     1    1
     9     8     9    1
    10     8    12    1
    11     9    10    1
    12    10    11    1
    13    12    11    1
    14    13    37    1
    15    14    13    1
    16    14    15    1
    17    15    18    2
    18    16    17    1
    19    16    15    1
    20    19    14    2
    21    20    21    2
    22    20    19    1
    23    21    26    1
    24    22    21    1
    25    23    22    1
    26    24    23    1
    27    24    25    1
    28    26    27    1
    29    26    13    1
    30    28    33    2
    31    29    42    1
    32    34     1    1
    33    35    34    1
    34    35    32    2
    35    36    28   am
    36    36    42    1
    37    37    38    2
    38    37    39    1
    39    38    35    1
    40    39    28   am
    41    39    34    1
    42    40    36    1
    43    41    31    1
    44    41    38    1
    45    42    30    1
    46    43    41    1
