@<TRIPOS>MOLECULE
No_2123-gen_results/8p0m/2024-11-27-11-27-31/
 18 19 0 0 0
SMALL
GASTEIGER

@<TRIPOS>ATOM
      1 C         -28.0162   -0.8135   28.8779 C.ar    1  UNL1        0.0159
      2 C         -27.0636   -0.1189   28.6079 C.ar    1  UNL1        0.0547
      3 C         -25.7923   -0.4302   29.0761 C.ar    1  UNL1        0.0046
      4 C         -25.5756   -1.5654   29.9363 C.ar    1  UNL1        0.0010
      5 C         -26.7354   -2.3004   30.2173 C.ar    1  UNL1        0.0114
      6 C         -27.9184   -1.9537   29.7629 C.ar    1  UNL1        0.0578
      7 C         -26.8968    1.1016   27.7052 C.2     1  UNL1        0.2528
      8 N         -25.9523    1.5257   27.2007 N.am    1  UNL1       -0.2540
      9 C         -25.7749    2.6185   26.5689 C.2     1  UNL1        0.0632
     10 C         -24.4618    2.9945   26.0589 C.2     1  UNL1       -0.0080
     11 C         -23.4989    2.0210   26.3350 C.3     1  UNL1        0.0548
     12 C         -24.5785    0.8637   27.1922 C.3     1  UNL1        0.1034
     13 O         -28.0764    1.3280   27.1548 O.2     1  UNL1       -0.2696
     14 CL        -29.2832   -2.8320   30.2711 Cl      1  UNL1       -0.0822
     15 C         -22.3008    2.3045   27.1663 C.3     1  UNL1        0.1201
     16 C         -22.5299    2.2912   28.5711 C.2     1  UNL1        0.3653
     17 O         -23.5181    2.5841   29.0918 O.co2   1  UNL1       -0.2456
     18 O         -21.5136    1.7400   29.2929 O.co2   1  UNL1       -0.2456
@<TRIPOS>BOND
     1     2     7    1
     2     7     8   am
     3     8     9    1
     4     9    10    2
     5    10    11    1
     6     8    12    1
     7    11    12    1
     8     7    13    2
     9     6    14    1
    10    11    15    1
    11    15    16    1
    12    16    17   ar
    13    16    18   ar
    14     1     2   ar
    15     2     3   ar
    16     3     4   ar
    17     4     5   ar
    18     5     6   ar
    19     6     1   ar
