@<TRIPOS>MOLECULE
No_2124-gen_results/8p0m/2024-11-27-11-27-31/
 27 28 0 0 0
SMALL
GASTEIGER

@<TRIPOS>ATOM
      1 CL        -28.1493   -0.8198   28.9079 Cl      1  UNL1       -0.0826
      2 C         -28.5324   -0.0471   29.7727 C.ar    1  UNL1        0.0540
      3 C         -29.7006    0.0350   30.2420 C.ar    1  UNL1        0.0113
      4 C         -27.4574    0.8974   30.3816 C.ar    1  UNL1       -0.0076
      5 C         -27.8536    1.8525   31.4456 C.ar    1  UNL1        0.0035
      6 C         -30.0732    1.0428   31.3373 C.ar    1  UNL1        0.0074
      7 C         -29.1164    1.8739   31.8737 C.ar    1  UNL1        0.0795
      8 C         -26.0953    0.8823   29.9974 C.3     1  UNL1        0.0456
      9 C         -25.8025    1.2846   28.8013 C.ar    1  UNL1       -0.0140
     10 C         -25.5678    2.1855   28.2411 C.ar    1  UNL1        0.0517
     11 C         -25.0303    2.4899   26.8783 C.ar    1  UNL1        0.0043
     12 C         -24.7442    1.3740   26.1316 C.ar    1  UNL1        0.0001
     13 C         -24.9800    0.1593   26.6758 C.ar    1  UNL1       -0.0003
     14 C         -25.4801    0.0081   27.9482 C.ar    1  UNL1       -0.0038
     15 C         -25.1463    0.4727   30.9982 C.3     1  UNL1        0.0094
     16 C         -25.7723    3.6536   28.9701 C.2     1  UNL1        0.2687
     17 O         -25.4885    3.7974   30.0562 O.2     1  UNL1       -0.2680
     18 N         -26.3730    4.6503   28.2155 N.am    1  UNL1       -0.1741
     19 C         -26.5388    5.9703   28.8023 C.2     1  UNL1        0.0889
     20 C         -29.5007    2.8802   32.8943 C.2     1  UNL1        0.3877
     21 O         -30.3867    2.7813   33.5865 O.co2   1  UNL1       -0.2406
     22 O         -28.6998    3.9794   32.8917 O.co2   1  UNL1       -0.2406
     23 C         -27.1159    6.8070   28.0662 C.2     1  UNL1        0.0179
     24 C         -28.3123    6.9362   27.9227 C.2     1  UNL1        0.0014
     25 C         -28.9648    7.8569   26.9431 C.2     1  UNL1        0.0000
     26 C         -28.0921    8.7744   26.2466 C.2     1  UNL1        0.0000
     27 C         -26.7239    8.6902   26.3957 C.2     1  UNL1        0.0000
@<TRIPOS>BOND
     1     1     2    1
     2     4     8    1
     3     8     9    1
     4     8    15    1
     5    10    16    1
     6    16    17    2
     7    16    18   am
     8    18    19    1
     9     7    20    1
    10    20    21   ar
    11    20    22   ar
    12    19    23    2
    13    23    24    1
    14    24    25    2
    15    25    26    1
    16    26    27    2
    17     2     3   ar
    18     3     6   ar
    19     6     7   ar
    20     7     5   ar
    21     5     4   ar
    22     4     2   ar
    23     9    10   ar
    24    10    11   ar
    25    11    12   ar
    26    12    13   ar
    27    13    14   ar
    28    14     9   ar
