@<TRIPOS>MOLECULE
outputs/IAG933/test6/raw/output_2126_IAG933_linker_design_.xyz
 39 43 0 0 0
SMALL
GASTEIGER

@<TRIPOS>ATOM
      1 C         -24.8550   -1.0120   30.1430 C.3     1  UNL1        0.1209
      2 C         -24.9730   -2.5050   29.7880 C.2     1  UNL1       -0.0025
      3 C         -23.9060   -3.1730   29.1460 C.2     1  UNL1       -0.0026
      4 C         -23.9890   -4.5490   28.8530 C.2     1  UNL1       -0.0003
      5 C         -25.1370   -5.2800   29.2050 C.2     1  UNL1       -0.0000
      6 C         -26.2320   -4.6110   29.7840 C.2     1  UNL1       -0.0003
      7 C         -26.1550   -3.2320   30.0650 C.2     1  UNL1       -0.0026
      8 C         -25.3870   -0.6790   31.5710 C.3     1  UNL1        0.0956
      9 C         -25.1890    0.7730   32.0280 C.3     1  UNL1        0.0209
     10 C         -25.3360    0.6840   33.5440 C.3     1  UNL1        0.0203
     11 C         -24.8290   -0.7150   33.9050 C.3     1  UNL1        0.0888
     12 N         -24.7580   -1.4810   32.6460 N.3     1  UNL1       -0.2174
     13 C         -25.6880    1.6140   26.4610 C.3     1  UNL1        0.0830
     14 C         -26.2500    2.9200   26.3950 C.2     1  UNL1        0.0556
     15 C         -25.6420    4.0930   27.1230 C.2     1  UNL1        0.2625
     16 N         -25.6140    5.2520   26.4490 N.am    1  UNL1       -0.2000
     17 C         -25.0260    6.4790   26.9630 C.3     1  UNL1        0.1388
     18 O         -25.1430    3.9660   28.2430 O.2     1  UNL1       -0.2687
     19 C         -27.4380    3.0910   25.6450 C.2     1  UNL1        0.1022
     20 N         -28.0750    2.0890   25.0030 N.2     1  UNL1       -0.2119
     21 C         -27.5430    0.8490   25.0790 C.2     1  UNL1        0.2341
     22 O         -28.1930   -0.2080   24.4770 O.2     1  UNL1       -0.4585
     23 C         -29.4600    0.0050   23.8660 C.3     1  UNL1        0.2423
     24 C         -30.0650   -1.3770   23.5730 C.3     1  UNL1        0.2292
     25 O         -30.7290   -1.8780   24.7210 O.3     1  UNL1       -0.2162
     26 C         -26.3540    0.5760   25.7770 C.3     1  UNL1        0.2408
     27 F         -25.8600   -0.6810   25.7950 F       1  UNL1       -0.2269
     28 O         -24.6351    2.1805   29.8758 O.2     1  UNL1       -0.2741
     29 C         -21.1619    1.4406   27.7297 C.2     1  UNL1        0.0933
     30 C         -24.8202    1.3414   27.6031 C.3     1  UNL1        0.1113
     31 O         -23.4498    2.8096   25.3060 O.2     1  UNL1       -0.2683
     32 N         -24.0939    0.1610   29.4572 N.am    1  UNL1       -0.2224
     33 C         -22.3918    0.9285   28.2804 C.2     1  UNL1        0.0715
     34 O         -22.0685   -0.8660   29.9667 O.2     1  UNL1       -0.2695
     35 C         -22.7419    0.0330   29.4134 C.2     1  UNL1        0.2561
     36 C         -22.7731    2.2283   26.2656 C.2     1  UNL1        0.2657
     37 C         -24.6250    1.2483   29.1621 C.2     1  UNL1        0.2360
     38 N         -21.3900    2.2171   26.5475 N.am    1  UNL1       -0.1742
     39 C         -23.4115    1.4903   27.3996 C.2     1  UNL1        0.0476
@<TRIPOS>BOND
     1     1     2    1
     2     2     7    1
     3     3     2    2
     4     4     3    1
     5     4     5    2
     6     5     6    1
     7     6     7    2
     8     8     1    1
     9     8     9    1
    10     8    12    1
    11     9    10    1
    12    10    11    1
    13    12    11    1
    14    13    14    1
    15    13    30    1
    16    14    15    1
    17    15    18    2
    18    16    17    1
    19    16    15    1
    20    19    14    2
    21    20    21    2
    22    20    19    1
    23    21    26    1
    24    22    21    1
    25    23    22    1
    26    24    23    1
    27    24    25    1
    28    26    27    1
    29    26    13    1
    30    29    33    1
    31    30    39    1
    32    30    37    1
    33    31    36    2
    34    32     1    1
    35    33    35    1
    36    35    32   am
    37    35    34    2
    38    36    38    1
    39    36    39    1
    40    37    32   am
    41    37    28    2
    42    38    29    2
    43    39    33    2
