@<TRIPOS>MOLECULE
No_2129-gen_results/8p0m/2024-11-27-11-27-31/
 35 38 0 0 0
SMALL
GASTEIGER

@<TRIPOS>ATOM
      1 C         -28.0162   -0.8135   28.8779 C.ar    1  UNL1        0.0008
      2 C         -28.4690   -0.7850   29.8287 C.ar    1  UNL1        0.0000
      3 C         -27.1356    0.2359   28.5352 C.ar    1  UNL1        0.0104
      4 C         -26.3351    0.2900   27.2835 C.ar    1  UNL1        0.0576
      5 C         -28.3692    0.1957   30.9236 C.ar    1  UNL1       -0.0000
      6 C         -27.5158    1.2655   30.6540 C.ar    1  UNL1       -0.0002
      7 C         -26.8411    1.2942   29.4761 C.ar    1  UNL1        0.0003
      8 CL        -25.9756   -0.2930   26.4390 Cl      1  UNL1       -0.0822
      9 C         -25.8812    1.8382   27.0747 C.ar    1  UNL1        0.0112
     10 C         -25.6775    2.5929   27.8743 C.ar    1  UNL1        0.0002
     11 C         -26.1629    2.5068   29.1460 C.ar    1  UNL1        0.0213
     12 C         -25.9818    3.6237   30.1709 C.3     1  UNL1        0.2351
     13 O         -26.9678    3.9343   30.7593 O.2     1  UNL1       -0.4695
     14 C         -27.1751    5.2779   30.7845 C.2     1  UNL1        0.1776
     15 C         -26.2420    5.9325   30.4703 C.2     1  UNL1        0.1981
     16 C         -25.2605    4.9671   29.8461 C.3     1  UNL1        0.2688
     17 O         -26.3694    7.0647   29.5372 O.2     1  UNL1       -0.4523
     18 O         -25.2362    5.1394   28.4092 O.2     1  UNL1       -0.4614
     19 C         -27.7756    5.6847   32.1890 C.3     1  UNL1        0.1855
     20 O         -27.2253    5.3270   33.1166 O.3     1  UNL1       -0.3450
     21 C         -28.0718    7.1445   32.2269 C.3     1  UNL1        0.1514
     22 C         -29.0742    7.6737   31.4921 C.2     1  UNL1        0.3678
     23 O         -28.9019    8.5859   30.8060 O.co2   1  UNL1       -0.2455
     24 O         -30.0929    6.7994   31.2556 O.co2   1  UNL1       -0.2455
     25 C         -24.9823    6.4598   27.9850 C.2     1  UNL1        0.2056
     26 C         -25.7559    7.3552   28.4693 C.2     1  UNL1        0.1594
     27 C         -27.7238    5.2040   34.3958 C.3     1  UNL1        0.1843
     28 C         -26.6923    8.0386   27.4735 C.3     1  UNL1        0.0679
     29 C         -27.0303    4.1469   35.0750 C.3     1  UNL1        0.2752
     30 C         -27.7693    3.1142   35.1626 C.3     1  UNL1        0.4277
     31 F         -27.1889    2.2423   34.4071 F       1  UNL1       -0.1673
     32 F         -27.6395    2.5096   36.4281 F       1  UNL1       -0.1673
     33 F         -28.9783    3.1217   34.7943 F       1  UNL1       -0.1673
     34 O         -26.7332    4.8027   36.4135 O.3     1  UNL1       -0.2112
     35 C         -27.6051    7.3074   26.8749 C.3     1  UNL1        0.0085
@<TRIPOS>BOND
     1     4     8    1
     2    11    12    1
     3    12    13    1
     4    13    14    1
     5    14    15    2
     6    12    16    1
     7    15    16    1
     8    15    17    1
     9    16    18    1
    10    14    19    1
    11    19    20    1
    12    19    21    1
    13    21    22    1
    14    22    23   ar
    15    22    24   ar
    16    18    25    1
    17    17    26    1
    18    25    26    2
    19    20    27    1
    20    26    28    1
    21    27    29    1
    22    29    30    1
    23    30    31    1
    24    30    32    1
    25    30    33    1
    26    29    34    1
    27    28    35    1
    28     3     4   ar
    29     4     9   ar
    30     9    10   ar
    31    10    11   ar
    32    11     7   ar
    33     1     2   ar
    34     2     5   ar
    35     5     6   ar
    36     6     7   ar
    37     7     3   ar
    38     3     1   ar
