@<TRIPOS>MOLECULE
No_213-gen_results/8p0m/2024-11-27-11-27-31/
 35 36 0 0 0
SMALL
GASTEIGER

@<TRIPOS>ATOM
      1 C         -28.0162   -0.8135   28.8779 C.3     1  UNL1        0.1936
      2 C         -27.0636   -0.1189   28.6079 C.ar    1  UNL1        0.0041
      3 C         -26.9716    0.7139   27.5060 C.ar    1  UNL1       -0.0022
      4 C         -25.8205    1.4910   27.1160 C.ar    1  UNL1        0.0063
      5 C         -24.6562    1.4242   27.9180 C.ar    1  UNL1        0.0798
      6 C         -24.6847    0.5901   29.0659 C.ar    1  UNL1        0.0063
      7 C         -25.8099   -0.1265   29.3338 C.ar    1  UNL1       -0.0022
      8 C         -29.2444   -0.0768   29.2011 C.3     1  UNL1        0.4177
      9 F         -30.1448   -0.9270   29.5819 F       1  UNL1       -0.1679
     10 F         -29.0936    0.7754   30.1693 F       1  UNL1       -0.1679
     11 F         -29.7053    0.5086   28.1332 F       1  UNL1       -0.1679
     12 C         -23.4916    2.2375   27.6277 C.2     1  UNL1        0.3878
     13 O         -22.5599    2.2412   28.4860 O.co2   1  UNL1       -0.2406
     14 O         -23.3730    2.8185   26.4817 O.co2   1  UNL1       -0.2406
     15 N         -27.6831   -1.5663   30.1412 N.am    1  UNL1       -0.2674
     16 C         -27.6649   -2.9902   30.1883 C.2     1  UNL1        0.2261
     17 C         -27.4086   -3.8104   29.1527 C.3     1  UNL1        0.0853
     18 O         -28.3544   -3.4143   31.2540 O.2     1  UNL1       -0.2749
     19 C         -26.2329   -4.7367   29.8270 C.3     1  UNL1        0.0099
     20 C         -25.1239   -4.7247   28.7933 C.3     1  UNL1        0.0052
     21 C         -24.4383   -3.4624   28.5113 C.3     1  UNL1        0.0264
     22 C         -23.9887   -2.6486   29.6491 C.ar    1  UNL1       -0.0222
     23 C         -22.9171   -1.7425   29.3999 C.ar    1  UNL1       -0.0043
     24 C         -22.1543   -1.1704   30.3691 C.ar    1  UNL1       -0.0003
     25 C         -22.6781   -1.1045   31.7045 C.ar    1  UNL1       -0.0000
     26 C         -23.9432   -1.7425   31.9394 C.ar    1  UNL1       -0.0003
     27 C         -24.5062   -2.5466   30.9156 C.ar    1  UNL1       -0.0043
     28 C         -27.4703   -0.9101   31.4163 C.3     1  UNL1        0.1259
     29 C         -27.1067   -1.5694   32.3794 C.3     1  UNL1        0.1643
     30 O         -28.2001   -2.0822   33.0742 O.3     1  UNL1       -0.3426
     31 C         -28.5152   -1.4907   34.3162 C.3     1  UNL1        0.2287
     32 C         -29.8503   -1.2246   34.4420 C.2     1  UNL1        0.2716
     33 O         -30.2159   -0.2932   34.6202 O.2     1  UNL1       -0.2706
     34 N         -30.5800   -2.4246   34.6095 N.am    1  UNL1       -0.2014
     35 C         -32.0414   -2.3771   34.5117 C.3     1  UNL1        0.1386
@<TRIPOS>BOND
     1     1     8    1
     2     8     9    1
     3     8    10    1
     4     8    11    1
     5     5    12    1
     6    12    13   ar
     7    12    14   ar
     8     1    15    1
     9    15    16   am
    10    16    17    1
    11    16    18    2
    12    17    19    1
    13    19    20    1
    14    20    21    1
    15    21    22    1
    16    15    28    1
    17    28    29    1
    18    29    30    1
    19    30    31    1
    20    31    32    1
    21    32    33    2
    22    32    34   am
    23    34    35    1
    24     1     2    1
    25     2     3   ar
    26     3     4   ar
    27     4     5   ar
    28     5     6   ar
    29     6     7   ar
    30     7     2   ar
    31    22    23   ar
    32    23    24   ar
    33    24    25   ar
    34    25    26   ar
    35    26    27   ar
    36    27    22   ar
