@<TRIPOS>MOLECULE
outputs/IAG933/test6/raw/output_2131_IAG933_linker_design_.xyz
 41 44 0 0 0
SMALL
GASTEIGER

@<TRIPOS>ATOM
      1 C         -24.8550   -1.0120   30.1430 C.3     1  UNL1        0.0910
      2 C         -24.9730   -2.5050   29.7880 C.2     1  UNL1       -0.0107
      3 C         -23.9060   -3.1730   29.1460 C.2     1  UNL1       -0.0034
      4 C         -23.9890   -4.5490   28.8530 C.2     1  UNL1       -0.0003
      5 C         -25.1370   -5.2800   29.2050 C.2     1  UNL1       -0.0000
      6 C         -26.2320   -4.6110   29.7840 C.2     1  UNL1       -0.0003
      7 C         -26.1550   -3.2320   30.0650 C.2     1  UNL1       -0.0034
      8 C         -25.3870   -0.6790   31.5710 C.3     1  UNL1        0.0873
      9 C         -25.1890    0.7730   32.0280 C.3     1  UNL1        0.0201
     10 C         -25.3360    0.6840   33.5440 C.3     1  UNL1        0.0203
     11 C         -24.8290   -0.7150   33.9050 C.3     1  UNL1        0.0887
     12 N         -24.7580   -1.4810   32.6460 N.3     1  UNL1       -0.2182
     13 C         -25.6880    1.6140   26.4610 C.3     1  UNL1        0.1380
     14 C         -26.2500    2.9200   26.3950 C.2     1  UNL1        0.0704
     15 C         -25.6420    4.0930   27.1230 C.2     1  UNL1        0.2638
     16 N         -25.6140    5.2520   26.4490 N.am    1  UNL1       -0.2000
     17 C         -25.0260    6.4790   26.9630 C.3     1  UNL1        0.1388
     18 O         -25.1430    3.9660   28.2430 O.2     1  UNL1       -0.2686
     19 C         -27.4380    3.0910   25.6450 C.2     1  UNL1        0.1035
     20 N         -28.0750    2.0890   25.0030 N.2     1  UNL1       -0.2118
     21 C         -27.5430    0.8490   25.0790 C.2     1  UNL1        0.2355
     22 O         -28.1930   -0.2080   24.4770 O.2     1  UNL1       -0.4585
     23 C         -29.4600    0.0050   23.8660 C.3     1  UNL1        0.2423
     24 C         -30.0650   -1.3770   23.5730 C.3     1  UNL1        0.2292
     25 O         -30.7290   -1.8780   24.7210 O.3     1  UNL1       -0.2162
     26 C         -26.3540    0.5760   25.7770 C.3     1  UNL1        0.2554
     27 F         -25.8600   -0.6810   25.7950 F       1  UNL1       -0.2254
     28 C         -28.2027    0.2812   29.4275 C.2     1  UNL1        0.0977
     29 N         -22.2156   -0.0114   29.3083 N.1     1  UNL1       -0.1945
     30 C         -27.1454   -0.4535   28.7668 C.3     1  UNL1        0.1111
     31 C         -29.0499    1.3946   31.3201 C.2     1  UNL1        0.0986
     32 N         -24.9516    1.0760   27.6779 N.3     1  UNL1       -0.2174
     33 F         -29.5758   -0.1856   27.5898 F       1  UNL1       -0.2029
     34 C         -22.9322    1.9940   26.1021 C.3     1  UNL1        0.0349
     35 C         -30.3512    1.0018   30.9813 C.2     1  UNL1        0.0230
     36 C         -23.4862    1.2233   27.3132 C.3     1  UNL1        0.1589
     37 S         -25.5303    0.1609   29.0163 S.3     1  UNL1       -0.1084
     38 C         -22.6927    0.6484   28.3710 C.1     1  UNL1        0.0894
     39 C         -30.5826    0.3962   29.7306 C.2     1  UNL1        0.0325
     40 N         -27.9501    1.0222   30.5611 N.2     1  UNL1       -0.2450
     41 C         -29.4738    0.1639   28.9020 C.2     1  UNL1        0.1545
@<TRIPOS>BOND
     1     1    37    1
     2     2     7    1
     3     2     1    1
     4     3     2    2
     5     4     3    1
     6     4     5    2
     7     5     6    1
     8     6     7    2
     9     8     1    1
    10     8     9    1
    11     8    12    1
    12     9    10    1
    13    10    11    1
    14    12    11    1
    15    13    32    1
    16    14    13    1
    17    14    15    1
    18    15    18    2
    19    16    17    1
    20    16    15    1
    21    19    14    2
    22    20    21    2
    23    20    19    1
    24    21    26    1
    25    22    21    1
    26    23    22    1
    27    24    23    1
    28    24    25    1
    29    26    27    1
    30    26    13    1
    31    28    40    1
    32    30    28    1
    33    32    37    1
    34    33    41    1
    35    35    31    1
    36    36    34    1
    37    36    32    1
    38    36    38    1
    39    37    30    1
    40    38    29    3
    41    39    35    2
    42    40    31    2
    43    41    28    2
    44    41    39    1
