@<TRIPOS>MOLECULE
outputs/IAG933/test6/raw/output_2133_IAG933_linker_design_.xyz
 41 43 0 0 0
SMALL
GASTEIGER

@<TRIPOS>ATOM
      1 C         -24.8550   -1.0120   30.1430 C.3     1  UNL1        0.0438
      2 C         -24.9730   -2.5050   29.7880 C.2     1  UNL1       -0.0208
      3 C         -23.9060   -3.1730   29.1460 C.2     1  UNL1       -0.0042
      4 C         -23.9890   -4.5490   28.8530 C.2     1  UNL1       -0.0003
      5 C         -25.1370   -5.2800   29.2050 C.2     1  UNL1       -0.0000
      6 C         -26.2320   -4.6110   29.7840 C.2     1  UNL1       -0.0003
      7 C         -26.1550   -3.2320   30.0650 C.2     1  UNL1       -0.0042
      8 C         -25.3870   -0.6790   31.5710 C.3     1  UNL1        0.0791
      9 C         -25.1890    0.7730   32.0280 C.3     1  UNL1        0.0427
     10 C         -25.3360    0.6840   33.5440 C.3     1  UNL1        0.0222
     11 C         -24.8290   -0.7150   33.9050 C.3     1  UNL1        0.0888
     12 N         -24.7580   -1.4810   32.6460 N.3     1  UNL1       -0.2191
     13 C         -25.6880    1.6140   26.4610 C.2     1  UNL1        0.0402
     14 C         -26.2500    2.9200   26.3950 C.2     1  UNL1        0.0766
     15 C         -25.6420    4.0930   27.1230 C.2     1  UNL1        0.2664
     16 N         -25.6140    5.2520   26.4490 N.am    1  UNL1       -0.1997
     17 C         -25.0260    6.4790   26.9630 C.3     1  UNL1        0.1388
     18 O         -25.1430    3.9660   28.2430 O.2     1  UNL1       -0.2683
     19 C         -27.4380    3.0910   25.6450 C.2     1  UNL1        0.1067
     20 N         -28.0750    2.0890   25.0030 N.2     1  UNL1       -0.2081
     21 C         -27.5430    0.8490   25.0790 C.2     1  UNL1        0.2533
     22 O         -28.1930   -0.2080   24.4770 O.2     1  UNL1       -0.4558
     23 C         -29.4600    0.0050   23.8660 C.3     1  UNL1        0.2426
     24 C         -30.0650   -1.3770   23.5730 C.3     1  UNL1        0.2292
     25 O         -30.7290   -1.8780   24.7210 O.3     1  UNL1       -0.2162
     26 C         -26.3540    0.5760   25.7770 C.2     1  UNL1        0.1931
     27 F         -25.8600   -0.6810   25.7950 F       1  UNL1       -0.1992
     28 C         -26.5293    4.7441   33.1287 C.3     1  UNL1        0.0042
     29 N         -25.2891    1.7723   29.6953 N.2     1  UNL1       -0.2682
     30 C         -25.5188    3.5740   32.8658 C.3     1  UNL1        0.0350
     31 C         -25.6456    1.9182   31.1004 C.3     1  UNL1        0.1349
     32 C         -23.1744    1.4817   26.4371 C.2     1  UNL1        0.0518
     33 C         -22.0260    1.3790   27.0755 C.1     1  UNL1       -0.0505
     34 C         -21.0296    1.4247   27.7614 C.1     1  UNL1       -0.0092
     35 C         -24.5531    1.3312   28.7094 C.2     1  UNL1        0.0938
     36 O         -23.6234    3.3378   31.3448 O.3     1  UNL1       -0.2211
     37 C         -27.6110    3.8423   33.8300 C.3     1  UNL1        0.0206
     38 C         -29.0469    4.4185   33.7271 C.3     1  UNL1        0.1093
     39 N         -29.4579    4.5731   35.1484 N.3     1  UNL1       -0.1314
     40 C         -25.1238    3.3305   31.4671 C.3     1  UNL1        0.1742
     41 C         -24.4513    1.4834   27.2000 C.2     1  UNL1        0.0295
@<TRIPOS>BOND
     1     2     7    1
     2     2     1    1
     3     3     2    2
     4     4     3    1
     5     4     5    2
     6     5     6    1
     7     6     7    2
     8     8     1    1
     9     8     9    1
    10     8    12    1
    11     9    31    1
    12     9    10    1
    13    10    11    1
    14    12    11    1
    15    13    41    1
    16    14    13    1
    17    14    15    1
    18    15    18    2
    19    16    17    1
    20    16    15    1
    21    19    14    2
    22    20    21    2
    23    20    19    1
    24    21    26    1
    25    22    21    1
    26    23    22    1
    27    24    23    1
    28    24    25    1
    29    26    27    1
    30    26    13    2
    31    28    37    1
    32    30    28    1
    33    31    29    1
    34    31    40    1
    35    32    33    1
    36    32    41    2
    37    33    34    3
    38    35    29    2
    39    38    37    1
    40    38    39    1
    41    40    36    1
    42    40    30    1
    43    41    35    1
