@<TRIPOS>MOLECULE
No_2134-gen_results/8p0m/2024-11-27-11-27-31/
 11 11 0 0 0
SMALL
GASTEIGER

@<TRIPOS>ATOM
      1 C         -28.0162   -0.8135   28.8779 C.2     1  UNL1        0.2342
      2 C         -27.0636   -0.1189   28.6079 C.ar    1  UNL1        0.0422
      3 C         -26.8756    1.1325   28.9134 C.ar    1  UNL1        0.0034
      4 C         -25.6883    1.9515   28.5672 C.ar    1  UNL1        0.0047
      5 C         -24.6394    1.2834   27.8753 C.ar    1  UNL1        0.0567
      6 C         -23.4556    1.9996   27.5653 C.2     1  UNL1        0.2842
      7 C         -25.8977   -0.6073   27.7415 C.ar    1  UNL1        0.0034
      8 C         -24.7476   -0.0106   27.4694 C.ar    1  UNL1        0.0047
      9 N         -22.2692    1.5544   27.5215 N.am    1  UNL1       -0.0837
     10 O         -23.6218    3.2203   27.0333 O.2     1  UNL1       -0.2667
     11 O         -29.2134   -0.3005   28.9653 O.2     1  UNL1       -0.2831
@<TRIPOS>BOND
     1     5     6    1
     2     6     9   am
     3     6    10    2
     4     1    11    2
     5     1     2    1
     6     2     3   ar
     7     3     4   ar
     8     4     5   ar
     9     5     8   ar
    10     8     7   ar
    11     7     2   ar
