@<TRIPOS>MOLECULE
No_2135-gen_results/8p0m/2024-11-27-11-27-31/
 13 14 0 0 0
SMALL
GASTEIGER

@<TRIPOS>ATOM
      1 C         -28.0162   -0.8135   28.8779 C.ar    1  UNL1       -0.0039
      2 C         -27.0636   -0.1189   28.6079 C.ar    1  UNL1       -0.0178
      3 C         -26.9287    1.1713   29.0083 C.ar    1  UNL1       -0.0039
      4 C         -27.9560    1.7411   29.7840 C.ar    1  UNL1       -0.0003
      5 C         -29.0569   -0.3271   29.7466 C.ar    1  UNL1       -0.0003
      6 C         -28.9828    0.9722   30.1516 C.ar    1  UNL1       -0.0000
      7 C         -25.8907   -0.6263   27.7857 C.3     1  UNL1        0.0526
      8 C         -24.7183   -1.0610   28.6129 C.ar    1  UNL1       -0.0178
      9 C         -23.5950   -0.2827   28.8125 C.ar    1  UNL1       -0.0039
     10 C         -22.5044   -0.8064   29.5509 C.ar    1  UNL1       -0.0003
     11 C         -24.8981   -2.1862   29.4502 C.ar    1  UNL1       -0.0039
     12 C         -23.7851   -2.6588   30.1837 C.ar    1  UNL1       -0.0003
     13 C         -22.6360   -1.9168   30.2824 C.ar    1  UNL1       -0.0000
@<TRIPOS>BOND
     1     2     7    1
     2     7     8    1
     3     8     9   ar
     4     9    10   ar
     5    10    13   ar
     6    13    12   ar
     7    12    11   ar
     8    11     8   ar
     9     1     2   ar
    10     2     3   ar
    11     3     4   ar
    12     4     6   ar
    13     6     5   ar
    14     5     1   ar
