@<TRIPOS>MOLECULE
outputs/IAG933/test6/raw/output_2137_IAG933_linker_design_.xyz
 41 45 0 0 0
SMALL
GASTEIGER

@<TRIPOS>ATOM
      1 C         -24.8550   -1.0120   30.1430 C.3     1  UNL1        0.0859
      2 C         -24.9730   -2.5050   29.7880 C.2     1  UNL1       -0.0169
      3 C         -23.9060   -3.1730   29.1460 C.2     1  UNL1       -0.0041
      4 C         -23.9890   -4.5490   28.8530 C.2     1  UNL1       -0.0003
      5 C         -25.1370   -5.2800   29.2050 C.2     1  UNL1       -0.0000
      6 C         -26.2320   -4.6110   29.7840 C.2     1  UNL1       -0.0003
      7 C         -26.1550   -3.2320   30.0650 C.2     1  UNL1       -0.0041
      8 C         -25.3870   -0.6790   31.5710 C.3     1  UNL1        0.0810
      9 C         -25.1890    0.7730   32.0280 C.3     1  UNL1        0.0193
     10 C         -25.3360    0.6840   33.5440 C.3     1  UNL1        0.0202
     11 C         -24.8290   -0.7150   33.9050 C.3     1  UNL1        0.0887
     12 N         -24.7580   -1.4810   32.6460 N.3     1  UNL1       -0.2190
     13 C         -25.6880    1.6140   26.4610 C.2     1  UNL1        0.0774
     14 C         -26.2500    2.9200   26.3950 C.2     1  UNL1        0.0799
     15 C         -25.6420    4.0930   27.1230 C.2     1  UNL1        0.2665
     16 N         -25.6140    5.2520   26.4490 N.am    1  UNL1       -0.1997
     17 C         -25.0260    6.4790   26.9630 C.3     1  UNL1        0.1388
     18 O         -25.1430    3.9660   28.2430 O.2     1  UNL1       -0.2683
     19 C         -27.4380    3.0910   25.6450 C.2     1  UNL1        0.1068
     20 N         -28.0750    2.0890   25.0030 N.2     1  UNL1       -0.2081
     21 C         -27.5430    0.8490   25.0790 C.2     1  UNL1        0.2534
     22 O         -28.1930   -0.2080   24.4770 O.2     1  UNL1       -0.4558
     23 C         -29.4600    0.0050   23.8660 C.3     1  UNL1        0.2426
     24 C         -30.0650   -1.3770   23.5730 C.3     1  UNL1        0.2292
     25 O         -30.7290   -1.8780   24.7210 O.3     1  UNL1       -0.2162
     26 C         -26.3540    0.5760   25.7770 C.2     1  UNL1        0.1964
     27 F         -25.8600   -0.6810   25.7950 F       1  UNL1       -0.1991
     28 N         -25.3234    0.7231   28.5438 N.pl3   1  UNL1       -0.1676
     29 C         -22.9966    0.1937   29.0379 C.2     1  UNL1        0.0525
     30 N         -27.3839    1.7406   29.4205 N.2     1  UNL1       -0.0359
     31 C         -22.4351    0.9935   27.9905 C.2     1  UNL1        0.1704
     32 C         -26.8445    0.7055   28.7221 C.2     1  UNL1        0.3286
     33 C         -29.1383   -0.1374   28.3606 C.2     1  UNL1        0.0116
     34 C         -27.7480   -0.3147   28.2065 C.2     1  UNL1        0.0899
     35 C         -28.7597    2.0039   29.5325 C.2     1  UNL1        0.2357
     36 C         -29.6475    1.0328   29.0268 C.2     1  UNL1        0.0507
     37 C         -24.3977   -0.0291   29.2668 C.3     1  UNL1        0.1948
     38 C         -24.6982    1.2679   27.4084 C.2     1  UNL1        0.1710
     39 C         -23.3067    1.5060   27.0839 C.2     1  UNL1        0.2039
     40 F         -22.7471    2.0533   25.9759 F       1  UNL1       -0.1982
     41 F         -21.1519    1.3121   27.8394 F       1  UNL1       -0.2019
@<TRIPOS>BOND
     1     1     2    1
     2     2     7    1
     3     3     2    2
     4     4     3    1
     5     4     5    2
     6     5     6    1
     7     6     7    2
     8     8     1    1
     9     8     9    1
    10     8    12    1
    11     9    10    1
    12    10    11    1
    13    12    11    1
    14    13    38    1
    15    14    13    1
    16    14    15    1
    17    15    18    2
    18    16    17    1
    19    16    15    1
    20    19    14    2
    21    20    21    2
    22    20    19    1
    23    21    26    1
    24    22    21    1
    25    23    22    1
    26    24    23    1
    27    24    25    1
    28    26    27    1
    29    26    13    2
    30    28    32    1
    31    28    37    1
    32    29    37    1
    33    30    35    1
    34    31    29    2
    35    32    30    2
    36    33    36    1
    37    34    33    2
    38    34    32    1
    39    36    35    2
    40    37     1    1
    41    38    28    1
    42    39    38    2
    43    39    31    1
    44    40    39    1
    45    41    31    1
