@<TRIPOS>MOLECULE
No_2139-gen_results/8p0m/2024-11-27-11-27-31/
 22 23 0 0 0
SMALL
GASTEIGER

@<TRIPOS>ATOM
      1 C         -28.0162   -0.8135   28.8779 C.ar    1  UNL1       -0.0002
      2 C         -28.4690   -0.7850   29.8287 C.ar    1  UNL1       -0.0003
      3 C         -27.1356    0.2359   28.5352 C.ar    1  UNL1       -0.0003
      4 C         -26.8745    1.2825   29.3982 C.ar    1  UNL1       -0.0027
      5 C         -27.5070    1.2380   30.6295 C.ar    1  UNL1       -0.0007
      6 C         -28.3269    0.1637   30.9240 C.ar    1  UNL1       -0.0026
      7 C         -26.4110    0.3070   27.2192 C.2     1  UNL1        0.0268
      8 C         -25.0121    0.3340   27.3197 C.2     1  UNL1       -0.0002
      9 C         -24.3238    0.1474   28.5019 C.ar    1  UNL1       -0.0002
     10 C         -23.1020    0.5760   28.7502 C.ar    1  UNL1       -0.0000
     11 C         -22.3544    0.2213   29.9313 C.ar    1  UNL1       -0.0000
     12 C         -23.0512   -0.4315   30.9388 C.ar    1  UNL1       -0.0000
     13 C         -24.7119   -0.5572   29.7866 C.ar    1  UNL1       -0.0000
     14 C         -24.0955   -0.9033   30.8349 C.ar    1  UNL1       -0.0000
     15 C         -27.1215    0.4119   26.0436 C.3     1  UNL1        0.2579
     16 N         -28.3048    0.6460   25.9360 N.3     1  UNL1       -0.1819
     17 F         -26.4518    0.2931   24.9321 F       1  UNL1       -0.2127
     18 C         -29.0772    0.5099   24.7795 C.3     1  UNL1        0.1107
     19 C         -27.2854    2.3116   31.6470 C.3     1  UNL1        0.1386
     20 N         -26.3980    3.0056   31.6622 N.pl3   1  UNL1       -0.2315
     21 C         -26.1717    4.1027   31.6872 C.2     1  UNL1        0.0805
     22 C         -24.7827    4.7534   31.8382 C.2     1  UNL1        0.0188
@<TRIPOS>BOND
     1     3     7    1
     2     7     8    2
     3     8     9    1
     4     7    15    1
     5    15    16    1
     6    15    17    1
     7    16    18    1
     8     5    19    1
     9    19    20    1
    10    20    21    1
    11    21    22    2
    12     1     2   ar
    13     2     6   ar
    14     6     5   ar
    15     5     4   ar
    16     4     3   ar
    17     3     1   ar
    18     9    10   ar
    19    10    11   ar
    20    11    12   ar
    21    12    14   ar
    22    14    13   ar
    23    13     9   ar
