@<TRIPOS>MOLECULE
No_2140-gen_results/8p0m/2024-11-27-11-27-31/
 8 8 0 0 0
SMALL
GASTEIGER

@<TRIPOS>ATOM
      1 C         -28.0162   -0.8135   28.8779 C.ar    1  UNL1        0.0369
      2 C         -27.0636   -0.1190   28.6079 C.ar    1  UNL1        0.1387
      3 C         -25.7923   -0.4302   29.0761 C.ar    1  UNL1        0.0369
      4 C         -25.5756   -1.5654   29.9363 C.ar    1  UNL1        0.0031
      5 C         -26.7354   -2.3004   30.2173 C.ar    1  UNL1        0.0002
      6 C         -27.9184   -1.9537   29.7629 C.ar    1  UNL1        0.0031
      7 O         -27.1229    1.0229   27.8500 O.3     1  UNL1       -0.4714
      8 C         -26.9383    0.9505   26.5269 C.3     1  UNL1        0.2525
@<TRIPOS>BOND
     1     2     7    1
     2     7     8    1
     3     1     2   ar
     4     2     3   ar
     5     3     4   ar
     6     4     5   ar
     7     5     6   ar
     8     6     1   ar
