@<TRIPOS>MOLECULE
outputs/IAG933/test6/raw/output_2142_IAG933_linker_design_.xyz
 41 45 0 0 0
SMALL
GASTEIGER

@<TRIPOS>ATOM
      1 C         -24.8550   -1.0120   30.1430 C.3     1  UNL1        0.0454
      2 C         -24.9730   -2.5050   29.7880 C.2     1  UNL1       -0.0207
      3 C         -23.9060   -3.1730   29.1460 C.2     1  UNL1       -0.0042
      4 C         -23.9890   -4.5490   28.8530 C.2     1  UNL1       -0.0003
      5 C         -25.1370   -5.2800   29.2050 C.2     1  UNL1       -0.0000
      6 C         -26.2320   -4.6110   29.7840 C.2     1  UNL1       -0.0003
      7 C         -26.1550   -3.2320   30.0650 C.2     1  UNL1       -0.0042
      8 C         -25.3870   -0.6790   31.5710 C.3     1  UNL1        0.0952
      9 C         -25.1890    0.7730   32.0280 C.3     1  UNL1        0.0930
     10 C         -25.3360    0.6840   33.5440 C.3     1  UNL1        0.0400
     11 C         -24.8290   -0.7150   33.9050 C.3     1  UNL1        0.0905
     12 N         -24.7580   -1.4810   32.6460 N.3     1  UNL1       -0.2174
     13 C         -25.6880    1.6140   26.4610 C.3     1  UNL1        0.0954
     14 C         -26.2500    2.9200   26.3950 C.2     1  UNL1        0.0590
     15 C         -25.6420    4.0930   27.1230 C.2     1  UNL1        0.2628
     16 N         -25.6140    5.2520   26.4490 N.am    1  UNL1       -0.2000
     17 C         -25.0260    6.4790   26.9630 C.3     1  UNL1        0.1388
     18 O         -25.1430    3.9660   28.2430 O.2     1  UNL1       -0.2686
     19 C         -27.4380    3.0910   25.6450 C.2     1  UNL1        0.1025
     20 N         -28.0750    2.0890   25.0030 N.2     1  UNL1       -0.2118
     21 C         -27.5430    0.8490   25.0790 C.2     1  UNL1        0.2344
     22 O         -28.1930   -0.2080   24.4770 O.2     1  UNL1       -0.4585
     23 C         -29.4600    0.0050   23.8660 C.3     1  UNL1        0.2423
     24 C         -30.0650   -1.3770   23.5730 C.3     1  UNL1        0.2292
     25 O         -30.7290   -1.8780   24.7210 O.3     1  UNL1       -0.2162
     26 C         -26.3540    0.5760   25.7770 C.3     1  UNL1        0.2441
     27 F         -25.8600   -0.6810   25.7950 F       1  UNL1       -0.2265
     28 C         -23.1736    1.9599   25.8095 C.2     1  UNL1        0.1760
     29 C         -21.9771    1.7096   25.9532 C.2     1  UNL1        0.1790
     30 C         -22.0883    0.5711   29.5182 C.3     1  UNL1        0.0282
     31 C         -24.2337    1.6011   26.6687 C.2     1  UNL1        0.0222
     32 O         -22.5572    2.5960   24.9779 O.2     1  UNL1       -0.4477
     33 C         -26.6276    4.0729   31.4035 C.3     1  UNL1        0.0948
     34 O         -24.7510    3.8415   32.6555 O.2     1  UNL1       -0.2749
     35 C         -22.9123    1.4615   30.3225 C.3     1  UNL1        0.0262
     36 C         -25.4731    3.2640   31.8761 C.2     1  UNL1        0.2261
     37 C         -21.5077    1.1361   27.1895 C.2     1  UNL1        0.0364
     38 N         -25.0430    2.0688   31.4950 N.am    1  UNL1       -0.2797
     39 C         -23.8036    1.1797   27.8861 C.2     1  UNL1       -0.0049
     40 C         -22.4817    0.9952   28.1365 C.2     1  UNL1       -0.0192
     41 C         -23.7927    2.2479   30.7200 C.3     1  UNL1        0.0937
@<TRIPOS>BOND
     1     2     7    1
     2     2     1    1
     3     3     2    2
     4     4     3    1
     5     4     5    2
     6     5     6    1
     7     6     7    2
     8     8     1    1
     9     8     9    1
    10     8    12    1
    11     9    38    1
    12     9    10    1
    13    10    11    1
    14    12    11    1
    15    13    31    1
    16    14    13    1
    17    14    15    1
    18    15    18    2
    19    16    17    1
    20    16    15    1
    21    19    14    2
    22    20    21    2
    23    20    19    1
    24    21    26    1
    25    22    21    1
    26    23    22    1
    27    24    23    1
    28    24    25    1
    29    26    27    1
    30    26    13    1
    31    28    29    2
    32    28    31    1
    33    29    37    1
    34    30    35    1
    35    31    39    2
    36    32    28    1
    37    32    29    1
    38    33    36    1
    39    35    41    1
    40    36    34    2
    41    37    40    2
    42    38    36   am
    43    39    40    1
    44    40    30    1
    45    41    38    1
