@<TRIPOS>MOLECULE
outputs/IAG933/test6/raw/output_2144_IAG933_linker_design_.xyz
 40 43 0 0 0
SMALL
GASTEIGER

@<TRIPOS>ATOM
      1 C         -24.8550   -1.0120   30.1430 C.3     1  UNL1        0.1211
      2 C         -24.9730   -2.5050   29.7880 C.2     1  UNL1       -0.0025
      3 C         -23.9060   -3.1730   29.1460 C.2     1  UNL1       -0.0026
      4 C         -23.9890   -4.5490   28.8530 C.2     1  UNL1       -0.0003
      5 C         -25.1370   -5.2800   29.2050 C.2     1  UNL1       -0.0000
      6 C         -26.2320   -4.6110   29.7840 C.2     1  UNL1       -0.0003
      7 C         -26.1550   -3.2320   30.0650 C.2     1  UNL1       -0.0026
      8 C         -25.3870   -0.6790   31.5710 C.3     1  UNL1        0.0956
      9 C         -25.1890    0.7730   32.0280 C.3     1  UNL1        0.0209
     10 C         -25.3360    0.6840   33.5440 C.3     1  UNL1        0.0203
     11 C         -24.8290   -0.7150   33.9050 C.3     1  UNL1        0.0888
     12 N         -24.7580   -1.4810   32.6460 N.3     1  UNL1       -0.2174
     13 C         -25.6880    1.6140   26.4610 C.2     1  UNL1        0.0320
     14 C         -26.2500    2.9200   26.3950 C.2     1  UNL1        0.0735
     15 C         -25.6420    4.0930   27.1230 C.2     1  UNL1        0.2661
     16 N         -25.6140    5.2520   26.4490 N.am    1  UNL1       -0.1997
     17 C         -25.0260    6.4790   26.9630 C.3     1  UNL1        0.1388
     18 O         -25.1430    3.9660   28.2430 O.2     1  UNL1       -0.2683
     19 C         -27.4380    3.0910   25.6450 C.2     1  UNL1        0.1064
     20 N         -28.0750    2.0890   25.0030 N.2     1  UNL1       -0.2081
     21 C         -27.5430    0.8490   25.0790 C.2     1  UNL1        0.2530
     22 O         -28.1930   -0.2080   24.4770 O.2     1  UNL1       -0.4558
     23 C         -29.4600    0.0050   23.8660 C.3     1  UNL1        0.2426
     24 C         -30.0650   -1.3770   23.5730 C.3     1  UNL1        0.2292
     25 O         -30.7290   -1.8780   24.7210 O.3     1  UNL1       -0.2162
     26 C         -26.3540    0.5760   25.7770 C.2     1  UNL1        0.1900
     27 F         -25.8600   -0.6810   25.7950 F       1  UNL1       -0.1996
     28 O         -23.3758    2.7947   25.3801 O.2     1  UNL1       -0.2421
     29 C         -26.6319    0.2044   29.1289 C.2     1  UNL1        0.4509
     30 O         -27.4803   -0.7036   28.8730 O.co2   1  UNL1       -0.2220
     31 O         -26.9461    1.3170   29.5173 O.co2   1  UNL1       -0.2220
     32 N         -22.0399    1.7974   26.8527 N.am    1  UNL1        0.0348
     33 C         -23.2429    1.9910   26.4435 C.2     1  UNL1        0.3614
     34 N         -25.1901   -0.1229   29.0447 N.am    1  UNL1       -0.2211
     35 C         -22.8725    0.4048   28.5978 C.2     1  UNL1        0.1075
     36 C         -21.8301    1.0280   27.8849 C.2     1  UNL1        0.3981
     37 N         -20.6068    0.8140   28.3510 N.2     1  UNL1        0.1075
     38 C         -24.2023    0.5487   28.2213 C.2     1  UNL1        0.0574
     39 N         -20.3338   -0.1738   28.6311 N.2     1  UNL1        0.1181
     40 C         -24.3829    1.4063   27.0571 C.3     1  UNL1        0.1665
@<TRIPOS>BOND
     1     1    34    1
     2     2     7    1
     3     2     1    1
     4     3     2    2
     5     4     3    1
     6     4     5    2
     7     5     6    1
     8     6     7    2
     9     8     1    1
    10     8     9    1
    11     8    12    1
    12     9    10    1
    13    10    11    1
    14    12    11    1
    15    14    13    1
    16    14    15    1
    17    15    18    2
    18    16    17    1
    19    16    15    1
    20    19    14    2
    21    20    21    2
    22    20    19    1
    23    21    26    1
    24    22    21    1
    25    23    22    1
    26    24    23    1
    27    24    25    1
    28    26    27    1
    29    26    13    2
    30    28    33    2
    31    29    31   ar
    32    30    29   ar
    33    32    36    2
    34    33    32    1
    35    33    40    1
    36    34    29   am
    37    36    37    1
    38    36    35    1
    39    37    39    2
    40    38    35    2
    41    38    34    1
    42    40    13    1
    43    40    38    1
