@<TRIPOS>MOLECULE
No_2147-gen_results/8p0m/2024-11-27-11-27-31/
 16 17 0 0 0
SMALL
GASTEIGER

@<TRIPOS>ATOM
      1 C         -28.0162   -0.8135   28.8779 C.3     1  UNL1        0.3432
      2 C         -27.0636   -0.1190   28.6079 C.ar    1  UNL1        0.0732
      3 C         -25.7647   -0.3897   29.0360 C.ar    1  UNL1        0.1687
      4 C         -24.5516    0.4058   28.7646 C.ar    1  UNL1        0.1709
      5 C         -24.6957    1.4480   27.7988 C.ar    1  UNL1        0.0756
      6 C         -25.9755    1.7250   27.3077 C.ar    1  UNL1        0.0074
      7 C         -27.0718    1.0134   27.6535 C.ar    1  UNL1        0.0037
      8 F         -29.0296   -0.5631   28.2462 F       1  UNL1       -0.1932
      9 F         -28.3112   -0.6685   30.2723 F       1  UNL1       -0.1932
     10 C         -23.3585    1.9608   27.5320 C.ar    1  UNL1        0.2245
     11 N         -23.2244    2.9625   26.6747 N.ar    1  UNL1       -0.2164
     12 F         -22.3187    1.5903   28.0114 F       1  UNL1       -0.1831
     13 F         -25.5102   -1.3643   29.8925 F       1  UNL1       -0.2020
     14 C         -26.0460    2.8322   26.3149 C.ar    1  UNL1        0.0209
     15 C         -24.5559    3.4849   26.0807 C.ar    1  UNL1        0.1013
     16 F         -23.4861   -0.0119   29.2681 F       1  UNL1       -0.2017
@<TRIPOS>BOND
     1     1     8    1
     2     1     9    1
     3    10    12    1
     4     3    13    1
     5     4    16    1
     6     1     2    1
     7     2     3   ar
     8     3     4   ar
     9     4     5   ar
    10     6     7   ar
    11     7     2   ar
    12     5     6   ar
    13     6    14   ar
    14    14    15   ar
    15    15    11   ar
    16    11    10   ar
    17    10     5   ar
