@<TRIPOS>MOLECULE
outputs/IAG933/test6/raw/output_2148_IAG933_linker_design_.xyz
 42 45 0 0 0
SMALL
GASTEIGER

@<TRIPOS>ATOM
      1 C         -24.8550   -1.0120   30.1430 C.3     1  UNL1        0.1136
      2 C         -24.9730   -2.5050   29.7880 C.2     1  UNL1       -0.0050
      3 C         -23.9060   -3.1730   29.1460 C.2     1  UNL1       -0.0029
      4 C         -23.9890   -4.5490   28.8530 C.2     1  UNL1       -0.0003
      5 C         -25.1370   -5.2800   29.2050 C.2     1  UNL1       -0.0000
      6 C         -26.2320   -4.6110   29.7840 C.2     1  UNL1       -0.0003
      7 C         -26.1550   -3.2320   30.0650 C.2     1  UNL1       -0.0029
      8 C         -25.3870   -0.6790   31.5710 C.3     1  UNL1        0.0930
      9 C         -25.1890    0.7730   32.0280 C.3     1  UNL1        0.0206
     10 C         -25.3360    0.6840   33.5440 C.3     1  UNL1        0.0203
     11 C         -24.8290   -0.7150   33.9050 C.3     1  UNL1        0.0888
     12 N         -24.7580   -1.4810   32.6460 N.3     1  UNL1       -0.2177
     13 C         -25.6880    1.6140   26.4610 C.2     1  UNL1        0.0256
     14 C         -26.2500    2.9200   26.3950 C.2     1  UNL1        0.0731
     15 C         -25.6420    4.0930   27.1230 C.2     1  UNL1        0.2661
     16 N         -25.6140    5.2520   26.4490 N.am    1  UNL1       -0.1997
     17 C         -25.0260    6.4790   26.9630 C.3     1  UNL1        0.1388
     18 O         -25.1430    3.9660   28.2430 O.2     1  UNL1       -0.2683
     19 C         -27.4380    3.0910   25.6450 C.2     1  UNL1        0.1064
     20 N         -28.0750    2.0890   25.0030 N.2     1  UNL1       -0.2081
     21 C         -27.5430    0.8490   25.0790 C.2     1  UNL1        0.2530
     22 O         -28.1930   -0.2080   24.4770 O.2     1  UNL1       -0.4558
     23 C         -29.4600    0.0050   23.8660 C.3     1  UNL1        0.2426
     24 C         -30.0650   -1.3770   23.5730 C.3     1  UNL1        0.2292
     25 O         -30.7290   -1.8780   24.7210 O.3     1  UNL1       -0.2162
     26 C         -26.3540    0.5760   25.7770 C.2     1  UNL1        0.1896
     27 F         -25.8600   -0.6810   25.7950 F       1  UNL1       -0.1996
     28 N         -23.3460   -0.5595   30.0957 N.3     1  UNL1       -0.1820
     29 O         -22.7943    1.8014   29.6670 O.3     1  UNL1       -0.2000
     30 C         -24.3751    1.3877   27.0438 C.3     1  UNL1        0.1234
     31 F         -23.4270    1.4284   24.3499 F       1  UNL1       -0.1609
     32 C         -23.1010    0.4148   29.3315 C.3     1  UNL1        0.2375
     33 O         -24.9585   -0.4350   27.9354 O.2     1  UNL1       -0.2916
     34 C         -23.2068    2.1195   26.6448 C.3     1  UNL1        0.2166
     35 C         -23.9646    0.3085   28.0669 C.2     1  UNL1        0.2000
     36 O         -21.8738    1.7780   26.8592 O.3     1  UNL1       -0.3453
     37 C         -21.3840    1.8408   27.8195 C.3     1  UNL1        0.1428
     38 C         -20.6888   -0.2573   28.4805 C.3     1  UNL1        0.0070
     39 C         -21.6354   -0.3018   29.3244 C.3     1  UNL1        0.0549
     40 C         -23.2844    2.4723   25.2128 C.2     1  UNL1        0.3380
     41 O         -23.1503    3.5904   24.8704 O.2     1  UNL1       -0.2564
     42 C         -20.0562    0.8940   28.2619 C.3     1  UNL1        0.0322
@<TRIPOS>BOND
     1     1    28    1
     2     2     7    1
     3     2     1    1
     4     3     2    2
     5     4     3    1
     6     4     5    2
     7     5     6    1
     8     6     7    2
     9     8     1    1
    10     8     9    1
    11     8    12    1
    12     9    10    1
    13    10    11    1
    14    12    11    1
    15    14    13    1
    16    14    15    1
    17    15    18    2
    18    16    17    1
    19    16    15    1
    20    19    14    2
    21    20    21    2
    22    20    19    1
    23    21    26    1
    24    22    21    1
    25    23    22    1
    26    24    23    1
    27    24    25    1
    28    26    27    1
    29    26    13    2
    30    30    13    1
    31    30    35    1
    32    31    40    1
    33    32    29    1
    34    32    28    1
    35    33    35    2
    36    34    40    1
    37    34    36    1
    38    34    30    1
    39    35    32    1
    40    36    37    1
    41    37    42    1
    42    38    39    1
    43    39    32    1
    44    41    40    2
    45    42    38    1
