@<TRIPOS>MOLECULE
outputs/IAG933/test6/raw/output_215_IAG933_linker_design_.xyz
 43 46 0 0 0
SMALL
GASTEIGER

@<TRIPOS>ATOM
      1 C         -24.8550   -1.0120   30.1430 C.3     1  UNL1        0.0829
      2 C         -24.9730   -2.5050   29.7880 C.2     1  UNL1       -0.0152
      3 C         -23.9060   -3.1730   29.1460 C.2     1  UNL1       -0.0038
      4 C         -23.9890   -4.5490   28.8530 C.2     1  UNL1       -0.0003
      5 C         -25.1370   -5.2800   29.2050 C.2     1  UNL1       -0.0000
      6 C         -26.2320   -4.6110   29.7840 C.2     1  UNL1       -0.0003
      7 C         -26.1550   -3.2320   30.0650 C.2     1  UNL1       -0.0038
      8 C         -25.3870   -0.6790   31.5710 C.3     1  UNL1        0.0828
      9 C         -25.1890    0.7730   32.0280 C.3     1  UNL1        0.0196
     10 C         -25.3360    0.6840   33.5440 C.3     1  UNL1        0.0203
     11 C         -24.8290   -0.7150   33.9050 C.3     1  UNL1        0.0887
     12 N         -24.7580   -1.4810   32.6460 N.3     1  UNL1       -0.2187
     13 C         -25.6880    1.6140   26.4610 C.2     1  UNL1        0.1033
     14 C         -26.2500    2.9200   26.3950 C.2     1  UNL1        0.0914
     15 C         -25.6420    4.0930   27.1230 C.2     1  UNL1        0.2677
     16 N         -25.6140    5.2520   26.4490 N.am    1  UNL1       -0.1997
     17 C         -25.0260    6.4790   26.9630 C.3     1  UNL1        0.1388
     18 O         -25.1430    3.9660   28.2430 O.2     1  UNL1       -0.2683
     19 C         -27.4380    3.0910   25.6450 C.2     1  UNL1        0.1080
     20 N         -28.0750    2.0890   25.0030 N.2     1  UNL1       -0.2080
     21 C         -27.5430    0.8490   25.0790 C.2     1  UNL1        0.2546
     22 O         -28.1930   -0.2080   24.4770 O.2     1  UNL1       -0.4558
     23 C         -29.4600    0.0050   23.8660 C.3     1  UNL1        0.2426
     24 C         -30.0650   -1.3770   23.5730 C.3     1  UNL1        0.2292
     25 O         -30.7290   -1.8780   24.7210 O.3     1  UNL1       -0.2162
     26 C         -26.3540    0.5760   25.7770 C.2     1  UNL1        0.2078
     27 F         -25.8600   -0.6810   25.7950 F       1  UNL1       -0.1979
     28 C         -28.2422    0.2873   28.8439 C.2     1  UNL1        0.0804
     29 C         -22.3747    1.4980   28.0222 C.3     1  UNL1        0.1348
     30 C         -25.4209   -0.1291   28.9620 C.2     1  UNL1        0.0821
     31 C         -29.2418    0.7539   29.7517 C.2     1  UNL1        0.1920
     32 C         -30.7297    0.6177   29.5249 C.3     1  UNL1        0.1790
     33 N         -24.5687    1.5867   27.2297 N.pl3   1  UNL1       -0.2332
     34 O         -30.5385   -1.4320   28.4064 O.2     1  UNL1       -0.2496
     35 C         -23.1628    0.5807   28.9551 C.3     1  UNL1        0.1333
     36 O         -28.9066    1.6000   30.6235 O.2     1  UNL1       -0.2901
     37 C         -23.2274    1.8821   26.7602 C.3     1  UNL1        0.1330
     38 N         -24.5624    0.9594   28.6097 N.pl3   1  UNL1       -0.2326
     39 N         -20.9126    1.6346   27.9531 N.3     1  UNL1       -0.1292
     40 O         -31.8680    0.0947   27.3986 O.3     1  UNL1       -0.4441
     41 C         -33.0477    0.8271   27.7499 C.3     1  UNL1        0.2556
     42 C         -26.9399    0.0785   29.0242 C.1     1  UNL1       -0.0861
     43 C         -31.0456   -0.3311   28.3834 C.2     1  UNL1        0.3251
@<TRIPOS>BOND
     1     1    30    1
     2     2     7    1
     3     2     1    1
     4     3     2    2
     5     4     3    1
     6     4     5    2
     7     5     6    1
     8     6     7    2
     9     8     1    1
    10     8     9    1
    11     8    12    1
    12     9    10    1
    13    10    11    1
    14    12    11    1
    15    13    33    1
    16    14    13    1
    17    14    15    1
    18    15    18    2
    19    16    17    1
    20    16    15    1
    21    19    14    2
    22    20    21    2
    23    20    19    1
    24    21    26    1
    25    22    21    1
    26    23    22    1
    27    24    23    1
    28    24    25    1
    29    26    27    1
    30    26    13    2
    31    28    42    2
    32    28    31    1
    33    29    39    1
    34    29    35    1
    35    30    42    2
    36    31    36    2
    37    32    31    1
    38    33    38    1
    39    37    33    1
    40    37    29    1
    41    38    35    1
    42    38    30    1
    43    40    41    1
    44    40    43    1
    45    43    34    2
    46    43    32    1
