@<TRIPOS>MOLECULE
No_2150-gen_results/8p0m/2024-11-27-11-27-31/
 10 10 0 0 0
SMALL
GASTEIGER

@<TRIPOS>ATOM
      1 C         -28.0162   -0.8135   28.8779 C.ar    1  UNL1        0.0294
      2 C         -28.4690   -0.7850   29.8287 C.ar    1  UNL1        0.1401
      3 C         -26.5042   -0.7777   28.8766 C.ar    1  UNL1       -0.0000
      4 C         -25.8103   -0.8531   30.1028 C.ar    1  UNL1        0.0022
      5 C         -27.9906   -0.8916   31.2257 C.ar    1  UNL1        0.0294
      6 C         -26.6042   -0.8676   31.2652 C.ar    1  UNL1       -0.0000
      7 F         -29.9203   -0.8331   29.8239 F       1  UNL1       -0.2042
      8 C         -24.3796   -0.8022   30.1424 C.3     1  UNL1        0.1520
      9 N         -23.8531    0.5413   30.2083 N.2     1  UNL1       -0.2625
     10 C         -22.6472    0.8112   29.6242 C.2     1  UNL1        0.1137
@<TRIPOS>BOND
     1     2     7    1
     2     4     8    1
     3     8     9    1
     4     9    10    2
     5     1     2   ar
     6     2     5   ar
     7     5     6   ar
     8     6     4   ar
     9     4     3   ar
    10     3     1   ar
