@<TRIPOS>MOLECULE
No_2152-gen_results/8p0m/2024-11-27-11-27-31/
 33 37 0 0 0
SMALL
GASTEIGER

@<TRIPOS>ATOM
      1 O         -28.1229   -1.3353   28.4874 O.2     1  UNL1       -0.2733
      2 C         -27.4806   -0.4044   28.7094 C.2     1  UNL1        0.2418
      3 C         -26.3804   -0.0867   27.9394 C.3     1  UNL1        0.0925
      4 N         -27.4232    0.1749   30.0549 N.am    1  UNL1       -0.2041
      5 C         -25.4065    0.7421   28.2860 C.3     1  UNL1        0.0513
      6 C         -25.5698    1.4353   29.5751 C.3     1  UNL1        0.1061
      7 C         -26.5341    1.0730   30.4232 C.3     1  UNL1        0.1316
      8 C         -24.3098    1.4180   27.5896 C.ar    1  UNL1        0.0146
      9 C         -23.1983    0.8470   27.3863 C.ar    1  UNL1        0.1348
     10 C         -22.0493    1.6840   26.8558 C.ar    1  UNL1        0.0366
     11 C         -24.5471    2.6937   26.8879 C.ar    1  UNL1        0.0166
     12 C         -23.5845    3.3880   26.2262 C.ar    1  UNL1        0.0014
     13 C         -22.3431    2.8386   26.2021 C.ar    1  UNL1        0.0031
     14 O         -22.8318   -0.2175   28.0992 O.3     1  UNL1       -0.4717
     15 C         -22.1590   -0.4196   29.3701 C.3     1  UNL1        0.2525
     16 CL        -24.4346    2.6057   30.1045 Cl      1  UNL1       -0.1128
     17 C         -25.9751    3.2732   26.8671 C.ar    1  UNL1        0.0811
     18 N         -26.2669    4.4142   27.4223 N.ar    1  UNL1       -0.2438
     19 C         -27.5253    4.8873   27.4386 C.ar    1  UNL1        0.0988
     20 C         -26.9491    2.6631   26.1416 C.ar    1  UNL1        0.0177
     21 C         -26.7711    1.4057   25.4214 C.ar    1  UNL1        0.0012
     22 C         -28.2471    3.1727   26.0736 C.ar    1  UNL1        0.0027
     23 C         -29.3474    2.5649   25.3573 C.ar    1  UNL1       -0.0038
     24 C         -28.4753    4.4008   26.7967 C.ar    1  UNL1        0.0207
     25 C         -27.7275    0.8531   24.6059 C.ar    1  UNL1       -0.0039
     26 C         -29.0021    1.4030   24.6868 C.ar    1  UNL1       -0.0178
     27 C         -30.0566    0.7207   23.9081 C.3     1  UNL1        0.0526
     28 C         -31.1310    0.2769   24.7514 C.ar    1  UNL1       -0.0178
     29 C         -32.0603   -0.5419   24.2749 C.ar    1  UNL1       -0.0039
     30 C         -33.1209   -0.9929   25.0891 C.ar    1  UNL1       -0.0003
     31 C         -33.2277   -0.5595   26.4314 C.ar    1  UNL1       -0.0000
     32 C         -32.2590    0.2722   26.9342 C.ar    1  UNL1       -0.0003
     33 C         -31.2383    0.7126   26.1633 C.ar    1  UNL1       -0.0039
@<TRIPOS>BOND
     1     1     2    2
     2     2     3    1
     3     2     4   am
     4     5     6    1
     5     5     8    1
     6     9    14    1
     7    14    15    1
     8     6    16    1
     9    11    17    1
    10    26    27    1
    11    27    28    1
    12     3     5    1
    13     6     7    1
    14     7     4    1
    15     8     9   ar
    16     9    10   ar
    17    10    13   ar
    18    13    12   ar
    19    12    11   ar
    20    11     8   ar
    21    20    21   ar
    22    21    25   ar
    23    25    26   ar
    24    26    23   ar
    25    23    22   ar
    26    17    18   ar
    27    18    19   ar
    28    19    24   ar
    29    24    22   ar
    30    22    20   ar
    31    20    17   ar
    32    28    29   ar
    33    29    30   ar
    34    30    31   ar
    35    31    32   ar
    36    32    33   ar
    37    33    28   ar
