@<TRIPOS>MOLECULE
No_2154-gen_results/8p0m/2024-11-27-11-27-31/
 14 15 0 0 0
SMALL
GASTEIGER

@<TRIPOS>ATOM
      1 C         -28.0162   -0.8135   28.8779 C.ar    1  UNL1       -0.0039
      2 C         -27.0636   -0.1190   28.6079 C.ar    1  UNL1       -0.0178
      3 C         -26.9287    1.1713   29.0083 C.ar    1  UNL1       -0.0039
      4 C         -27.9560    1.7411   29.7840 C.ar    1  UNL1       -0.0003
      5 C         -29.0569   -0.3271   29.7466 C.ar    1  UNL1       -0.0003
      6 C         -28.9828    0.9722   30.1516 C.ar    1  UNL1       -0.0000
      7 C         -25.8907   -0.6263   27.7857 C.3     1  UNL1        0.0523
      8 C         -24.5686   -0.1994   28.1996 C.ar    1  UNL1       -0.0217
      9 C         -23.6406   -0.6993   28.6892 C.ar    1  UNL1       -0.0255
     10 C         -23.6645   -2.0146   29.2911 C.3     1  UNL1        0.0307
     11 C         -24.3547    1.3022   27.7475 C.ar    1  UNL1       -0.0042
     12 C         -22.9932    1.6643   27.9542 C.ar    1  UNL1       -0.0003
     13 C         -22.3484   -0.0625   28.9266 C.ar    1  UNL1       -0.0046
     14 C         -22.0339    1.1133   28.4853 C.ar    1  UNL1       -0.0003
@<TRIPOS>BOND
     1     2     7    1
     2     7     8    1
     3     9    10    1
     4     1     2   ar
     5     2     3   ar
     6     3     4   ar
     7     4     6   ar
     8     6     5   ar
     9     5     1   ar
    10     8     9   ar
    11     9    13   ar
    12    13    14   ar
    13    14    12   ar
    14    12    11   ar
    15    11     8   ar
