@<TRIPOS>MOLECULE
No_2156-gen_results/8p0m/2024-11-27-11-27-31/
 32 35 0 0 0
SMALL
GASTEIGER

@<TRIPOS>ATOM
      1 C         -28.0162   -0.8135   28.8779 C.ar    1  UNL1        0.0114
      2 C         -27.0636   -0.1189   28.6079 C.ar    1  UNL1        0.0009
      3 C         -25.7923   -0.4302   29.0761 C.ar    1  UNL1        0.0001
      4 C         -24.5456    0.3494   28.8225 C.ar    1  UNL1        0.0000
      5 C         -23.2409    0.0217   29.3323 C.ar    1  UNL1        0.0000
      6 C         -27.8820   -1.8995   29.8633 C.ar    1  UNL1        0.0577
      7 C         -26.6706   -2.3272   30.3212 C.ar    1  UNL1        0.0114
      8 C         -25.5433   -1.5852   29.9316 C.ar    1  UNL1        0.0008
      9 C         -23.1716   -1.2685   29.9342 C.ar    1  UNL1        0.0000
     10 C         -24.2461   -1.9784   30.3357 C.ar    1  UNL1        0.0000
     11 C         -24.5808    1.5862   27.9921 C.ar    1  UNL1        0.0002
     12 C         -24.8062    2.6960   28.6074 C.ar    1  UNL1        0.0064
     13 C         -25.1018    3.8673   27.8507 C.ar    1  UNL1        0.0756
     14 C         -24.4215    1.4785   26.6466 C.ar    1  UNL1        0.0000
     15 C         -24.5528    2.5956   25.8403 C.ar    1  UNL1        0.0002
     16 C         -24.8329    3.8490   26.4808 C.ar    1  UNL1        0.0064
     17 CL        -29.3166   -2.8274   30.2272 Cl      1  UNL1       -0.0822
     18 C         -25.3009    5.2087   28.4773 C.2     1  UNL1        0.3413
     19 O         -25.2496    6.2541   27.8863 O.2     1  UNL1       -0.2449
     20 O         -25.6606    5.1927   29.7491 O.3     1  UNL1       -0.4411
     21 C         -26.7220    5.9589   30.1802 C.3     1  UNL1        0.2565
     22 C         -27.5544    5.3395   30.9966 C.3     1  UNL1        0.2318
     23 C         -27.1392    4.3310   31.7807 C.ar    1  UNL1        0.0209
     24 C         -27.7856    3.3218   32.2322 C.ar    1  UNL1       -0.0007
     25 C         -27.1987    2.1704   32.9263 C.ar    1  UNL1       -0.0002
     26 C         -25.8119    2.1170   32.9531 C.ar    1  UNL1       -0.0000
     27 C         -25.0271    3.1455   32.4780 C.ar    1  UNL1       -0.0002
     28 C         -25.6738    4.1832   31.8965 C.ar    1  UNL1       -0.0007
     29 O         -28.7387    4.8538   30.2459 O.2     1  UNL1       -0.4682
     30 C         -29.8019    5.6774   30.0191 C.2     1  UNL1        0.1681
     31 C         -30.4872    5.4406   29.2110 C.2     1  UNL1        0.0142
     32 C         -31.6302    6.3243   28.8698 C.3     1  UNL1        0.0341
@<TRIPOS>BOND
     1     4    11    1
     2     6    17    1
     3    13    18    1
     4    18    19    2
     5    18    20    1
     6    20    21    1
     7    21    22    1
     8    22    23    1
     9    22    29    1
    10    29    30    1
    11    30    31    2
    12    31    32    1
    13    23    24   ar
    14    24    25   ar
    15    25    26   ar
    16    26    27   ar
    17    27    28   ar
    18    28    23   ar
    19     1     2   ar
    20     2     3   ar
    21     8     7   ar
    22     7     6   ar
    23     6     1   ar
    24     3     4   ar
    25     4     5   ar
    26     5     9   ar
    27     9    10   ar
    28    10     8   ar
    29     8     3   ar
    30    11    12   ar
    31    12    13   ar
    32    13    16   ar
    33    16    15   ar
    34    15    14   ar
    35    14    11   ar
