@<TRIPOS>MOLECULE
No_2158-gen_results/8p0m/2024-11-27-11-27-31/
 13 14 0 0 0
SMALL
GASTEIGER

@<TRIPOS>ATOM
      1 C         -28.0162   -0.8135   28.8779 C.3     1  UNL1        0.1621
      2 C         -27.0636   -0.1190   28.6079 C.ar    1  UNL1        0.0971
      3 N         -25.8176   -0.3427   29.0488 N.ar    1  UNL1       -0.2449
      4 C         -24.6506    0.4444   28.7649 C.ar    1  UNL1        0.1032
      5 C         -24.7153    1.3122   27.7191 C.ar    1  UNL1        0.0773
      6 C         -25.9996    1.5243   27.1533 C.ar    1  UNL1        0.0265
      7 C         -27.0905    0.8203   27.5377 C.ar    1  UNL1        0.0962
      8 CL        -27.8878   -1.9719   30.1418 Cl      1  UNL1       -0.1019
      9 C         -23.5171    2.0651   27.3781 C.2     1  UNL1        0.2857
     10 O         -23.4203    2.5559   26.1867 O.2     1  UNL1       -0.2666
     11 N         -22.3538    1.9338   28.1375 N.am    1  UNL1       -0.0837
     12 N         -28.3545    0.6997   27.2083 N.2     1  UNL1       -0.2456
     13 C         -28.9183   -0.2145   28.0356 C.2     1  UNL1        0.0946
@<TRIPOS>BOND
     1     1     2    1
     2     1     8    1
     3     5     9    1
     4     9    10    2
     5     9    11   am
     6     7    12    1
     7     1    13    1
     8    12    13    2
     9     2     3   ar
    10     3     4   ar
    11     4     5   ar
    12     5     6   ar
    13     6     7   ar
    14     7     2   ar
