@<TRIPOS>MOLECULE
outputs/IAG933/test6/raw/output_216_IAG933_linker_design_.xyz
 39 42 0 0 0
SMALL
GASTEIGER

@<TRIPOS>ATOM
      1 C         -24.8550   -1.0120   30.1430 C.3     1  UNL1        0.2233
      2 C         -24.9730   -2.5050   29.7880 C.2     1  UNL1        0.0234
      3 C         -23.9060   -3.1730   29.1460 C.2     1  UNL1       -0.0003
      4 C         -23.9890   -4.5490   28.8530 C.2     1  UNL1       -0.0002
      5 C         -25.1370   -5.2800   29.2050 C.2     1  UNL1       -0.0000
      6 C         -26.2320   -4.6110   29.7840 C.2     1  UNL1       -0.0002
      7 C         -26.1550   -3.2320   30.0650 C.2     1  UNL1       -0.0003
      8 C         -25.3870   -0.6790   31.5710 C.3     1  UNL1        0.1218
      9 C         -25.1890    0.7730   32.0280 C.3     1  UNL1        0.0234
     10 C         -25.3360    0.6840   33.5440 C.3     1  UNL1        0.0204
     11 C         -24.8290   -0.7150   33.9050 C.3     1  UNL1        0.0889
     12 N         -24.7580   -1.4810   32.6460 N.3     1  UNL1       -0.2150
     13 C         -25.6880    1.6140   26.4610 C.2     1  UNL1        0.0455
     14 C         -26.2500    2.9200   26.3950 C.2     1  UNL1        0.0768
     15 C         -25.6420    4.0930   27.1230 C.2     1  UNL1        0.2664
     16 N         -25.6140    5.2520   26.4490 N.am    1  UNL1       -0.1997
     17 C         -25.0260    6.4790   26.9630 C.3     1  UNL1        0.1388
     18 O         -25.1430    3.9660   28.2430 O.2     1  UNL1       -0.2683
     19 C         -27.4380    3.0910   25.6450 C.2     1  UNL1        0.1067
     20 N         -28.0750    2.0890   25.0030 N.2     1  UNL1       -0.2081
     21 C         -27.5430    0.8490   25.0790 C.2     1  UNL1        0.2533
     22 O         -28.1930   -0.2080   24.4770 O.2     1  UNL1       -0.4558
     23 C         -29.4600    0.0050   23.8660 C.3     1  UNL1        0.2426
     24 C         -30.0650   -1.3770   23.5730 C.3     1  UNL1        0.2292
     25 O         -30.7290   -1.8780   24.7210 O.3     1  UNL1       -0.2162
     26 C         -26.3540    0.5760   25.7770 C.2     1  UNL1        0.1933
     27 F         -25.8600   -0.6810   25.7950 F       1  UNL1       -0.1992
     28 N         -24.2780   -0.0848   29.3032 N.pl3   1  UNL1       -0.0821
     29 N         -22.9614    0.2025   29.2117 N.pl3   1  UNL1       -0.0580
     30 N         -26.4610   -0.1410   28.5356 N.pl3   1  UNL1        0.2118
     31 C         -24.6894    1.1484   27.4128 C.2     1  UNL1        0.0966
     32 O         -21.9182    2.2768   25.2560 O.co2   1  UNL1       -0.2405
     33 C         -22.9375    1.5627   25.6553 C.2     1  UNL1        0.3891
     34 F         -20.7487    2.4726   27.3767 F       1  UNL1       -0.2275
     35 C         -21.0406    1.2711   27.9759 C.3     1  UNL1        0.2398
     36 O         -23.5605    1.0615   24.6818 O.co2   1  UNL1       -0.2405
     37 C         -23.3745    1.2605   27.0762 C.2     1  UNL1        0.1043
     38 C         -22.5185    0.8724   28.1253 C.2     1  UNL1        0.1300
     39 C         -25.0922    0.3352   28.4578 C.2     1  UNL1        0.3867
@<TRIPOS>BOND
     1     1     2    1
     2     2     7    1
     3     3     2    2
     4     4     3    1
     5     4     5    2
     6     5     6    1
     7     6     7    2
     8     8     1    1
     9     8     9    1
    10     8    12    1
    11     9    10    1
    12    10    11    1
    13    12    11    1
    14    13    31    1
    15    14    13    1
    16    14    15    1
    17    15    18    2
    18    16    17    1
    19    16    15    1
    20    19    14    2
    21    20    21    2
    22    20    19    1
    23    21    26    1
    24    22    21    1
    25    23    22    1
    26    24    23    1
    27    24    25    1
    28    26    27    1
    29    26    13    2
    30    28     1    1
    31    29    28    1
    32    31    39    2
    33    32    33   ar
    34    33    37    1
    35    34    35    1
    36    35    38    1
    37    36    33   ar
    38    37    31    1
    39    37    38    2
    40    38    29    1
    41    39    30    1
    42    39    28    1
