@<TRIPOS>MOLECULE
No_2160-gen_results/8p0m/2024-11-27-11-27-31/
 19 20 0 0 0
SMALL
GASTEIGER

@<TRIPOS>ATOM
      1 C         -28.0162   -0.8135   28.8779 C.ar    1  UNL1        0.0225
      2 C         -28.4690   -0.7850   29.8287 C.ar    1  UNL1        0.0585
      3 C         -26.5042   -0.7777   28.8766 C.ar    1  UNL1        0.0545
      4 C         -25.8103   -0.8531   30.1028 C.ar    1  UNL1       -0.0115
      5 C         -27.9906   -0.8916   31.2257 C.ar    1  UNL1        0.0111
      6 C         -26.6042   -0.8676   31.2652 C.ar    1  UNL1       -0.0026
      7 CL        -30.3170   -0.9202   29.9223 Cl      1  UNL1       -0.0822
      8 C         -24.3704   -0.8041   30.1340 C.3     1  UNL1        0.0275
      9 C         -23.8030    0.5560   30.1126 C.3     1  UNL1        0.0084
     10 C         -23.3829    1.1094   28.8949 C.3     1  UNL1        0.0227
     11 C         -23.9978    2.2212   28.2698 C.ar    1  UNL1       -0.0225
     12 C         -24.9823    2.8959   28.8807 C.ar    1  UNL1       -0.0043
     13 C         -25.6322    3.9694   28.2632 C.ar    1  UNL1       -0.0003
     14 C         -25.2348    4.2433   26.9650 C.ar    1  UNL1       -0.0000
     15 C         -24.3072    3.5397   26.2187 C.ar    1  UNL1       -0.0003
     16 C         -23.6423    2.5161   26.9276 C.ar    1  UNL1       -0.0043
     17 C         -22.1355    0.5291   28.4497 C.3     1  UNL1        0.0047
     18 CL        -25.7143   -0.5793   27.3915 Cl      1  UNL1       -0.0825
     19 C         -22.7891    0.8530   31.2685 C.3     1  UNL1        0.0007
@<TRIPOS>BOND
     1     2     7    1
     2     4     8    1
     3     8     9    1
     4     9    10    1
     5    10    11    1
     6    10    17    1
     7     3    18    1
     8     9    19    1
     9    11    12   ar
    10    12    13   ar
    11    13    14   ar
    12    14    15   ar
    13    15    16   ar
    14    16    11   ar
    15     1     2   ar
    16     2     5   ar
    17     5     6   ar
    18     6     4   ar
    19     4     3   ar
    20     3     1   ar
