@<TRIPOS>MOLECULE
No_2164-gen_results/8p0m/2024-11-27-11-27-31/
 35 36 0 0 0
SMALL
GASTEIGER

@<TRIPOS>ATOM
      1 C         -28.0162   -0.8135   28.8779 C.ar    1  UNL1        0.0776
      2 C         -27.0636   -0.1189   28.6079 C.ar    1  UNL1        0.0130
      3 C         -26.9716    0.7139   27.5060 C.ar    1  UNL1        0.0771
      4 C         -28.1053    0.7744   26.6421 C.ar    1  UNL1        0.0218
      5 C         -29.2008    0.1044   27.0527 C.ar    1  UNL1        0.0618
      6 C         -29.2096   -0.6029   28.1853 C.ar    1  UNL1        0.0218
      7 N         -30.4185    0.1274   26.3886 N.am    1  UNL1       -0.2008
      8 C         -31.3229    1.0430   26.5965 C.ar    1  UNL1        0.0614
      9 C         -31.3503    1.7902   27.5397 C.ar    1  UNL1        0.0153
     10 C         -32.4448    2.8177   27.7139 C.ar    1  UNL1        0.0013
     11 C         -33.4173    2.7771   26.7175 C.ar    1  UNL1        0.0001
     12 C         -32.3459    1.0250   25.5197 C.ar    1  UNL1        0.0153
     13 C         -33.3477    1.9573   25.6527 C.ar    1  UNL1        0.0013
     14 C         -30.4943   -0.9051   25.3346 C.2     1  UNL1        0.4546
     15 O         -31.3509   -1.5912   25.2013 O.co2   1  UNL1       -0.2216
     16 O         -29.4383   -0.8232   24.4185 O.co2   1  UNL1       -0.2216
     17 C         -28.0096   -1.7059   30.1108 C.2     1  UNL1        0.3478
     18 O         -28.6655   -1.7484   30.9383 O.2     1  UNL1       -0.2444
     19 O         -26.8205   -2.4063   30.0706 O.3     1  UNL1       -0.3890
     20 C         -26.9491   -3.7993   29.8091 C.2     1  UNL1        0.3282
     21 C         -25.6846   -4.4314   29.4431 C.3     1  UNL1        0.1361
     22 C         -24.6600   -3.5743   29.0925 C.2     1  UNL1       -0.0145
     23 C         -24.4291   -2.4663   29.0569 C.2     1  UNL1       -0.0047
     24 C         -23.1336   -1.7441   28.7109 C.2     1  UNL1       -0.0086
     25 C         -22.7437   -0.4680   29.2447 C.2     1  UNL1       -0.0383
     26 C         -21.7384    0.2377   28.6464 C.3     1  UNL1        0.0265
     27 C         -23.4986    0.1126   30.3767 C.3     1  UNL1        0.0944
     28 C         -23.5749    1.5954   30.3990 C.3     1  UNL1        0.3225
     29 F         -22.5395    2.1754   29.8982 F       1  UNL1       -0.1981
     30 F         -24.4942    2.1262   30.9653 F       1  UNL1       -0.1981
     31 O         -28.0692   -4.3064   29.8765 O.2     1  UNL1       -0.2492
     32 C         -25.7099    1.4673   27.1219 C.2     1  UNL1        0.3414
     33 O         -25.6489    2.1772   26.2563 O.2     1  UNL1       -0.2449
     34 O         -24.7045    1.2429   28.0234 O.3     1  UNL1       -0.4413
     35 C         -23.4727    1.8075   27.6009 C.3     1  UNL1        0.2560
@<TRIPOS>BOND
     1     5     7    1
     2     7     8    1
     3     7    14   am
     4    14    15   ar
     5    14    16   ar
     6     1    17    1
     7    17    18    2
     8    17    19    1
     9    19    20    1
    10    20    21    1
    11    21    22    1
    12    22    23    2
    13    23    24    1
    14    24    25    2
    15    25    26    1
    16    25    27    1
    17    27    28    1
    18    28    29    1
    19    28    30    1
    20    20    31    2
    21     3    32    1
    22    32    33    2
    23    32    34    1
    24    34    35    1
    25     1     2   ar
    26     2     3   ar
    27     3     4   ar
    28     4     5   ar
    29     5     6   ar
    30     6     1   ar
    31     8     9   ar
    32     9    10   ar
    33    10    11   ar
    34    11    13   ar
    35    13    12   ar
    36    12     8   ar
