@<TRIPOS>MOLECULE
outputs/IAG933/test6/raw/output_2166_IAG933_linker_design_.xyz
 41 45 0 0 0
SMALL
GASTEIGER

@<TRIPOS>ATOM
      1 C         -24.8550   -1.0120   30.1430 C.3     1  UNL1        0.1537
      2 C         -24.9730   -2.5050   29.7880 C.2     1  UNL1        0.0059
      3 C         -23.9060   -3.1730   29.1460 C.2     1  UNL1       -0.0019
      4 C         -23.9890   -4.5490   28.8530 C.2     1  UNL1       -0.0002
      5 C         -25.1370   -5.2800   29.2050 C.2     1  UNL1       -0.0000
      6 C         -26.2320   -4.6110   29.7840 C.2     1  UNL1       -0.0002
      7 C         -26.1550   -3.2320   30.0650 C.2     1  UNL1       -0.0019
      8 C         -25.3870   -0.6790   31.5710 C.3     1  UNL1        0.1041
      9 C         -25.1890    0.7730   32.0280 C.3     1  UNL1        0.0217
     10 C         -25.3360    0.6840   33.5440 C.3     1  UNL1        0.0203
     11 C         -24.8290   -0.7150   33.9050 C.3     1  UNL1        0.0888
     12 N         -24.7580   -1.4810   32.6460 N.3     1  UNL1       -0.2166
     13 C         -25.6880    1.6140   26.4610 C.3     1  UNL1        0.1125
     14 C         -26.2500    2.9200   26.3950 C.2     1  UNL1        0.0605
     15 C         -25.6420    4.0930   27.1230 C.2     1  UNL1        0.2628
     16 N         -25.6140    5.2520   26.4490 N.am    1  UNL1       -0.2000
     17 C         -25.0260    6.4790   26.9630 C.3     1  UNL1        0.1388
     18 O         -25.1430    3.9660   28.2430 O.2     1  UNL1       -0.2686
     19 C         -27.4380    3.0910   25.6450 C.2     1  UNL1        0.1025
     20 N         -28.0750    2.0890   25.0030 N.2     1  UNL1       -0.2118
     21 C         -27.5430    0.8490   25.0790 C.2     1  UNL1        0.2345
     22 O         -28.1930   -0.2080   24.4770 O.2     1  UNL1       -0.4585
     23 C         -29.4600    0.0050   23.8660 C.3     1  UNL1        0.2423
     24 C         -30.0650   -1.3770   23.5730 C.3     1  UNL1        0.2292
     25 O         -30.7290   -1.8780   24.7210 O.3     1  UNL1       -0.2162
     26 C         -26.3540    0.5760   25.7770 C.3     1  UNL1        0.2456
     27 F         -25.8600   -0.6810   25.7950 F       1  UNL1       -0.2265
     28 C         -22.4466   -0.1353   29.5308 C.3     1  UNL1        0.1551
     29 C         -21.7340    1.0316   27.4401 C.ar    1  UNL1        0.0533
     30 C         -21.9377    1.3356   26.1246 C.ar    1  UNL1        0.1681
     31 C         -24.3109    1.2884   26.7224 C.ar    1  UNL1        0.0953
     32 C         -21.0493   -0.8403   29.4531 C.3     1  UNL1        0.0387
     33 F         -20.9499    1.4105   25.2761 F       1  UNL1       -0.2020
     34 C         -20.6552    1.0273   28.1554 C.3     1  UNL1        0.1778
     35 C         -22.8637    0.5579   28.2987 C.ar    1  UNL1        0.0863
     36 C         -20.7129   -0.6469   28.2872 C.3     1  UNL1        0.0405
     37 O         -19.5517    1.9245   28.1821 O.3     1  UNL1       -0.2182
     38 C         -23.3047    1.4126   25.7117 C.ar    1  UNL1        0.1810
     39 O         -23.6545   -0.6784   30.1510 O.3     1  UNL1       -0.3470
     40 N         -24.0736    0.7527   27.9111 N.ar    1  UNL1       -0.2490
     41 F         -23.5379    1.5062   24.4087 F       1  UNL1       -0.2005
@<TRIPOS>BOND
     1     1    39    1
     2     2     7    1
     3     2     1    1
     4     3     2    2
     5     4     3    1
     6     4     5    2
     7     5     6    1
     8     6     7    2
     9     8     1    1
    10     8     9    1
    11     8    12    1
    12     9    10    1
    13    10    11    1
    14    12    11    1
    15    13    31    1
    16    14    13    1
    17    14    15    1
    18    15    18    2
    19    16    17    1
    20    16    15    1
    21    19    14    2
    22    20    21    2
    23    20    19    1
    24    21    26    1
    25    22    21    1
    26    23    22    1
    27    24    23    1
    28    24    25    1
    29    26    27    1
    30    26    13    1
    31    28    39    1
    32    29    34    1
    33    29    35   ar
    34    30    29   ar
    35    31    40   ar
    36    32    28    1
    37    33    30    1
    38    34    37    1
    39    34    36    1
    40    35    28    1
    41    36    32    1
    42    38    30   ar
    43    38    31   ar
    44    40    35   ar
    45    41    38    1
