@<TRIPOS>MOLECULE
outputs/IAG933/test6/raw/output_2169_IAG933_linker_design_.xyz
 45 49 0 0 0
SMALL
GASTEIGER

@<TRIPOS>ATOM
      1 C         -24.8550   -1.0120   30.1430 C.3     1  UNL1        0.1182
      2 C         -24.9730   -2.5050   29.7880 C.2     1  UNL1       -0.0026
      3 C         -23.9060   -3.1730   29.1460 C.2     1  UNL1       -0.0026
      4 C         -23.9890   -4.5490   28.8530 C.2     1  UNL1       -0.0003
      5 C         -25.1370   -5.2800   29.2050 C.2     1  UNL1       -0.0000
      6 C         -26.2320   -4.6110   29.7840 C.2     1  UNL1       -0.0003
      7 C         -26.1550   -3.2320   30.0650 C.2     1  UNL1       -0.0026
      8 C         -25.3870   -0.6790   31.5710 C.3     1  UNL1        0.0955
      9 C         -25.1890    0.7730   32.0280 C.3     1  UNL1        0.0209
     10 C         -25.3360    0.6840   33.5440 C.3     1  UNL1        0.0203
     11 C         -24.8290   -0.7150   33.9050 C.3     1  UNL1        0.0888
     12 N         -24.7580   -1.4810   32.6460 N.3     1  UNL1       -0.2174
     13 C         -25.6880    1.6140   26.4610 C.2     1  UNL1        0.0432
     14 C         -26.2500    2.9200   26.3950 C.2     1  UNL1        0.0767
     15 C         -25.6420    4.0930   27.1230 C.2     1  UNL1        0.2664
     16 N         -25.6140    5.2520   26.4490 N.am    1  UNL1       -0.1997
     17 C         -25.0260    6.4790   26.9630 C.3     1  UNL1        0.1388
     18 O         -25.1430    3.9660   28.2430 O.2     1  UNL1       -0.2683
     19 C         -27.4380    3.0910   25.6450 C.2     1  UNL1        0.1067
     20 N         -28.0750    2.0890   25.0030 N.2     1  UNL1       -0.2081
     21 C         -27.5430    0.8490   25.0790 C.2     1  UNL1        0.2533
     22 O         -28.1930   -0.2080   24.4770 O.2     1  UNL1       -0.4558
     23 C         -29.4600    0.0050   23.8660 C.3     1  UNL1        0.2426
     24 C         -30.0650   -1.3770   23.5730 C.3     1  UNL1        0.2292
     25 O         -30.7290   -1.8780   24.7210 O.3     1  UNL1       -0.2162
     26 C         -26.3540    0.5760   25.7770 C.2     1  UNL1        0.1932
     27 F         -25.8600   -0.6810   25.7950 F       1  UNL1       -0.1992
     28 C         -25.1497    0.6165   28.5707 C.2     1  UNL1        0.1987
     29 CL        -22.9160    2.3238   25.3314 Cl      1  UNL1       -0.0798
     30 C         -31.7119    0.4916   29.0789 C.2     1  UNL1        0.0420
     31 C         -28.9229    0.6930   29.3861 C.2     1  UNL1        0.0244
     32 C         -22.1009    0.3923   28.6580 C.2     1  UNL1        0.0467
     33 O         -26.5761    0.0904   28.6398 O.2     1  UNL1       -0.4580
     34 O         -31.4156   -1.1242   27.3633 O.2     1  UNL1       -0.2866
     35 N         -24.3293   -0.0892   29.3293 N.pl3   1  UNL1       -0.2539
     36 C         -29.4403   -0.2655   28.4863 C.2     1  UNL1        0.0413
     37 C         -31.1761    1.4337   29.9517 C.2     1  UNL1        0.0031
     38 C         -24.6757    1.2562   27.2882 C.2     1  UNL1        0.0644
     39 C         -23.0070   -0.0868   29.4435 C.2     1  UNL1        0.0703
     40 C         -27.3821    0.8848   29.5325 C.3     1  UNL1        0.2335
     41 F         -20.9687    1.7095   27.2195 F       1  UNL1       -0.2032
     42 C         -23.2693    1.4975   26.8549 C.2     1  UNL1        0.0894
     43 C         -30.8311   -0.3682   28.2962 C.2     1  UNL1        0.1955
     44 C         -22.1132    1.2054   27.5750 C.2     1  UNL1        0.1520
     45 C         -29.7973    1.5133   30.1313 C.2     1  UNL1       -0.0005
@<TRIPOS>BOND
     1     1     2    1
     2     2     7    1
     3     3     2    2
     4     4     3    1
     5     4     5    2
     6     5     6    1
     7     6     7    2
     8     8     1    1
     9     8     9    1
    10     8    12    1
    11     9    10    1
    12    10    11    1
    13    12    11    1
    14    13    38    1
    15    14    13    1
    16    14    15    1
    17    15    18    2
    18    16    17    1
    19    16    15    1
    20    19    14    2
    21    20    21    2
    22    20    19    1
    23    21    26    1
    24    22    21    1
    25    23    22    1
    26    24    23    1
    27    24    25    1
    28    26    27    1
    29    26    13    2
    30    28    33    1
    31    28    35    1
    32    29    42    1
    33    30    37    1
    34    31    40    1
    35    31    45    1
    36    32    39    2
    37    33    40    1
    38    34    43    1
    39    35    39    1
    40    35     1    1
    41    36    31    2
    42    37    45    2
    43    38    28    2
    44    41    44    1
    45    42    38    1
    46    42    44    2
    47    43    36    1
    48    43    30    2
    49    44    32    1
