@<TRIPOS>MOLECULE
outputs/IAG933/test6/raw/output_2173_IAG933_linker_design_.xyz
 49 53 0 0 0
SMALL
GASTEIGER

@<TRIPOS>ATOM
      1 C         -24.8550   -1.0120   30.1430 C.3     1  UNL1        0.0442
      2 C         -24.9730   -2.5050   29.7880 C.2     1  UNL1       -0.0208
      3 C         -23.9060   -3.1730   29.1460 C.2     1  UNL1       -0.0042
      4 C         -23.9890   -4.5490   28.8530 C.2     1  UNL1       -0.0003
      5 C         -25.1370   -5.2800   29.2050 C.2     1  UNL1       -0.0000
      6 C         -26.2320   -4.6110   29.7840 C.2     1  UNL1       -0.0003
      7 C         -26.1550   -3.2320   30.0650 C.2     1  UNL1       -0.0042
      8 C         -25.3870   -0.6790   31.5710 C.3     1  UNL1        0.0857
      9 C         -25.1890    0.7730   32.0280 C.3     1  UNL1        0.0948
     10 C         -25.3360    0.6840   33.5440 C.3     1  UNL1        0.0293
     11 C         -24.8290   -0.7150   33.9050 C.3     1  UNL1        0.0892
     12 N         -24.7580   -1.4810   32.6460 N.3     1  UNL1       -0.2186
     13 C         -25.6880    1.6140   26.4610 C.3     1  UNL1        0.0938
     14 C         -26.2500    2.9200   26.3950 C.2     1  UNL1        0.0589
     15 C         -25.6420    4.0930   27.1230 C.2     1  UNL1        0.2628
     16 N         -25.6140    5.2520   26.4490 N.am    1  UNL1       -0.2000
     17 C         -25.0260    6.4790   26.9630 C.3     1  UNL1        0.1388
     18 O         -25.1430    3.9660   28.2430 O.2     1  UNL1       -0.2686
     19 C         -27.4380    3.0910   25.6450 C.2     1  UNL1        0.1025
     20 N         -28.0750    2.0890   25.0030 N.2     1  UNL1       -0.2118
     21 C         -27.5430    0.8490   25.0790 C.2     1  UNL1        0.2344
     22 O         -28.1930   -0.2080   24.4770 O.2     1  UNL1       -0.4585
     23 C         -29.4600    0.0050   23.8660 C.3     1  UNL1        0.2423
     24 C         -30.0650   -1.3770   23.5730 C.3     1  UNL1        0.2292
     25 O         -30.7290   -1.8780   24.7210 O.3     1  UNL1       -0.2162
     26 C         -26.3540    0.5760   25.7770 C.3     1  UNL1        0.2440
     27 F         -25.8600   -0.6810   25.7950 F       1  UNL1       -0.2265
     28 C         -23.1910    1.7439   25.7735 C.2     1  UNL1       -0.0024
     29 N         -24.8247    1.9243   29.1740 N.2     1  UNL1       -0.2278
     30 C         -28.9094    3.5236   34.1963 C.cat   1  UNL1        0.5792
     31 C         -22.3988    1.7858   28.4983 C.2     1  UNL1        0.0188
     32 O         -27.2569    1.4068   30.7388 O.2     1  UNL1       -0.2744
     33 N         -28.9409    2.4896   35.0386 N.pl3   1  UNL1        0.1452
     34 N         -25.7758    3.0949   31.2405 N.am    1  UNL1       -0.2314
     35 C         -21.4153    1.8720   27.4848 C.2     1  UNL1        0.0015
     36 C         -24.9313    3.0096   30.1579 C.2     1  UNL1        0.1701
     37 C         -26.1067    1.8410   31.3064 C.2     1  UNL1        0.2318
     38 C         -25.1062    5.5905   34.4445 C.3     1  UNL1        0.2631
     39 C         -24.1671    1.6404   26.7989 C.2     1  UNL1        0.0027
     40 C         -26.8861    4.1665   33.0998 C.2     1  UNL1        0.3714
     41 N         -28.1257    3.5793   33.1292 N.pl3   1  UNL1        0.0401
     42 N         -29.7222    4.5958   34.5047 N.pl3   1  UNL1        0.1452
     43 N         -26.2800    4.6681   34.2824 N.2     1  UNL1       -0.0625
     44 C         -26.1416    4.2381   31.9497 C.3     1  UNL1        0.1924
     45 C         -25.7231    6.7961   32.1964 C.3     1  UNL1        0.0069
     46 C         -23.7901    1.7650   28.1635 C.2     1  UNL1        0.0793
     47 C         -21.8152    1.9018   26.1077 C.2     1  UNL1       -0.0002
     48 C         -25.7616    5.4888   31.3298 C.3     1  UNL1        0.0332
     49 C         -24.7031    6.6811   33.3830 C.3     1  UNL1        0.0579
@<TRIPOS>BOND
     1     2     7    1
     2     2     1    1
     3     3     2    2
     4     4     3    1
     5     4     5    2
     6     5     6    1
     7     6     7    2
     8     8     1    1
     9     8     9    1
    10     8    12    1
    11     9    37    1
    12     9    10    1
    13    10    11    1
    14    12    11    1
    15    13    39    1
    16    14    13    1
    17    14    15    1
    18    15    18    2
    19    16    17    1
    20    16    15    1
    21    19    14    2
    22    20    21    2
    23    20    19    1
    24    21    26    1
    25    22    21    1
    26    23    22    1
    27    24    23    1
    28    24    25    1
    29    26    27    1
    30    26    13    1
    31    28    47    2
    32    28    39    1
    33    29    36    2
    34    30    42    1
    35    30    33    1
    36    32    37    2
    37    34    37   am
    38    35    31    2
    39    36    34    1
    40    39    46    2
    41    40    41    1
    42    40    43    2
    43    41    30    2
    44    43    38    1
    45    44    34    1
    46    44    40    1
    47    45    49    1
    48    46    31    1
    49    46    29    1
    50    47    35    1
    51    48    44    1
    52    48    45    1
    53    49    38    1
