@<TRIPOS>MOLECULE
No_2175-gen_results/8p0m/2024-11-27-11-27-31/
 25 27 0 0 0
SMALL
GASTEIGER

@<TRIPOS>ATOM
      1 C         -28.0162   -0.8135   28.8779 C.ar    1  UNL1       -0.0001
      2 C         -28.4690   -0.7850   29.8287 C.ar    1  UNL1        0.0711
      3 C         -26.5455   -0.8762   28.8500 C.ar    1  UNL1       -0.0178
      4 C         -25.8041   -1.0324   30.0571 C.ar    1  UNL1       -0.0039
      5 C         -26.5373   -1.0386   31.2171 C.ar    1  UNL1       -0.0004
      6 C         -27.8929   -0.9601   31.1743 C.ar    1  UNL1        0.0038
      7 C         -25.7125   -0.8096   27.6257 C.3     1  UNL1        0.0527
      8 C         -25.2577    0.5491   27.2553 C.ar    1  UNL1       -0.0147
      9 C         -25.6475    1.0216   26.0450 C.ar    1  UNL1        0.0353
     10 C         -24.4371    1.3429   28.0849 C.ar    1  UNL1       -0.0038
     11 C         -23.9581    2.5574   27.6046 C.ar    1  UNL1       -0.0003
     12 C         -26.5350    0.3048   25.1805 C.2     1  UNL1        0.1953
     13 C         -24.2650    2.9773   26.2836 C.ar    1  UNL1        0.0001
     14 C         -25.1273    2.2284   25.5502 C.ar    1  UNL1        0.0029
     15 C         -27.9450    0.5432   25.1727 C.ar    1  UNL1        0.0389
     16 C         -28.4018    1.4902   26.0495 C.ar    1  UNL1        0.0032
     17 C         -29.7803    1.7982   26.0941 C.ar    1  UNL1        0.0001
     18 C         -30.6215    1.0797   25.2917 C.ar    1  UNL1        0.0000
     19 C         -30.1333    0.1908   24.3189 C.ar    1  UNL1        0.0001
     20 C         -28.7768   -0.0856   24.2789 C.ar    1  UNL1        0.0032
     21 O         -26.0124   -0.6392   24.4485 O.2     1  UNL1       -0.2866
     22 C         -30.0772   -0.6338   29.9246 C.3     1  UNL1        0.4186
     23 F         -30.5680   -1.6181   29.5128 F       1  UNL1       -0.1659
     24 F         -30.4337    0.4524   29.1671 F       1  UNL1       -0.1659
     25 F         -30.5263   -0.2948   31.1130 F       1  UNL1       -0.1659
@<TRIPOS>BOND
     1     3     7    1
     2     7     8    1
     3     9    12    1
     4    12    15    1
     5    12    21    2
     6     2    22    1
     7    22    23    1
     8    22    24    1
     9    22    25    1
    10    15    16   ar
    11    16    17   ar
    12    17    18   ar
    13    18    19   ar
    14    19    20   ar
    15    20    15   ar
    16     1     2   ar
    17     2     6   ar
    18     6     5   ar
    19     5     4   ar
    20     4     3   ar
    21     3     1   ar
    22     8     9   ar
    23     9    14   ar
    24    14    13   ar
    25    13    11   ar
    26    11    10   ar
    27    10     8   ar
