@<TRIPOS>MOLECULE
outputs/IAG933/test6/raw/output_2177_IAG933_linker_design_.xyz
 44 48 0 0 0
SMALL
GASTEIGER

@<TRIPOS>ATOM
      1 C         -24.8550   -1.0120   30.1430 C.3     1  UNL1        0.0790
      2 C         -24.9730   -2.5050   29.7880 C.2     1  UNL1       -0.0155
      3 C         -23.9060   -3.1730   29.1460 C.2     1  UNL1       -0.0039
      4 C         -23.9890   -4.5490   28.8530 C.2     1  UNL1       -0.0003
      5 C         -25.1370   -5.2800   29.2050 C.2     1  UNL1       -0.0000
      6 C         -26.2320   -4.6110   29.7840 C.2     1  UNL1       -0.0003
      7 C         -26.1550   -3.2320   30.0650 C.2     1  UNL1       -0.0039
      8 C         -25.3870   -0.6790   31.5710 C.3     1  UNL1        0.0824
      9 C         -25.1890    0.7730   32.0280 C.3     1  UNL1        0.0196
     10 C         -25.3360    0.6840   33.5440 C.3     1  UNL1        0.0203
     11 C         -24.8290   -0.7150   33.9050 C.3     1  UNL1        0.0887
     12 N         -24.7580   -1.4810   32.6460 N.3     1  UNL1       -0.2187
     13 C         -25.6880    1.6140   26.4610 C.2     1  UNL1        0.0384
     14 C         -26.2500    2.9200   26.3950 C.2     1  UNL1        0.0765
     15 C         -25.6420    4.0930   27.1230 C.2     1  UNL1        0.2664
     16 N         -25.6140    5.2520   26.4490 N.am    1  UNL1       -0.1997
     17 C         -25.0260    6.4790   26.9630 C.3     1  UNL1        0.1388
     18 O         -25.1430    3.9660   28.2430 O.2     1  UNL1       -0.2683
     19 C         -27.4380    3.0910   25.6450 C.2     1  UNL1        0.1067
     20 N         -28.0750    2.0890   25.0030 N.2     1  UNL1       -0.2081
     21 C         -27.5430    0.8490   25.0790 C.2     1  UNL1        0.2533
     22 O         -28.1930   -0.2080   24.4770 O.2     1  UNL1       -0.4558
     23 C         -29.4600    0.0050   23.8660 C.3     1  UNL1        0.2426
     24 C         -30.0650   -1.3770   23.5730 C.3     1  UNL1        0.2292
     25 O         -30.7290   -1.8780   24.7210 O.3     1  UNL1       -0.2162
     26 C         -26.3540    0.5760   25.7770 C.2     1  UNL1        0.1931
     27 F         -25.8600   -0.6810   25.7950 F       1  UNL1       -0.1992
     28 S         -26.7834   -0.0949   28.4612 S.3     1  UNL1       -0.1077
     29 F         -21.0906    1.2309   27.8657 F       1  UNL1       -0.1836
     30 C         -28.2148    3.9580   29.3006 C.2     1  UNL1       -0.0217
     31 C         -24.5887    1.2258   27.3249 C.ar    1  UNL1        0.0091
     32 N         -22.7693    0.1810   29.0878 N.ar    1  UNL1       -0.2218
     33 C         -28.5723    2.6239   29.2031 C.2     1  UNL1       -0.0076
     34 C         -22.8416    2.2764   25.8996 C.3     1  UNL1        0.0351
     35 C         -27.3399    4.0889   31.6656 C.2     1  UNL1       -0.0214
     36 C         -22.4085    1.0112   28.0414 C.ar    1  UNL1        0.2179
     37 C         -27.7348    2.7952   32.1225 C.2     1  UNL1       -0.0045
     38 C         -24.9792    0.3778   28.3065 C.ar    1  UNL1        0.0394
     39 C         -24.1133   -0.1362   29.2239 C.ar    1  UNL1        0.0720
     40 C         -28.1571    1.6557   31.4258 C.2     1  UNL1       -0.0037
     41 C         -28.3793    1.5029   29.9898 C.2     1  UNL1       -0.0113
     42 C         -28.3709    0.2261   29.2905 C.3     1  UNL1        0.0884
     43 C         -27.5225    4.6067   30.3653 C.3     1  UNL1        0.0520
     44 C         -23.2852    1.5407   27.1034 C.ar    1  UNL1        0.0246
@<TRIPOS>BOND
     1     1    39    1
     2     2     7    1
     3     2     1    1
     4     3     2    2
     5     4     3    1
     6     4     5    2
     7     5     6    1
     8     6     7    2
     9     8     1    1
    10     8     9    1
    11     8    12    1
    12     9    10    1
    13    10    11    1
    14    12    11    1
    15    13    31    1
    16    14    13    1
    17    14    15    1
    18    15    18    2
    19    16    17    1
    20    16    15    1
    21    19    14    2
    22    20    21    2
    23    20    19    1
    24    21    26    1
    25    22    21    1
    26    23    22    1
    27    24    23    1
    28    24    25    1
    29    26    27    1
    30    26    13    2
    31    28    42    1
    32    29    36    1
    33    30    43    1
    34    31    38   ar
    35    32    39   ar
    36    33    30    2
    37    33    41    1
    38    34    44    1
    39    35    37    2
    40    36    32   ar
    41    38    28    1
    42    38    39   ar
    43    40    37    1
    44    41    40    2
    45    42    41    1
    46    43    35    1
    47    44    31   ar
    48    44    36   ar
