@<TRIPOS>MOLECULE
No_2184-gen_results/8p0m/2024-11-27-11-27-31/
 29 34 0 0 0
SMALL
GASTEIGER

@<TRIPOS>ATOM
      1 C         -28.0162   -0.8135   28.8779 C.ar    1  UNL1        0.0043
      2 C         -27.0636   -0.1189   28.6079 C.ar    1  UNL1       -0.0014
      3 C         -25.7923   -0.4302   29.0761 C.ar    1  UNL1       -0.0183
      4 C         -25.5756   -1.5654   29.9363 C.ar    1  UNL1       -0.0038
      5 C         -26.7354   -2.3004   30.2173 C.ar    1  UNL1        0.0042
      6 C         -27.9184   -1.9537   29.7629 C.ar    1  UNL1        0.0536
      7 C         -27.1057    1.1023   27.7593 C.ar    1  UNL1        0.0269
      8 C         -27.8576    1.5309   27.2156 C.ar    1  UNL1        0.1401
      9 C         -27.8433    2.7213   26.2861 C.ar    1  UNL1        0.0296
     10 C         -26.6217    3.3253   26.0566 C.ar    1  UNL1        0.0023
     11 C         -25.4854    2.7960   26.6725 C.ar    1  UNL1       -0.0002
     12 C         -25.6222    1.7365   27.5193 C.ar    1  UNL1       -0.0018
     13 C         -24.1950    3.4456   26.4809 C.ar    1  UNL1       -0.0003
     14 C         -23.0515    2.5919   26.8713 C.ar    1  UNL1       -0.0046
     15 C         -23.3205    1.5393   27.7878 C.ar    1  UNL1       -0.0258
     16 C         -24.5158    1.0792   28.0506 C.ar    1  UNL1       -0.0223
     17 C         -24.5218    0.2708   28.8053 C.3     1  UNL1        0.0445
     18 C         -22.1456    0.8744   28.3892 C.3     1  UNL1        0.0267
     19 C         -23.3358   -0.3518   29.3769 C.3     1  UNL1        0.0124
     20 C         -29.1414   -2.7272   30.1343 C.2     1  UNL1        0.2490
     21 N         -29.4907   -2.5665   31.3131 N.am    1  UNL1       -0.2761
     22 C         -29.5333   -1.5642   31.9213 C.3     1  UNL1        0.0937
     23 C         -29.9320   -1.5593   33.3913 C.3     1  UNL1        0.0216
     24 C         -29.9748   -3.8465   32.0013 C.3     1  UNL1        0.0937
     25 C         -30.2529   -3.8694   33.3383 C.3     1  UNL1        0.0216
     26 C         -30.3168   -2.6580   34.0335 C.3     1  UNL1        0.0035
     27 O         -29.8625   -3.1089   29.2768 O.2     1  UNL1       -0.2699
     28 C         -22.6766   -1.1899   30.1442 C.3     1  UNL1        0.0010
     29 F         -29.1829    1.1037   27.3050 F       1  UNL1       -0.2042
@<TRIPOS>BOND
     1     2     7    1
     2     3    17    1
     3    16    17    1
     4    15    18    1
     5    17    19    1
     6    18    19    1
     7     6    20    1
     8    20    21   am
     9    21    22    1
    10    21    24    1
    11    23    26    1
    12    25    26    1
    13    20    27    2
    14    19    28    1
    15     8    29    1
    16    22    23    1
    17    25    24    1
    18     1     2   ar
    19     2     3   ar
    20     3     4   ar
    21     4     5   ar
    22     5     6   ar
    23     6     1   ar
    24    12    16   ar
    25    16    15   ar
    26    15    14   ar
    27    14    13   ar
    28    13    11   ar
    29     7     8   ar
    30     8     9   ar
    31     9    10   ar
    32    10    11   ar
    33    11    12   ar
    34    12     7   ar
