@<TRIPOS>MOLECULE
No_2186-gen_results/8p0m/2024-11-27-11-27-31/
 12 11 0 0 0
SMALL
GASTEIGER

@<TRIPOS>ATOM
      1 O         -28.1229   -1.3353   28.4874 O.2     1  UNL1       -0.2734
      2 C         -27.4806   -0.4044   28.7094 C.2     1  UNL1        0.2409
      3 C         -26.3804   -0.0867   27.9394 C.3     1  UNL1        0.0782
      4 N         -27.6664    0.4468   29.8988 N.am    1  UNL1       -0.2035
      5 C         -26.4086    0.8567   26.8802 C.3     1  UNL1        0.0087
      6 C         -25.0824   -0.6970   28.1699 C.3     1  UNL1        0.0096
      7 C         -27.5472    1.4839   26.5458 C.3     1  UNL1        0.0005
      8 C         -28.7267    0.1025   30.7787 C.3     1  UNL1        0.1385
      9 C         -25.2101    1.0622   26.0395 C.3     1  UNL1        0.0005
     10 C         -24.2450    1.9477   26.4671 C.3     1  UNL1        0.0000
     11 C         -24.4903    2.8543   27.4430 C.3     1  UNL1        0.0000
     12 C         -22.8895    1.8291   25.9076 C.3     1  UNL1        0.0000
@<TRIPOS>BOND
     1     1     2    2
     2     2     3    1
     3     2     4   am
     4     3     5    1
     5     3     6    1
     6     5     7    1
     7     4     8    1
     8     5     9    1
     9     9    10    1
    10    10    11    1
    11    10    12    1
