@<TRIPOS>MOLECULE
outputs/IAG933/test6/raw/output_2187_IAG933_linker_design_.xyz
 47 50 0 0 0
SMALL
GASTEIGER

@<TRIPOS>ATOM
      1 C         -24.8550   -1.0120   30.1430 C.3     1  UNL1        0.0612
      2 C         -24.9730   -2.5050   29.7880 C.2     1  UNL1       -0.0193
      3 C         -23.9060   -3.1730   29.1460 C.2     1  UNL1       -0.0042
      4 C         -23.9890   -4.5490   28.8530 C.2     1  UNL1       -0.0003
      5 C         -25.1370   -5.2800   29.2050 C.2     1  UNL1       -0.0000
      6 C         -26.2320   -4.6110   29.7840 C.2     1  UNL1       -0.0003
      7 C         -26.1550   -3.2320   30.0650 C.2     1  UNL1       -0.0042
      8 C         -25.3870   -0.6790   31.5710 C.3     1  UNL1        0.0787
      9 C         -25.1890    0.7730   32.0280 C.3     1  UNL1        0.0193
     10 C         -25.3360    0.6840   33.5440 C.3     1  UNL1        0.0202
     11 C         -24.8290   -0.7150   33.9050 C.3     1  UNL1        0.0887
     12 N         -24.7580   -1.4810   32.6460 N.3     1  UNL1       -0.2191
     13 C         -25.6880    1.6140   26.4610 C.2     1  UNL1        0.0162
     14 C         -26.2500    2.9200   26.3950 C.2     1  UNL1        0.0726
     15 C         -25.6420    4.0930   27.1230 C.2     1  UNL1        0.2661
     16 N         -25.6140    5.2520   26.4490 N.am    1  UNL1       -0.1997
     17 C         -25.0260    6.4790   26.9630 C.3     1  UNL1        0.1388
     18 O         -25.1430    3.9660   28.2430 O.2     1  UNL1       -0.2683
     19 C         -27.4380    3.0910   25.6450 C.2     1  UNL1        0.1064
     20 N         -28.0750    2.0890   25.0030 N.2     1  UNL1       -0.2081
     21 C         -27.5430    0.8490   25.0790 C.2     1  UNL1        0.2530
     22 O         -28.1930   -0.2080   24.4770 O.2     1  UNL1       -0.4558
     23 C         -29.4600    0.0050   23.8660 C.3     1  UNL1        0.2426
     24 C         -30.0650   -1.3770   23.5730 C.3     1  UNL1        0.2292
     25 O         -30.7290   -1.8780   24.7210 O.3     1  UNL1       -0.2162
     26 C         -26.3540    0.5760   25.7770 C.2     1  UNL1        0.1891
     27 F         -25.8600   -0.6810   25.7950 F       1  UNL1       -0.1996
     28 C         -29.9558    2.1298   29.5448 C.3     1  UNL1        0.1485
     29 C         -24.5076    1.4389   27.1021 C.3     1  UNL1        0.0372
     30 C         -23.1247    0.9492   28.9036 C.2     1  UNL1        0.2431
     31 C         -23.0703    1.7473   26.4390 C.3     1  UNL1        0.0284
     32 N         -28.0676    6.4245   30.1981 N.3     1  UNL1       -0.2153
     33 N         -26.9653   -0.1868   28.7117 N.2     1  UNL1       -0.2746
     34 C         -25.4895   -0.1426   29.1074 C.3     1  UNL1        0.1172
     35 C         -28.9256    9.1440   28.7491 C.3     1  UNL1        0.1836
     36 C         -29.3517    6.9835   29.7993 C.3     1  UNL1        0.0915
     37 C         -28.8450    4.0868   29.6275 C.3     1  UNL1        0.1609
     38 C         -24.3742    0.9021   28.6162 C.3     1  UNL1        0.1050
     39 C         -27.9990    5.0128   30.5201 C.3     1  UNL1        0.1207
     40 O         -27.5843    9.0619   29.1896 O.3     1  UNL1       -0.2204
     41 C         -27.8290    0.9768   28.8943 C.2     1  UNL1        0.0693
     42 O         -22.4322   -0.1497   29.1462 O.2     1  UNL1       -0.2733
     43 O         -29.0709    2.9077   30.3749 O.3     1  UNL1       -0.3518
     44 N         -22.4471    2.0908   28.9372 N.am    1  UNL1       -0.2054
     45 C         -29.1639    1.0367   28.7862 C.3     1  UNL1        0.0786
     46 C         -29.3467    7.7100   28.4466 C.3     1  UNL1        0.0543
     47 C         -21.8504    2.0053   27.4129 C.3     1  UNL1        0.1155
@<TRIPOS>BOND
     1     1    34    1
     2     2     7    1
     3     2     1    1
     4     3     2    2
     5     4     3    1
     6     4     5    2
     7     5     6    1
     8     6     7    2
     9     8     1    1
    10     8     9    1
    11     8    12    1
    12     9    10    1
    13    10    11    1
    14    12    11    1
    15    14    13    1
    16    14    15    1
    17    15    18    2
    18    16    17    1
    19    16    15    1
    20    19    14    2
    21    20    21    2
    22    20    19    1
    23    21    26    1
    24    22    21    1
    25    23    22    1
    26    24    23    1
    27    24    25    1
    28    26    27    1
    29    26    13    2
    30    28    43    1
    31    29    13    1
    32    29    38    1
    33    30    44    1
    34    30    42    2
    35    31    29    1
    36    31    47    1
    37    32    39    1
    38    33    41    2
    39    34    33    1
    40    35    40    1
    41    36    32    1
    42    37    43    1
    43    37    39    1
    44    38    30    1
    45    38    34    1
    46    45    41    1
    47    45    28    1
    48    46    35    1
    49    46    36    1
    50    47    44    1
