@<TRIPOS>MOLECULE
No_2188-gen_results/8p0m/2024-11-27-11-27-31/
 16 17 0 0 0
SMALL
GASTEIGER

@<TRIPOS>ATOM
      1 C         -28.0162   -0.8135   28.8779 C.ar    1  UNL1        0.0011
      2 C         -27.0636   -0.1189   28.6079 C.ar    1  UNL1       -0.0001
      3 C         -25.7647   -0.3897   29.0360 C.ar    1  UNL1        0.0001
      4 C         -25.5296   -1.5302   29.9014 C.ar    1  UNL1       -0.0001
      5 C         -26.6577   -2.2915   30.2035 C.ar    1  UNL1        0.0011
      6 C         -27.8548   -1.9555   29.7630 C.ar    1  UNL1        0.0436
      7 C         -24.5441    0.4126   28.7379 C.ar    1  UNL1        0.0032
      8 C         -24.4731    1.2065   27.7114 C.ar    1  UNL1        0.0420
      9 C         -23.2779    1.8420   27.3661 C.ar    1  UNL1        0.1957
     10 C         -22.0929    1.6644   28.0344 C.ar    1  UNL1        0.0420
     11 C         -23.3031    0.1394   29.4701 C.ar    1  UNL1        0.0002
     12 C         -22.0943    0.7975   29.1026 C.ar    1  UNL1        0.0033
     13 C         -29.0142   -2.7937   30.1784 C.3     1  UNL1        0.3410
     14 F         -29.3503   -2.6957   31.2463 F       1  UNL1       -0.1933
     15 F         -29.4256   -3.6850   29.4088 F       1  UNL1       -0.1933
     16 O         -23.2871    2.7420   26.3188 O.3     1  UNL1       -0.2866
@<TRIPOS>BOND
     1     3     7    1
     2     6    13    1
     3    13    14    1
     4    13    15    1
     5     9    16    1
     6     7     8   ar
     7     8     9   ar
     8     9    10   ar
     9    10    12   ar
    10    12    11   ar
    11    11     7   ar
    12     1     2   ar
    13     2     3   ar
    14     3     4   ar
    15     4     5   ar
    16     5     6   ar
    17     6     1   ar
