@<TRIPOS>MOLECULE
No_2189-gen_results/8p0m/2024-11-27-11-27-31/
 17 18 0 0 0
SMALL
GASTEIGER

@<TRIPOS>ATOM
      1 C         -28.0162   -0.8135   28.8779 C.ar    1  UNL1       -0.0042
      2 C         -27.0636   -0.1189   28.6079 C.ar    1  UNL1       -0.0215
      3 C         -26.8756    1.1325   28.9134 C.ar    1  UNL1       -0.0042
      4 C         -27.9014    1.8066   29.6436 C.ar    1  UNL1       -0.0003
      5 C         -29.0458   -0.2316   29.7181 C.ar    1  UNL1       -0.0003
      6 C         -28.9402    1.0517   30.0597 C.ar    1  UNL1       -0.0000
      7 C         -25.8732   -0.7125   27.8045 C.3     1  UNL1        0.0367
      8 C         -24.7599   -1.1987   28.6570 C.3     1  UNL1        0.0677
      9 C         -23.6191   -0.4133   28.9109 C.ar    1  UNL1       -0.0135
     10 C         -23.3198    0.8126   28.3592 C.ar    1  UNL1        0.0168
     11 C         -22.0309    1.3728   28.5040 C.ar    1  UNL1        0.0986
     12 N         -21.0865    0.5749   28.9531 N.ar    1  UNL1       -0.2423
     13 C         -21.2251   -0.6922   29.3149 C.ar    1  UNL1        0.0986
     14 C         -22.5115   -1.2197   29.3075 C.ar    1  UNL1        0.0168
     15 C         -25.0396   -2.4043   29.3846 C.2     1  UNL1        0.0711
     16 N         -24.7119   -3.5133   28.8536 N.2     1  UNL1       -0.2711
     17 C         -25.1331   -4.7228   29.4320 C.3     1  UNL1        0.1513
@<TRIPOS>BOND
     1     2     7    1
     2     7     8    1
     3     8     9    1
     4     8    15    1
     5    15    16    2
     6    16    17    1
     7     1     2   ar
     8     2     3   ar
     9     3     4   ar
    10     4     6   ar
    11     6     5   ar
    12     5     1   ar
    13     9    10   ar
    14    10    11   ar
    15    11    12   ar
    16    12    13   ar
    17    13    14   ar
    18    14     9   ar
