@<TRIPOS>MOLECULE
outputs/IAG933/test6/raw/output_219_IAG933_linker_design_.xyz
 43 45 0 0 0
SMALL
GASTEIGER

@<TRIPOS>ATOM
      1 C         -24.8550   -1.0120   30.1430 C.3     1  UNL1        0.0715
      2 C         -24.9730   -2.5050   29.7880 C.2     1  UNL1       -0.0186
      3 C         -23.9060   -3.1730   29.1460 C.2     1  UNL1       -0.0042
      4 C         -23.9890   -4.5490   28.8530 C.2     1  UNL1       -0.0003
      5 C         -25.1370   -5.2800   29.2050 C.2     1  UNL1       -0.0000
      6 C         -26.2320   -4.6110   29.7840 C.2     1  UNL1       -0.0003
      7 C         -26.1550   -3.2320   30.0650 C.2     1  UNL1       -0.0042
      8 C         -25.3870   -0.6790   31.5710 C.3     1  UNL1        0.0794
      9 C         -25.1890    0.7730   32.0280 C.3     1  UNL1        0.0193
     10 C         -25.3360    0.6840   33.5440 C.3     1  UNL1        0.0202
     11 C         -24.8290   -0.7150   33.9050 C.3     1  UNL1        0.0887
     12 N         -24.7580   -1.4810   32.6460 N.3     1  UNL1       -0.2190
     13 C         -25.6880    1.6140   26.4610 C.3     1  UNL1        0.1298
     14 C         -26.2500    2.9200   26.3950 C.2     1  UNL1        0.0696
     15 C         -25.6420    4.0930   27.1230 C.2     1  UNL1        0.2637
     16 N         -25.6140    5.2520   26.4490 N.am    1  UNL1       -0.2000
     17 C         -25.0260    6.4790   26.9630 C.3     1  UNL1        0.1388
     18 O         -25.1430    3.9660   28.2430 O.2     1  UNL1       -0.2686
     19 C         -27.4380    3.0910   25.6450 C.2     1  UNL1        0.1035
     20 N         -28.0750    2.0890   25.0030 N.2     1  UNL1       -0.2118
     21 C         -27.5430    0.8490   25.0790 C.2     1  UNL1        0.2355
     22 O         -28.1930   -0.2080   24.4770 O.2     1  UNL1       -0.4585
     23 C         -29.4600    0.0050   23.8660 C.3     1  UNL1        0.2423
     24 C         -30.0650   -1.3770   23.5730 C.3     1  UNL1        0.2292
     25 O         -30.7290   -1.8780   24.7210 O.3     1  UNL1       -0.2162
     26 C         -26.3540    0.5760   25.7770 C.3     1  UNL1        0.2546
     27 F         -25.8600   -0.6810   25.7950 F       1  UNL1       -0.2254
     28 N         -24.7647    1.2633   27.6515 N.3     1  UNL1       -0.2446
     29 O         -22.5264    2.7326   26.4956 O.co2   1  UNL1       -0.2442
     30 C         -22.6155    0.4474   29.0653 C.3     1  UNL1        0.0296
     31 O         -25.7689    5.6252   32.9158 O.co2   1  UNL1       -0.2457
     32 C         -27.6107    3.6261   30.1302 C.3     1  UNL1        0.0307
     33 C         -26.4128    5.2808   31.6962 C.2     1  UNL1        0.3649
     34 O         -26.5181   -0.8708   28.3538 O.3     1  UNL1       -0.2197
     35 C         -25.4908    1.2034   28.9655 C.3     1  UNL1        0.1638
     36 C         -26.5568    3.8157   31.2304 C.3     1  UNL1        0.1155
     37 O         -26.8804    6.1660   31.0185 O.co2   1  UNL1       -0.2457
     38 C         -27.6575    2.1710   29.6091 C.3     1  UNL1        0.0908
     39 C         -22.1731    1.6281   27.0703 C.2     1  UNL1        0.3790
     40 N         -26.3973    1.5573   30.0612 N.3     1  UNL1       -0.2010
     41 C         -25.6803   -0.2019   29.1291 C.3     1  UNL1        0.1883
     42 O         -20.9839    1.3642   27.2174 O.co2   1  UNL1       -0.2442
     43 C         -23.2172    0.6014   27.6277 C.3     1  UNL1        0.1633
@<TRIPOS>BOND
     1     1    41    1
     2     2     7    1
     3     2     1    1
     4     3     2    2
     5     4     3    1
     6     4     5    2
     7     5     6    1
     8     6     7    2
     9     8     1    1
    10     8     9    1
    11     8    12    1
    12     9    10    1
    13    10    11    1
    14    12    11    1
    15    13    28    1
    16    14    13    1
    17    14    15    1
    18    15    18    2
    19    16    17    1
    20    16    15    1
    21    19    14    2
    22    20    21    2
    23    20    19    1
    24    21    26    1
    25    22    21    1
    26    23    22    1
    27    24    23    1
    28    24    25    1
    29    26    27    1
    30    26    13    1
    31    28    35    1
    32    29    39   ar
    33    32    36    1
    34    33    31   ar
    35    35    41    1
    36    35    40    1
    37    36    33    1
    38    37    33   ar
    39    38    40    1
    40    38    32    1
    41    39    42   ar
    42    39    43    1
    43    41    34    1
    44    43    28    1
    45    43    30    1
