@<TRIPOS>MOLECULE
outputs/IAG933/test6/raw/output_2190_IAG933_linker_design_.xyz
 44 48 0 0 0
SMALL
GASTEIGER

@<TRIPOS>ATOM
      1 C         -24.8550   -1.0120   30.1430 C.3     1  UNL1        0.0386
      2 C         -24.9730   -2.5050   29.7880 C.2     1  UNL1       -0.0211
      3 C         -23.9060   -3.1730   29.1460 C.2     1  UNL1       -0.0042
      4 C         -23.9890   -4.5490   28.8530 C.2     1  UNL1       -0.0003
      5 C         -25.1370   -5.2800   29.2050 C.2     1  UNL1       -0.0000
      6 C         -26.2320   -4.6110   29.7840 C.2     1  UNL1       -0.0003
      7 C         -26.1550   -3.2320   30.0650 C.2     1  UNL1       -0.0042
      8 C         -25.3870   -0.6790   31.5710 C.3     1  UNL1        0.0768
      9 C         -25.1890    0.7730   32.0280 C.3     1  UNL1        0.0192
     10 C         -25.3360    0.6840   33.5440 C.3     1  UNL1        0.0202
     11 C         -24.8290   -0.7150   33.9050 C.3     1  UNL1        0.0887
     12 N         -24.7580   -1.4810   32.6460 N.3     1  UNL1       -0.2191
     13 C         -25.6880    1.6140   26.4610 C.2     1  UNL1        0.0339
     14 C         -26.2500    2.9200   26.3950 C.2     1  UNL1        0.0762
     15 C         -25.6420    4.0930   27.1230 C.2     1  UNL1        0.2664
     16 N         -25.6140    5.2520   26.4490 N.am    1  UNL1       -0.1997
     17 C         -25.0260    6.4790   26.9630 C.3     1  UNL1        0.1388
     18 O         -25.1430    3.9660   28.2430 O.2     1  UNL1       -0.2683
     19 C         -27.4380    3.0910   25.6450 C.2     1  UNL1        0.1067
     20 N         -28.0750    2.0890   25.0030 N.2     1  UNL1       -0.2081
     21 C         -27.5430    0.8490   25.0790 C.2     1  UNL1        0.2533
     22 O         -28.1930   -0.2080   24.4770 O.2     1  UNL1       -0.4558
     23 C         -29.4600    0.0050   23.8660 C.3     1  UNL1        0.2426
     24 C         -30.0650   -1.3770   23.5730 C.3     1  UNL1        0.2292
     25 O         -30.7290   -1.8780   24.7210 O.3     1  UNL1       -0.2162
     26 C         -26.3540    0.5760   25.7770 C.2     1  UNL1        0.1927
     27 F         -25.8600   -0.6810   25.7950 F       1  UNL1       -0.1993
     28 O         -29.0731    3.8249   29.0679 O.2     1  UNL1       -0.4760
     29 C         -24.6342    1.3907   27.4484 C.2     1  UNL1       -0.0218
     30 C         -22.9681    1.8752   25.4993 C.3     1  UNL1        0.1680
     31 C         -26.8205    0.9657   29.0883 C.3     1  UNL1        0.0119
     32 C         -25.1890    1.1490   28.8276 C.3     1  UNL1        0.0229
     33 C         -21.6475    0.7907   28.6377 C.3     1  UNL1        0.0321
     34 C         -22.8303   -0.0256   28.8530 C.3     1  UNL1        0.0033
     35 O         -21.9567    2.1755   26.4984 O.3     1  UNL1       -0.3490
     36 C         -29.6092    1.3120   29.2225 C.2     1  UNL1        0.0062
     37 C         -21.1939    1.5503   27.5240 C.3     1  UNL1        0.1426
     38 C         -27.3262    2.3660   29.5039 C.3     1  UNL1        0.0639
     39 C         -27.6779   -0.2461   28.7987 C.3     1  UNL1        0.0055
     40 C         -29.0228    0.0021   29.1709 C.3     1  UNL1        0.0289
     41 C         -30.3650    4.3985   28.9031 C.3     1  UNL1        0.2519
     42 C         -28.8432    2.4900   29.3012 C.2     1  UNL1        0.1120
     43 C         -24.4405    0.0972   29.2071 C.3     1  UNL1        0.0095
     44 C         -23.3823    1.6974   26.7857 C.2     1  UNL1        0.0015
@<TRIPOS>BOND
     1     1     2    1
     2     2     7    1
     3     3     2    2
     4     4     3    1
     5     4     5    2
     6     5     6    1
     7     6     7    2
     8     8     1    1
     9     8     9    1
    10     8    12    1
    11     9    10    1
    12    10    11    1
    13    12    11    1
    14    13    29    1
    15    14    13    1
    16    14    15    1
    17    15    18    2
    18    16    17    1
    19    16    15    1
    20    19    14    2
    21    20    21    2
    22    20    19    1
    23    21    26    1
    24    22    21    1
    25    23    22    1
    26    24    23    1
    27    24    25    1
    28    26    27    1
    29    26    13    2
    30    28    42    1
    31    30    35    1
    32    30    44    1
    33    31    39    1
    34    31    38    1
    35    32    29    1
    36    32    31    1
    37    32    43    1
    38    33    34    1
    39    34    43    1
    40    35    37    1
    41    36    42    2
    42    37    33    1
    43    39    40    1
    44    40    36    1
    45    41    28    1
    46    42    38    1
    47    43     1    1
    48    44    29    2
