@<TRIPOS>MOLECULE
outputs/IAG933/test6/raw/output_2191_IAG933_linker_design_.xyz
 45 49 0 0 0
SMALL
GASTEIGER

@<TRIPOS>ATOM
      1 C         -24.8550   -1.0120   30.1430 C.3     1  UNL1        0.0999
      2 C         -24.9730   -2.5050   29.7880 C.2     1  UNL1       -0.0063
      3 C         -23.9060   -3.1730   29.1460 C.2     1  UNL1       -0.0029
      4 C         -23.9890   -4.5490   28.8530 C.2     1  UNL1       -0.0003
      5 C         -25.1370   -5.2800   29.2050 C.2     1  UNL1       -0.0000
      6 C         -26.2320   -4.6110   29.7840 C.2     1  UNL1       -0.0003
      7 C         -26.1550   -3.2320   30.0650 C.2     1  UNL1       -0.0029
      8 C         -25.3870   -0.6790   31.5710 C.3     1  UNL1        0.0917
      9 C         -25.1890    0.7730   32.0280 C.3     1  UNL1        0.0206
     10 C         -25.3360    0.6840   33.5440 C.3     1  UNL1        0.0203
     11 C         -24.8290   -0.7150   33.9050 C.3     1  UNL1        0.0888
     12 N         -24.7580   -1.4810   32.6460 N.3     1  UNL1       -0.2178
     13 C         -25.6880    1.6140   26.4610 C.2     1  UNL1        0.0406
     14 C         -26.2500    2.9200   26.3950 C.2     1  UNL1        0.0764
     15 C         -25.6420    4.0930   27.1230 C.2     1  UNL1        0.2664
     16 N         -25.6140    5.2520   26.4490 N.am    1  UNL1       -0.1997
     17 C         -25.0260    6.4790   26.9630 C.3     1  UNL1        0.1388
     18 O         -25.1430    3.9660   28.2430 O.2     1  UNL1       -0.2683
     19 C         -27.4380    3.0910   25.6450 C.2     1  UNL1        0.1067
     20 N         -28.0750    2.0890   25.0030 N.2     1  UNL1       -0.2081
     21 C         -27.5430    0.8490   25.0790 C.2     1  UNL1        0.2533
     22 O         -28.1930   -0.2080   24.4770 O.2     1  UNL1       -0.4558
     23 C         -29.4600    0.0050   23.8660 C.3     1  UNL1        0.2426
     24 C         -30.0650   -1.3770   23.5730 C.3     1  UNL1        0.2292
     25 O         -30.7290   -1.8780   24.7210 O.3     1  UNL1       -0.2162
     26 C         -26.3540    0.5760   25.7770 C.2     1  UNL1        0.1930
     27 F         -25.8600   -0.6810   25.7950 F       1  UNL1       -0.1992
     28 C         -24.4813    1.2465   27.1877 C.2     1  UNL1        0.0630
     29 N         -21.0393    1.6485   27.5837 N.pl3   1  UNL1        0.2169
     30 O         -31.4356    3.7803   27.0569 O.3     1  UNL1       -0.2169
     31 N         -22.9721    0.4376   28.5397 N.2     1  UNL1       -0.0394
     32 O         -29.6828   -0.5251   29.2355 O.2     1  UNL1       -0.2748
     33 C         -31.0429    2.5526   26.3833 C.3     1  UNL1        0.2036
     34 C         -30.3869    1.4401   27.1918 C.3     1  UNL1        0.1313
     35 C         -22.3668    1.2600   27.5916 C.2     1  UNL1        0.4224
     36 C         -27.5303    0.6605   29.3507 C.3     1  UNL1        0.1028
     37 O         -30.4760    4.1285   28.0501 O.3     1  UNL1       -0.1974
     38 C         -29.0240    0.6538   29.0103 C.2     1  UNL1        0.2289
     39 C         -30.2473    3.0552   29.0023 C.3     1  UNL1        0.2803
     40 C         -26.7276   -0.3756   28.7151 C.3     1  UNL1        0.0861
     41 C         -24.3152    0.4900   28.2958 C.3     1  UNL1        0.3016
     42 CL        -23.1003    2.5925   25.2165 Cl      1  UNL1       -0.0744
     43 N         -29.7256    1.7882   28.4011 N.am    1  UNL1       -0.2490
     44 C         -23.3356    1.6672   26.6440 C.2     1  UNL1        0.1492
     45 N         -25.2888   -0.1892   29.0118 N.3     1  UNL1       -0.2248
@<TRIPOS>BOND
     1     1    45    1
     2     2     7    1
     3     2     1    1
     4     3     2    2
     5     4     3    1
     6     4     5    2
     7     5     6    1
     8     6     7    2
     9     8     1    1
    10     8     9    1
    11     8    12    1
    12     9    10    1
    13    10    11    1
    14    12    11    1
    15    13    28    1
    16    14    13    1
    17    14    15    1
    18    15    18    2
    19    16    17    1
    20    16    15    1
    21    19    14    2
    22    20    21    2
    23    20    19    1
    24    21    26    1
    25    22    21    1
    26    23    22    1
    27    24    23    1
    28    24    25    1
    29    26    27    1
    30    26    13    2
    31    28    41    1
    32    29    35    1
    33    30    37    1
    34    33    30    1
    35    33    34    1
    36    34    43    1
    37    35    31    2
    38    37    39    1
    39    38    32    2
    40    38    36    1
    41    40    45    1
    42    40    36    1
    43    41    31    1
    44    41    45    1
    45    42    44    1
    46    43    39    1
    47    43    38   am
    48    44    28    2
    49    44    35    1
