@<TRIPOS>MOLECULE
No_2194-gen_results/8p0m/2024-11-27-11-27-31/
 35 38 0 0 0
SMALL
GASTEIGER

@<TRIPOS>ATOM
      1 C         -28.0162   -0.8135   28.8779 C.ar    1  UNL1        0.1731
      2 C         -27.0636   -0.1190   28.6079 C.ar    1  UNL1        0.1740
      3 C         -25.7647   -0.3897   29.0360 C.ar    1  UNL1        0.0306
      4 C         -25.5296   -1.5302   29.9014 C.ar    1  UNL1        0.0027
      5 C         -26.6577   -2.2915   30.2035 C.ar    1  UNL1        0.0098
      6 C         -27.8548   -1.9555   29.7630 C.ar    1  UNL1        0.1159
      7 C         -24.5349    0.4128   28.7431 C.ar    1  UNL1        0.0053
      8 C         -24.4835    1.2431   27.7398 C.ar    1  UNL1        0.0370
      9 C         -23.2788    1.9376   27.4159 C.ar    1  UNL1        0.1387
     10 C         -22.0791    1.6508   28.0213 C.ar    1  UNL1        0.0369
     11 C         -23.2748    0.1108   29.4386 C.ar    1  UNL1        0.0003
     12 C         -22.0811    0.7712   29.0650 C.ar    1  UNL1        0.0031
     13 C         -29.0091   -2.7990   30.1893 C.2     1  UNL1        0.3908
     14 O         -29.3533   -2.7445   31.2546 O.co2   1  UNL1       -0.2404
     15 O         -29.3680   -3.7557   29.4170 O.co2   1  UNL1       -0.2404
     16 O         -23.3281    2.8334   26.3727 O.3     1  UNL1       -0.4714
     17 C         -24.5922    3.0758   25.8433 C.3     1  UNL1        0.2525
     18 F         -27.1318    0.9730   27.7825 F       1  UNL1       -0.2010
     19 O         -29.2720   -0.6057   28.4840 O.3     1  UNL1       -0.4630
     20 C         -29.5590    0.4994   27.7918 C.3     1  UNL1        0.2636
     21 C         -30.2927    1.3374   28.6045 C.2     1  UNL1        0.2703
     22 O         -30.8571    0.9980   29.6094 O.2     1  UNL1       -0.2706
     23 N         -30.3814    2.6693   28.2180 N.am    1  UNL1       -0.2763
     24 C         -31.0540    3.7075   28.9919 C.3     1  UNL1        0.0935
     25 C         -29.6826    3.1342   27.0540 C.3     1  UNL1        0.0935
     26 C         -31.7459    4.4500   28.4139 C.3     1  UNL1        0.0199
     27 C         -30.4223    4.2580   26.3473 C.3     1  UNL1        0.0216
     28 C         -31.1202    5.2076   27.1614 C.3     1  UNL1        0.0035
     29 C         -30.1161    0.1883   26.4543 C.ar    1  UNL1        0.0262
     30 C         -31.3940   -0.4219   26.3856 C.ar    1  UNL1       -0.0003
     31 C         -31.7919   -0.8502   25.1917 C.ar    1  UNL1       -0.0002
     32 C         -30.9448   -0.7647   24.0471 C.ar    1  UNL1       -0.0000
     33 C         -29.6901   -0.1989   24.1142 C.ar    1  UNL1       -0.0002
     34 C         -29.2665    0.3063   25.3943 C.ar    1  UNL1       -0.0003
     35 C         -33.0687    4.9640   28.7198 C.3     1  UNL1        0.0018
@<TRIPOS>BOND
     1     3     7    1
     2     6    13    1
     3    13    14   ar
     4    13    15   ar
     5     9    16    1
     6    16    17    1
     7     2    18    1
     8     1    19    1
     9    19    20    1
    10    20    21    1
    11    21    22    2
    12    21    23   am
    13    23    24    1
    14    23    25    1
    15    26    28    1
    16    27    28    1
    17    20    29    1
    18    26    35    1
    19    24    26    1
    20    27    25    1
    21     7     8   ar
    22     8     9   ar
    23     9    10   ar
    24    10    12   ar
    25    12    11   ar
    26    11     7   ar
    27     1     2   ar
    28     2     3   ar
    29     3     4   ar
    30     4     5   ar
    31     5     6   ar
    32     6     1   ar
    33    29    30   ar
    34    30    31   ar
    35    31    32   ar
    36    32    33   ar
    37    33    34   ar
    38    34    29   ar
