@<TRIPOS>MOLECULE
No_2200-gen_results/8p0m/2024-11-27-11-27-31/
 18 20 0 0 0
SMALL
GASTEIGER

@<TRIPOS>ATOM
      1 C         -28.0162   -0.8135   28.8779 C.ar    1  UNL1        0.0002
      2 C         -27.0636   -0.1189   28.6079 C.ar    1  UNL1        0.0048
      3 C         -26.9716    0.7139   27.5060 C.ar    1  UNL1        0.0579
      4 C         -25.8205    1.4909   27.1160 C.ar    1  UNL1        0.0064
      5 C         -24.6562    1.4242   27.9180 C.ar    1  UNL1        0.0068
      6 C         -24.7114    0.5419   29.0507 C.ar    1  UNL1        0.0798
      7 C         -25.8042   -0.2058   29.3881 C.ar    1  UNL1        0.0065
      8 C         -28.0673   -1.5382   30.1911 C.ar    1  UNL1        0.0000
      9 C         -26.8381   -1.7680   30.8773 C.ar    1  UNL1        0.0000
     10 C         -25.7411   -1.0297   30.5541 C.ar    1  UNL1        0.0002
     11 C         -28.0790    0.8472   26.5259 C.ar    1  UNL1        0.2792
     12 N         -27.9740    1.1343   25.3329 N.ar    1  UNL1       -0.2063
     13 O         -29.1738    0.2192   26.8313 O.3     1  UNL1       -0.2652
     14 C         -26.7440    1.6995   24.7390 C.ar    1  UNL1        0.1022
     15 C         -25.5220    1.5380   25.5966 C.ar    1  UNL1        0.0209
     16 C         -23.4860    0.6721   29.9529 C.2     1  UNL1        0.3878
     17 O         -23.6229    0.8887   31.1060 O.co2   1  UNL1       -0.2406
     18 O         -22.3222    0.8260   29.3926 O.co2   1  UNL1       -0.2406
@<TRIPOS>BOND
     1    11    13    1
     2     6    16    1
     3    16    17   ar
     4    16    18   ar
     5     4    15   ar
     6    15    14   ar
     7    14    12   ar
     8    12    11   ar
     9    11     3   ar
    10     2     3   ar
    11     3     4   ar
    12     4     5   ar
    13     5     6   ar
    14     6     7   ar
    15     1     2   ar
    16     2     7   ar
    17     7    10   ar
    18    10     9   ar
    19     9     8   ar
    20     8     1   ar
