@<TRIPOS>MOLECULE
outputs/IAG933/test6/raw/output_2206_IAG933_linker_design_.xyz
 43 48 0 0 0
SMALL
GASTEIGER

@<TRIPOS>ATOM
      1 C         -24.8550   -1.0120   30.1430 C.3     1  UNL1        0.0451
      2 C         -24.9730   -2.5050   29.7880 C.2     1  UNL1       -0.0207
      3 C         -23.9060   -3.1730   29.1460 C.2     1  UNL1       -0.0042
      4 C         -23.9890   -4.5490   28.8530 C.2     1  UNL1       -0.0003
      5 C         -25.1370   -5.2800   29.2050 C.2     1  UNL1       -0.0000
      6 C         -26.2320   -4.6110   29.7840 C.2     1  UNL1       -0.0003
      7 C         -26.1550   -3.2320   30.0650 C.2     1  UNL1       -0.0042
      8 C         -25.3870   -0.6790   31.5710 C.3     1  UNL1        0.0932
      9 C         -25.1890    0.7730   32.0280 C.3     1  UNL1        0.0929
     10 C         -25.3360    0.6840   33.5440 C.3     1  UNL1        0.0377
     11 C         -24.8290   -0.7150   33.9050 C.3     1  UNL1        0.0902
     12 N         -24.7580   -1.4810   32.6460 N.3     1  UNL1       -0.2177
     13 C         -25.6880    1.6140   26.4610 C.2     1  UNL1        0.1829
     14 C         -26.2500    2.9200   26.3950 C.2     1  UNL1        0.1111
     15 C         -25.6420    4.0930   27.1230 C.2     1  UNL1        0.2694
     16 N         -25.6140    5.2520   26.4490 N.am    1  UNL1       -0.1996
     17 C         -25.0260    6.4790   26.9630 C.3     1  UNL1        0.1388
     18 O         -25.1430    3.9660   28.2430 O.2     1  UNL1       -0.2682
     19 C         -27.4380    3.0910   25.6450 C.2     1  UNL1        0.1098
     20 N         -28.0750    2.0890   25.0030 N.2     1  UNL1       -0.2079
     21 C         -27.5430    0.8490   25.0790 C.2     1  UNL1        0.2564
     22 O         -28.1930   -0.2080   24.4770 O.2     1  UNL1       -0.4558
     23 C         -29.4600    0.0050   23.8660 C.3     1  UNL1        0.2426
     24 C         -30.0650   -1.3770   23.5730 C.3     1  UNL1        0.2292
     25 O         -30.7290   -1.8780   24.7210 O.3     1  UNL1       -0.2162
     26 C         -26.3540    0.5760   25.7770 C.2     1  UNL1        0.2272
     27 F         -25.8600   -0.6810   25.7950 F       1  UNL1       -0.1960
     28 O         -24.7413    1.3359   27.2200 O.2     1  UNL1       -0.4496
     29 C         -26.9229    5.3789   32.2155 C.3     1  UNL1        0.0026
     30 C         -25.8772    3.8354   33.6099 C.3     1  UNL1        0.0273
     31 C         -23.4661    1.6477   27.0483 C.2     1  UNL1        0.1906
     32 C         -25.2642    3.6767   32.1577 C.3     1  UNL1        0.1168
     33 C         -26.6962    4.9597   33.7367 C.3     1  UNL1        0.0025
     34 C         -26.3408    4.3083   31.2454 C.3     1  UNL1        0.0296
     35 C         -22.7977    1.9516   25.8760 C.3     1  UNL1        0.2621
     36 C         -23.9986    2.4266   30.4639 C.3     1  UNL1        0.1969
     37 C         -25.2361    5.2412   34.0109 C.3     1  UNL1        0.0025
     38 C         -22.9330    1.5528   29.5621 C.3     1  UNL1        0.1189
     39 O         -23.9618    3.2073   31.6603 O.3     1  UNL1       -0.3417
     40 C         -22.4684    1.6557   28.0682 C.2     1  UNL1        0.1967
     41 O         -21.5288    1.9217   26.1141 O.3     1  UNL1       -0.1645
     42 N         -25.1581    1.5133   30.7487 N.3     1  UNL1       -0.1915
     43 O         -21.3016    1.7277   27.4778 O.2     1  UNL1       -0.3345
@<TRIPOS>BOND
     1     2     7    1
     2     2     1    1
     3     3     2    2
     4     4     3    1
     5     4     5    2
     6     5     6    1
     7     6     7    2
     8     8     1    1
     9     8     9    1
    10     8    12    1
    11     9    42    1
    12     9    10    1
    13    10    11    1
    14    12    11    1
    15    13    28    1
    16    14    13    1
    17    14    15    1
    18    15    18    2
    19    16    17    1
    20    16    15    1
    21    19    14    2
    22    20    21    2
    23    20    19    1
    24    21    26    1
    25    22    21    1
    26    23    22    1
    27    24    23    1
    28    24    25    1
    29    26    27    1
    30    26    13    2
    31    30    33    1
    32    30    37    1
    33    31    28    1
    34    31    40    2
    35    32    39    1
    36    32    30    1
    37    33    29    1
    38    33    37    1
    39    34    32    1
    40    34    29    1
    41    35    41    1
    42    35    31    1
    43    36    38    1
    44    36    42    1
    45    36    39    1
    46    40    38    1
    47    41    43    1
    48    43    40    1
