@<TRIPOS>MOLECULE
No_2211-gen_results/8p0m/2024-11-27-11-27-31/
 7 6 0 0 0
SMALL
GASTEIGER

@<TRIPOS>ATOM
      1 O         -28.1229   -1.3353   28.4874 O.2     1  UNL1       -0.2541
      2 C         -27.4806   -0.4044   28.7094 C.2     1  UNL1        0.3333
      3 C         -27.1904    0.2460   29.5268 C.2     1  UNL1        0.0686
      4 F         -26.5652   -0.3952   27.6169 F       1  UNL1       -0.1586
      5 C         -26.3513    1.4775   29.6222 C.2     1  UNL1       -0.0204
      6 C         -25.4916    1.4984   28.3978 C.3     1  UNL1        0.0262
      7 C         -24.4765    2.5697   28.2308 C.3     1  UNL1        0.0050
@<TRIPOS>BOND
     1     1     2    2
     2     2     3    1
     3     2     4    1
     4     3     5    2
     5     5     6    1
     6     6     7    1
