@<TRIPOS>MOLECULE
No_2212-gen_results/8p0m/2024-11-27-11-27-31/
 11 11 0 0 0
SMALL
GASTEIGER

@<TRIPOS>ATOM
      1 C         -28.0162   -0.8135   28.8779 C.ar    1  UNL1        0.0335
      2 C         -28.4690   -0.7850   29.8287 C.ar    1  UNL1        0.0737
      3 C         -26.5455   -0.8762   28.8500 C.ar    1  UNL1        0.1401
      4 C         -25.8041   -1.0324   30.0571 C.ar    1  UNL1        0.0296
      5 C         -27.9437   -0.9869   31.2075 C.ar    1  UNL1        0.0040
      6 C         -26.5825   -1.0386   31.2231 C.ar    1  UNL1        0.0022
      7 C         -30.0606   -0.7371   29.9024 C.3     1  UNL1        0.4186
      8 F         -30.4826    0.1163   30.8130 F       1  UNL1       -0.1659
      9 F         -30.5455   -1.9671   30.1272 F       1  UNL1       -0.1659
     10 F         -30.4655   -0.3682   28.7137 F       1  UNL1       -0.1659
     11 F         -25.7716   -0.8414   27.7501 F       1  UNL1       -0.2042
@<TRIPOS>BOND
     1     2     7    1
     2     7     8    1
     3     7     9    1
     4     7    10    1
     5     3    11    1
     6     1     2   ar
     7     2     5   ar
     8     5     6   ar
     9     6     4   ar
    10     4     3   ar
    11     3     1   ar
