@<TRIPOS>MOLECULE
outputs/IAG933/test6/raw/output_2214_IAG933_linker_design_.xyz
 42 46 0 0 0
SMALL
GASTEIGER

@<TRIPOS>ATOM
      1 C         -24.8550   -1.0120   30.1430 C.3     1  UNL1        0.0495
      2 C         -24.9730   -2.5050   29.7880 C.2     1  UNL1       -0.0204
      3 C         -23.9060   -3.1730   29.1460 C.2     1  UNL1       -0.0042
      4 C         -23.9890   -4.5490   28.8530 C.2     1  UNL1       -0.0003
      5 C         -25.1370   -5.2800   29.2050 C.2     1  UNL1       -0.0000
      6 C         -26.2320   -4.6110   29.7840 C.2     1  UNL1       -0.0003
      7 C         -26.1550   -3.2320   30.0650 C.2     1  UNL1       -0.0042
      8 C         -25.3870   -0.6790   31.5710 C.3     1  UNL1        0.0775
      9 C         -25.1890    0.7730   32.0280 C.3     1  UNL1        0.0192
     10 C         -25.3360    0.6840   33.5440 C.3     1  UNL1        0.0202
     11 C         -24.8290   -0.7150   33.9050 C.3     1  UNL1        0.0887
     12 N         -24.7580   -1.4810   32.6460 N.3     1  UNL1       -0.2191
     13 C         -25.6880    1.6140   26.4610 C.2     1  UNL1        0.1043
     14 C         -26.2500    2.9200   26.3950 C.2     1  UNL1        0.0927
     15 C         -25.6420    4.0930   27.1230 C.2     1  UNL1        0.2678
     16 N         -25.6140    5.2520   26.4490 N.am    1  UNL1       -0.1997
     17 C         -25.0260    6.4790   26.9630 C.3     1  UNL1        0.1388
     18 O         -25.1430    3.9660   28.2430 O.2     1  UNL1       -0.2683
     19 C         -27.4380    3.0910   25.6450 C.2     1  UNL1        0.1082
     20 N         -28.0750    2.0890   25.0030 N.2     1  UNL1       -0.2080
     21 C         -27.5430    0.8490   25.0790 C.2     1  UNL1        0.2548
     22 O         -28.1930   -0.2080   24.4770 O.2     1  UNL1       -0.4558
     23 C         -29.4600    0.0050   23.8660 C.3     1  UNL1        0.2426
     24 C         -30.0650   -1.3770   23.5730 C.3     1  UNL1        0.2292
     25 O         -30.7290   -1.8780   24.7210 O.3     1  UNL1       -0.2162
     26 C         -26.3540    0.5760   25.7770 C.2     1  UNL1        0.2091
     27 F         -25.8600   -0.6810   25.7950 F       1  UNL1       -0.1977
     28 C         -29.2400   -0.5427   28.5289 C.2     1  UNL1       -0.0046
     29 N         -23.1142    0.6626   28.6812 N.ar    1  UNL1       -0.2017
     30 C         -25.4431   -0.0710   29.1102 C.3     1  UNL1        0.0849
     31 C         -23.1948    1.6908   26.7117 C.ar    1  UNL1        0.2024
     32 F         -21.0926    1.2548   27.6665 F       1  UNL1       -0.1801
     33 N         -22.6712    2.1987   25.5783 N.pl3   1  UNL1       -0.1044
     34 C         -22.3887    1.2108   27.7267 C.ar    1  UNL1        0.2570
     35 C         -28.8196    1.4577   29.8784 C.2     1  UNL1       -0.0046
     36 C         -31.1415    0.4128   29.8133 C.3     1  UNL1        0.0310
     37 C         -26.9256    0.1804   29.0657 C.2     1  UNL1       -0.0150
     38 C         -27.8461   -0.7447   28.4502 C.2     1  UNL1       -0.0042
     39 C         -27.4179    1.3498   29.6798 C.2     1  UNL1       -0.0042
     40 C         -29.7045    0.4661   29.3881 C.2     1  UNL1       -0.0219
     41 N         -24.4953    1.3801   27.2078 N.ar    1  UNL1       -0.2749
     42 C         -24.4568    0.7995   28.3423 C.ar    1  UNL1        0.1317
@<TRIPOS>BOND
     1     1    30    1
     2     2     7    1
     3     2     1    1
     4     3     2    2
     5     4     3    1
     6     4     5    2
     7     5     6    1
     8     6     7    2
     9     8     1    1
    10     8     9    1
    11     8    12    1
    12     9    10    1
    13    10    11    1
    14    12    11    1
    15    13    41    1
    16    14    13    1
    17    14    15    1
    18    15    18    2
    19    16    17    1
    20    16    15    1
    21    19    14    2
    22    20    21    2
    23    20    19    1
    24    21    26    1
    25    22    21    1
    26    23    22    1
    27    24    23    1
    28    24    25    1
    29    26    27    1
    30    26    13    2
    31    28    40    1
    32    30    42    1
    33    31    41   ar
    34    31    34   ar
    35    32    34    1
    36    33    31    1
    37    34    29   ar
    38    37    30    1
    39    37    39    2
    40    38    28    2
    41    38    37    1
    42    39    35    1
    43    40    36    1
    44    40    35    2
    45    41    42   ar
    46    42    29   ar
