@<TRIPOS>MOLECULE
No_2216-gen_results/8p0m/2024-11-27-11-27-31/
 10 10 0 0 0
SMALL
GASTEIGER

@<TRIPOS>ATOM
      1 C         -28.0162   -0.8135   28.8779 C.ar    1  UNL1        0.0434
      2 C         -27.0636   -0.1190   28.6079 C.ar    1  UNL1        0.0198
      3 C         -25.7923   -0.4302   29.0761 C.ar    1  UNL1        0.0707
      4 C         -25.5756   -1.5654   29.9363 C.ar    1  UNL1        0.0198
      5 C         -26.7354   -2.3004   30.2173 C.ar    1  UNL1        0.0434
      6 C         -27.9184   -1.9537   29.7629 C.ar    1  UNL1        0.1958
      7 O         -29.0001   -2.7012   30.1151 O.3     1  UNL1       -0.2866
      8 N         -24.6096    0.3112   28.8145 N.pl3   1  UNL1       -0.2112
      9 C         -24.0582    1.2101   29.5840 C.2     1  UNL1        0.0857
     10 C         -22.8344    1.8513   29.1543 C.2     1  UNL1        0.0192
@<TRIPOS>BOND
     1     6     7    1
     2     3     8    1
     3     8     9    1
     4     9    10    2
     5     1     2   ar
     6     2     3   ar
     7     3     4   ar
     8     4     5   ar
     9     5     6   ar
    10     6     1   ar
