@<TRIPOS>MOLECULE
No_2218-gen_results/8p0m/2024-11-27-11-27-31/
 19 21 0 0 0
SMALL
GASTEIGER

@<TRIPOS>ATOM
      1 C         -28.0162   -0.8135   28.8779 C.ar    1  UNL1        0.0058
      2 C         -28.4690   -0.7850   29.8287 C.ar    1  UNL1        0.0685
      3 C         -26.5455   -0.8762   28.8500 C.ar    1  UNL1        0.0041
      4 C         -25.8041   -1.0324   30.0571 C.ar    1  UNL1        0.0727
      5 C         -27.9437   -0.9869   31.2075 C.ar    1  UNL1        0.0714
      6 C         -26.5825   -1.0386   31.2231 C.ar    1  UNL1        0.0201
      7 C         -30.0606   -0.7371   29.9024 C.2     1  UNL1        0.2514
      8 O         -30.5524   -0.2769   29.0111 O.2     1  UNL1       -0.2698
      9 N         -30.7429   -1.2889   30.9939 N.am    1  UNL1       -0.2602
     10 C         -32.1712   -1.2600   30.9749 C.3     1  UNL1        0.0953
     11 C         -24.3688   -1.0881   30.0880 C.3     1  UNL1        0.4186
     12 F         -23.8695    0.0690   30.3704 F       1  UNL1       -0.1659
     13 F         -23.8166   -1.4017   28.8824 F       1  UNL1       -0.1659
     14 F         -23.8843   -1.9746   31.0178 F       1  UNL1       -0.1659
     15 C         -32.7939   -1.8268   31.6550 C.3     1  UNL1        0.0217
     16 C         -32.1734   -2.6312   32.7865 C.3     1  UNL1        0.0053
     17 C         -30.7648   -2.7113   32.8409 C.3     1  UNL1        0.0424
     18 C         -30.0588   -2.1229   31.9027 C.3     1  UNL1        0.1693
     19 N         -28.6869   -2.0466   32.0521 N.pl3   1  UNL1       -0.2190
@<TRIPOS>BOND
     1     2     7    1
     2     7     8    2
     3     7     9   am
     4     9    10    1
     5     4    11    1
     6    11    12    1
     7    11    13    1
     8    11    14    1
     9    15    16    1
    10     9    18    1
    11    17    18    1
    12     5    19    1
    13    18    19    1
    14    10    15    1
    15    16    17    1
    16     1     2   ar
    17     2     5   ar
    18     5     6   ar
    19     6     4   ar
    20     4     3   ar
    21     3     1   ar
