@<TRIPOS>MOLECULE
outputs/IAG933/test6/raw/output_2219_IAG933_linker_design_.xyz
 44 48 0 0 0
SMALL
GASTEIGER

@<TRIPOS>ATOM
      1 C         -24.8550   -1.0120   30.1430 C.3     1  UNL1        0.1126
      2 C         -24.9730   -2.5050   29.7880 C.2     1  UNL1       -0.0030
      3 C         -23.9060   -3.1730   29.1460 C.2     1  UNL1       -0.0026
      4 C         -23.9890   -4.5490   28.8530 C.2     1  UNL1       -0.0003
      5 C         -25.1370   -5.2800   29.2050 C.2     1  UNL1       -0.0000
      6 C         -26.2320   -4.6110   29.7840 C.2     1  UNL1       -0.0003
      7 C         -26.1550   -3.2320   30.0650 C.2     1  UNL1       -0.0026
      8 C         -25.3870   -0.6790   31.5710 C.3     1  UNL1        0.0951
      9 C         -25.1890    0.7730   32.0280 C.3     1  UNL1        0.0209
     10 C         -25.3360    0.6840   33.5440 C.3     1  UNL1        0.0203
     11 C         -24.8290   -0.7150   33.9050 C.3     1  UNL1        0.0888
     12 N         -24.7580   -1.4810   32.6460 N.3     1  UNL1       -0.2174
     13 C         -25.6880    1.6140   26.4610 C.3     1  UNL1        0.0936
     14 C         -26.2500    2.9200   26.3950 C.2     1  UNL1        0.0589
     15 C         -25.6420    4.0930   27.1230 C.2     1  UNL1        0.2628
     16 N         -25.6140    5.2520   26.4490 N.am    1  UNL1       -0.2000
     17 C         -25.0260    6.4790   26.9630 C.3     1  UNL1        0.1388
     18 O         -25.1430    3.9660   28.2430 O.2     1  UNL1       -0.2686
     19 C         -27.4380    3.0910   25.6450 C.2     1  UNL1        0.1025
     20 N         -28.0750    2.0890   25.0030 N.2     1  UNL1       -0.2118
     21 C         -27.5430    0.8490   25.0790 C.2     1  UNL1        0.2344
     22 O         -28.1930   -0.2080   24.4770 O.2     1  UNL1       -0.4585
     23 C         -29.4600    0.0050   23.8660 C.3     1  UNL1        0.2423
     24 C         -30.0650   -1.3770   23.5730 C.3     1  UNL1        0.2292
     25 O         -30.7290   -1.8780   24.7210 O.3     1  UNL1       -0.2162
     26 C         -26.3540    0.5760   25.7770 C.3     1  UNL1        0.2440
     27 F         -25.8600   -0.6810   25.7950 F       1  UNL1       -0.2265
     28 C         -29.1819   -0.6586   28.7771 C.2     1  UNL1        0.2851
     29 C         -23.2230    1.8771   26.0556 C.2     1  UNL1       -0.0024
     30 C         -27.8784    0.2711   30.0620 C.3     1  UNL1        0.1348
     31 C         -23.9763    0.6494   28.1070 C.2     1  UNL1        0.0849
     32 C         -29.1217   -0.2783   30.0529 C.3     1  UNL1        0.2116
     33 O         -30.3580   -1.1128   28.1399 O.2     1  UNL1       -0.2693
     34 C         -24.2551    1.3878   26.8890 C.2     1  UNL1        0.0015
     35 C         -31.2214   -0.1467   31.2192 C.3     1  UNL1        0.1747
     36 O         -22.3204    0.0076   29.6915 O.2     1  UNL1       -0.2853
     37 N         -24.9306   -0.1592   28.9020 N.pl3   1  UNL1       -0.2868
     38 N         -27.3592   -0.1297   28.8698 N.3     1  UNL1       -0.1612
     39 O         -29.8951   -0.6533   31.0172 O.3     1  UNL1       -0.3429
     40 N         -28.1341   -0.6860   28.1716 N.am    1  UNL1       -0.1238
     41 C         -22.6217    0.6330   28.5504 C.2     1  UNL1        0.2086
     42 C         -26.1137   -0.2025   28.3373 C.3     1  UNL1        0.1880
     43 C         -21.5787    1.2462   27.7540 C.2     1  UNL1        0.0433
     44 C         -21.8877    1.8409   26.4861 C.2     1  UNL1        0.0031
@<TRIPOS>BOND
     1     1    37    1
     2     2     7    1
     3     2     1    1
     4     3     2    2
     5     4     3    1
     6     4     5    2
     7     5     6    1
     8     6     7    2
     9     8     1    1
    10     8     9    1
    11     8    12    1
    12     9    10    1
    13    10    11    1
    14    12    11    1
    15    13    34    1
    16    14    13    1
    17    14    15    1
    18    15    18    2
    19    16    17    1
    20    16    15    1
    21    19    14    2
    22    20    21    2
    23    20    19    1
    24    21    26    1
    25    22    21    1
    26    23    22    1
    27    24    23    1
    28    24    25    1
    29    26    27    1
    30    26    13    1
    31    28    32    1
    32    29    44    2
    33    29    34    1
    34    31    41    1
    35    31    37    1
    36    32    30    1
    37    32    39    1
    38    33    28    2
    39    34    31    2
    40    38    30    1
    41    39    35    1
    42    40    28    1
    43    40    38    1
    44    41    36    1
    45    42    38    1
    46    42    37    1
    47    43    41    2
    48    44    43    1
