@<TRIPOS>MOLECULE
No_2222-gen_results/8p0m/2024-11-27-11-27-31/
 32 34 0 0 0
SMALL
GASTEIGER

@<TRIPOS>ATOM
      1 C         -28.0162   -0.8135   28.8779 C.3     1  UNL1        0.0953
      2 C         -27.0636   -0.1190   28.6079 C.ar    1  UNL1       -0.0044
      3 C         -26.9287    1.1713   29.0083 C.ar    1  UNL1       -0.0027
      4 C         -25.7702    2.0341   28.6884 C.ar    1  UNL1        0.0036
      5 C         -24.7141    1.4431   27.9188 C.ar    1  UNL1        0.0714
      6 C         -24.8590    0.0783   27.5836 C.ar    1  UNL1        0.0036
      7 C         -25.9647   -0.6606   27.9164 C.ar    1  UNL1       -0.0027
      8 N         -29.1701   -0.2984   28.9471 N.pl3   1  UNL1       -0.3052
      9 C         -29.8110    0.1551   29.8586 C.3     1  UNL1        0.0966
     10 C         -29.5832    0.1166   30.9538 C.3     1  UNL1        0.0866
     11 C         -28.6805   -0.7881   31.4567 C.3     1  UNL1        0.0094
     12 C         -27.8437   -1.4995   30.6261 C.3     1  UNL1        0.0245
     13 C         -23.4901    2.1245   27.5663 C.3     1  UNL1        0.4186
     14 F         -23.3531    2.6303   26.5221 F       1  UNL1       -0.1659
     15 F         -22.3545    1.1677   27.6599 F       1  UNL1       -0.1659
     16 F         -23.1585    3.0142   28.6091 F       1  UNL1       -0.1659
     17 C         -29.5461   -0.0224   27.4877 C.ar    1  UNL1        0.0482
     18 C         -30.9135   -0.0483   27.1713 C.ar    1  UNL1        0.0211
     19 C         -31.1814    0.1530   25.8714 C.ar    1  UNL1        0.0810
     20 C         -30.2020    0.3796   24.8889 C.ar    1  UNL1        0.0066
     21 C         -28.8773    0.4278   25.2503 C.ar    1  UNL1        0.0011
     22 C         -28.5579    0.2662   26.5803 C.ar    1  UNL1        0.0145
     23 C         -27.8286    0.7567   24.2425 C.2     1  UNL1       -0.0045
     24 C         -26.5680    1.0391   24.8695 C.2     1  UNL1       -0.0261
     25 C         -25.4623    0.9335   24.0593 C.3     1  UNL1        0.0260
     26 C         -32.6278    0.0407   25.4420 C.2     1  UNL1        0.3878
     27 O         -33.3597    0.7840   25.8710 O.co2   1  UNL1       -0.2406
     28 O         -32.7826   -0.6329   24.3208 O.co2   1  UNL1       -0.2406
     29 C         -30.5388    0.6581   32.0706 C.3     1  UNL1        0.3200
     30 F         -30.4593    0.3299   33.1684 F       1  UNL1       -0.1984
     31 F         -31.4889    1.4270   31.6911 F       1  UNL1       -0.1984
     32 C         -24.1274    1.2315   24.7771 C.3     1  UNL1        0.0050
@<TRIPOS>BOND
     1     1     2    1
     2     1     8    1
     3     8     9    1
     4    10    11    1
     5     1    12    1
     6     5    13    1
     7    13    14    1
     8    13    15    1
     9    13    16    1
    10     8    17    1
    11    21    23    1
    12    23    24    2
    13    24    25    1
    14    19    26    1
    15    26    27   ar
    16    26    28   ar
    17    10    29    1
    18    29    30    1
    19    29    31    1
    20    25    32    1
    21    12    11    1
    22    10     9    1
    23    17    18   ar
    24    18    19   ar
    25    19    20   ar
    26    20    21   ar
    27    21    22   ar
    28    22    17   ar
    29     2     3   ar
    30     3     4   ar
    31     4     5   ar
    32     5     6   ar
    33     6     7   ar
    34     7     2   ar
