@<TRIPOS>MOLECULE
outputs/IAG933/test6/raw/output_2223_IAG933_linker_design_.xyz
 41 44 0 0 0
SMALL
GASTEIGER

@<TRIPOS>ATOM
      1 C         -24.8550   -1.0120   30.1430 C.3     1  UNL1        0.0967
      2 C         -24.9730   -2.5050   29.7880 C.2     1  UNL1       -0.0064
      3 C         -23.9060   -3.1730   29.1460 C.2     1  UNL1       -0.0029
      4 C         -23.9890   -4.5490   28.8530 C.2     1  UNL1       -0.0003
      5 C         -25.1370   -5.2800   29.2050 C.2     1  UNL1       -0.0000
      6 C         -26.2320   -4.6110   29.7840 C.2     1  UNL1       -0.0003
      7 C         -26.1550   -3.2320   30.0650 C.2     1  UNL1       -0.0029
      8 C         -25.3870   -0.6790   31.5710 C.3     1  UNL1        0.0916
      9 C         -25.1890    0.7730   32.0280 C.3     1  UNL1        0.0206
     10 C         -25.3360    0.6840   33.5440 C.3     1  UNL1        0.0203
     11 C         -24.8290   -0.7150   33.9050 C.3     1  UNL1        0.0888
     12 N         -24.7580   -1.4810   32.6460 N.3     1  UNL1       -0.2178
     13 C         -25.6880    1.6140   26.4610 C.2     1  UNL1        0.0170
     14 C         -26.2500    2.9200   26.3950 C.2     1  UNL1        0.0726
     15 C         -25.6420    4.0930   27.1230 C.2     1  UNL1        0.2661
     16 N         -25.6140    5.2520   26.4490 N.am    1  UNL1       -0.1997
     17 C         -25.0260    6.4790   26.9630 C.3     1  UNL1        0.1388
     18 O         -25.1430    3.9660   28.2430 O.2     1  UNL1       -0.2683
     19 C         -27.4380    3.0910   25.6450 C.2     1  UNL1        0.1064
     20 N         -28.0750    2.0890   25.0030 N.2     1  UNL1       -0.2081
     21 C         -27.5430    0.8490   25.0790 C.2     1  UNL1        0.2530
     22 O         -28.1930   -0.2080   24.4770 O.2     1  UNL1       -0.4558
     23 C         -29.4600    0.0050   23.8660 C.3     1  UNL1        0.2426
     24 C         -30.0650   -1.3770   23.5730 C.3     1  UNL1        0.2292
     25 O         -30.7290   -1.8780   24.7210 O.3     1  UNL1       -0.2162
     26 C         -26.3540    0.5760   25.7770 C.2     1  UNL1        0.1891
     27 F         -25.8600   -0.6810   25.7950 F       1  UNL1       -0.1996
     28 O         -29.3968   -0.3976   30.5119 O.co2   1  UNL1       -0.2441
     29 N         -23.1138    0.8331   29.2292 N.3     1  UNL1       -0.2165
     30 C         -24.2044    1.1446   29.3822 C.3     1  UNL1        0.1049
     31 F         -23.1299    2.1648   25.5845 F       1  UNL1       -0.2372
     32 C         -21.9797    0.4787   28.6724 C.3     1  UNL1        0.0916
     33 C         -21.3143    1.2403   27.7202 C.3     1  UNL1        0.0541
     34 O         -28.0836    1.3834   30.2557 O.co2   1  UNL1       -0.2441
     35 C         -24.7907    1.3326   27.1872 C.3     1  UNL1        0.0437
     36 C         -23.4957    1.8977   26.8972 C.3     1  UNL1        0.0411
     37 C         -27.3879   -0.6006   29.1102 C.3     1  UNL1        0.1880
     38 N         -25.9348   -0.2972   29.4078 N.3     1  UNL1       -0.2593
     39 C         -28.3231    0.1964   30.0020 C.2     1  UNL1        0.3809
     40 C         -25.3083    0.6845   28.4769 C.3     1  UNL1        0.0798
     41 C         -22.3142    1.8547   26.6179 C.3     1  UNL1        0.1628
@<TRIPOS>BOND
     1     1    38    1
     2     2     7    1
     3     2     1    1
     4     3     2    2
     5     4     3    1
     6     4     5    2
     7     5     6    1
     8     6     7    2
     9     8     1    1
    10     8     9    1
    11     8    12    1
    12     9    10    1
    13    10    11    1
    14    12    11    1
    15    14    13    1
    16    14    15    1
    17    15    18    2
    18    16    17    1
    19    16    15    1
    20    19    14    2
    21    20    21    2
    22    20    19    1
    23    21    26    1
    24    22    21    1
    25    23    22    1
    26    24    23    1
    27    24    25    1
    28    26    27    1
    29    26    13    2
    30    29    30    1
    31    32    29    1
    32    33    32    1
    33    35    13    1
    34    35    40    1
    35    36    35    1
    36    37    38    1
    37    37    39    1
    38    39    34   ar
    39    39    28   ar
    40    40    30    1
    41    40    38    1
    42    41    31    1
    43    41    36    1
    44    41    33    1
