@<TRIPOS>MOLECULE
outputs/IAG933/test6/raw/output_2224_IAG933_linker_design_.xyz
 45 51 0 0 0
SMALL
GASTEIGER

@<TRIPOS>ATOM
      1 C         -24.8550   -1.0120   30.1430 C.3     1  UNL1        0.0962
      2 C         -24.9730   -2.5050   29.7880 C.2     1  UNL1       -0.0064
      3 C         -23.9060   -3.1730   29.1460 C.2     1  UNL1       -0.0029
      4 C         -23.9890   -4.5490   28.8530 C.2     1  UNL1       -0.0003
      5 C         -25.1370   -5.2800   29.2050 C.2     1  UNL1       -0.0000
      6 C         -26.2320   -4.6110   29.7840 C.2     1  UNL1       -0.0003
      7 C         -26.1550   -3.2320   30.0650 C.2     1  UNL1       -0.0029
      8 C         -25.3870   -0.6790   31.5710 C.3     1  UNL1        0.0916
      9 C         -25.1890    0.7730   32.0280 C.3     1  UNL1        0.0206
     10 C         -25.3360    0.6840   33.5440 C.3     1  UNL1        0.0203
     11 C         -24.8290   -0.7150   33.9050 C.3     1  UNL1        0.0888
     12 N         -24.7580   -1.4810   32.6460 N.3     1  UNL1       -0.2178
     13 C         -25.6880    1.6140   26.4610 C.2     1  UNL1        0.0169
     14 C         -26.2500    2.9200   26.3950 C.2     1  UNL1        0.0726
     15 C         -25.6420    4.0930   27.1230 C.2     1  UNL1        0.2661
     16 N         -25.6140    5.2520   26.4490 N.am    1  UNL1       -0.1997
     17 C         -25.0260    6.4790   26.9630 C.3     1  UNL1        0.1388
     18 O         -25.1430    3.9660   28.2430 O.2     1  UNL1       -0.2683
     19 C         -27.4380    3.0910   25.6450 C.2     1  UNL1        0.1064
     20 N         -28.0750    2.0890   25.0030 N.2     1  UNL1       -0.2081
     21 C         -27.5430    0.8490   25.0790 C.2     1  UNL1        0.2530
     22 O         -28.1930   -0.2080   24.4770 O.2     1  UNL1       -0.4558
     23 C         -29.4600    0.0050   23.8660 C.3     1  UNL1        0.2426
     24 C         -30.0650   -1.3770   23.5730 C.3     1  UNL1        0.2292
     25 O         -30.7290   -1.8780   24.7210 O.3     1  UNL1       -0.2162
     26 C         -26.3540    0.5760   25.7770 C.2     1  UNL1        0.1891
     27 F         -25.8600   -0.6810   25.7950 F       1  UNL1       -0.1996
     28 C         -28.3143    4.3222   31.2074 C.3     1  UNL1        0.0759
     29 C         -26.5683    0.8445   29.1461 C.3     1  UNL1        0.0177
     30 C         -21.6737    1.8282   27.1075 C.3     1  UNL1        0.0018
     31 C         -27.1920    2.0230   29.3298 C.3     1  UNL1        0.0187
     32 C         -25.2083    0.9202   28.6622 C.3     1  UNL1        0.0619
     33 C         -26.1301    5.3336   30.6421 C.3     1  UNL1        0.1195
     34 N         -28.0605    7.2137   33.9256 N.3     1  UNL1       -0.1061
     35 N         -24.2410   -0.1176   29.2993 N.3     1  UNL1       -0.2702
     36 C         -28.5482    5.0300   32.4838 C.3     1  UNL1        0.0613
     37 C         -27.6495    5.9062   33.2410 C.3     1  UNL1        0.1945
     38 C         -23.1694    1.9103   27.2637 C.3     1  UNL1        0.0068
     39 N         -26.2446    5.6563   33.2052 N.2     1  UNL1       -0.2548
     40 C         -25.6434    5.2973   31.9871 C.2     1  UNL1        0.0859
     41 C         -24.5374    1.2506   27.3185 C.3     1  UNL1        0.0396
     42 C         -27.9777    3.5628   30.1068 C.3     1  UNL1        0.0726
     43 C         -22.2684    1.2795   28.5745 C.3     1  UNL1        0.0164
     44 C         -22.7285   -0.0662   28.8035 C.3     1  UNL1        0.0723
     45 N         -27.4769    5.2456   30.6876 N.3     1  UNL1       -0.2675
@<TRIPOS>BOND
     1     1     2    1
     2     2     7    1
     3     3     2    2
     4     4     3    1
     5     4     5    2
     6     5     6    1
     7     6     7    2
     8     8     1    1
     9     8     9    1
    10     8    12    1
    11     9    10    1
    12    10    11    1
    13    12    11    1
    14    14    13    1
    15    14    15    1
    16    15    18    2
    17    16    17    1
    18    16    15    1
    19    19    14    2
    20    20    21    2
    21    20    19    1
    22    21    26    1
    23    22    21    1
    24    23    22    1
    25    24    23    1
    26    24    25    1
    27    26    27    1
    28    26    13    2
    29    28    36    1
    30    29    31    1
    31    32    29    1
    32    32    35    1
    33    33    40    1
    34    35     1    1
    35    36    37    1
    36    37    34    1
    37    38    30    1
    38    38    41    1
    39    38    43    1
    40    39    37    1
    41    40    39    2
    42    41    13    1
    43    41    32    1
    44    42    31    1
    45    42    45    1
    46    42    28    1
    47    43    30    1
    48    43    44    1
    49    44    35    1
    50    45    33    1
    51    45    28    1
