@<TRIPOS>MOLECULE
outputs/IAG933/test6/raw/output_2225_IAG933_linker_design_.xyz
 46 50 0 0 0
SMALL
GASTEIGER

@<TRIPOS>ATOM
      1 C         -24.8550   -1.0120   30.1430 C.3     1  UNL1        0.0624
      2 C         -24.9730   -2.5050   29.7880 C.2     1  UNL1       -0.0193
      3 C         -23.9060   -3.1730   29.1460 C.2     1  UNL1       -0.0042
      4 C         -23.9890   -4.5490   28.8530 C.2     1  UNL1       -0.0003
      5 C         -25.1370   -5.2800   29.2050 C.2     1  UNL1       -0.0000
      6 C         -26.2320   -4.6110   29.7840 C.2     1  UNL1       -0.0003
      7 C         -26.1550   -3.2320   30.0650 C.2     1  UNL1       -0.0042
      8 C         -25.3870   -0.6790   31.5710 C.3     1  UNL1        0.0786
      9 C         -25.1890    0.7730   32.0280 C.3     1  UNL1        0.0193
     10 C         -25.3360    0.6840   33.5440 C.3     1  UNL1        0.0202
     11 C         -24.8290   -0.7150   33.9050 C.3     1  UNL1        0.0887
     12 N         -24.7580   -1.4810   32.6460 N.3     1  UNL1       -0.2191
     13 C         -25.6880    1.6140   26.4610 C.2     1  UNL1        0.0889
     14 C         -26.2500    2.9200   26.3950 C.2     1  UNL1        0.0900
     15 C         -25.6420    4.0930   27.1230 C.2     1  UNL1        0.2676
     16 N         -25.6140    5.2520   26.4490 N.am    1  UNL1       -0.1997
     17 C         -25.0260    6.4790   26.9630 C.3     1  UNL1        0.1388
     18 O         -25.1430    3.9660   28.2430 O.2     1  UNL1       -0.2683
     19 C         -27.4380    3.0910   25.6450 C.2     1  UNL1        0.1080
     20 N         -28.0750    2.0890   25.0030 N.2     1  UNL1       -0.2080
     21 C         -27.5430    0.8490   25.0790 C.2     1  UNL1        0.2546
     22 O         -28.1930   -0.2080   24.4770 O.2     1  UNL1       -0.4558
     23 C         -29.4600    0.0050   23.8660 C.3     1  UNL1        0.2426
     24 C         -30.0650   -1.3770   23.5730 C.3     1  UNL1        0.2292
     25 O         -30.7290   -1.8780   24.7210 O.3     1  UNL1       -0.2162
     26 C         -26.3540    0.5760   25.7770 C.2     1  UNL1        0.2063
     27 F         -25.8600   -0.6810   25.7950 F       1  UNL1       -0.1979
     28 C         -25.1923   -0.1649   28.9076 C.3     1  UNL1        0.1443
     29 N         -24.3985    1.3775   27.1151 N.pl3   1  UNL1       -0.2687
     30 C         -22.1197    1.4374   27.8625 C.3     1  UNL1        0.1807
     31 C         -28.9924   -0.0145   28.7507 C.2     1  UNL1       -0.0280
     32 C         -28.8341    1.3122   29.2168 C.3     1  UNL1        0.0274
     33 C         -23.1895    2.1639   26.8479 C.3     1  UNL1        0.1855
     34 C         -31.5810    0.9319   30.1680 C.3     1  UNL1        0.0477
     35 C         -31.3861   -0.0080   29.1209 C.3     1  UNL1        0.0084
     36 CL        -22.3425    2.3157   25.2905 Cl      1  UNL1       -0.0900
     37 C         -24.3120    0.8864   28.5026 C.3     1  UNL1        0.2137
     38 N         -31.5433    2.8738   31.2003 N.3     1  UNL1       -0.1910
     39 C         -29.3623    2.1574   30.1584 C.3     1  UNL1        0.0517
     40 O         -22.8369    0.2934   28.3935 O.3     1  UNL1       -0.3330
     41 C         -27.7498   -0.6167   28.8469 C.2     1  UNL1        0.0716
     42 C         -30.6716    2.1513   30.8813 C.3     1  UNL1        0.1861
     43 C         -30.2266   -0.6009   28.5232 C.3     1  UNL1        0.0235
     44 C         -32.3055    3.3842   32.3334 C.3     1  UNL1        0.1100
     45 O         -30.0065    2.5725   32.2648 O.3     1  UNL1       -0.2078
     46 N         -26.6087    0.2625   29.2475 N.pl3   1  UNL1       -0.2340
@<TRIPOS>BOND
     1     1    28    1
     2     2     7    1
     3     2     1    1
     4     3     2    2
     5     4     3    1
     6     4     5    2
     7     5     6    1
     8     6     7    2
     9     8     1    1
    10     8     9    1
    11     8    12    1
    12     9    10    1
    13    10    11    1
    14    12    11    1
    15    13    29    1
    16    14    13    1
    17    14    15    1
    18    15    18    2
    19    16    17    1
    20    16    15    1
    21    19    14    2
    22    20    21    2
    23    20    19    1
    24    21    26    1
    25    22    21    1
    26    23    22    1
    27    24    23    1
    28    24    25    1
    29    26    27    1
    30    26    13    2
    31    28    46    1
    32    29    37    1
    33    30    40    1
    34    31    41    2
    35    31    32    1
    36    32    39    1
    37    33    36    1
    38    33    29    1
    39    33    30    1
    40    34    42    1
    41    35    34    1
    42    37    28    1
    43    38    44    1
    44    39    42    1
    45    40    37    1
    46    41    46    1
    47    42    38    1
    48    42    45    1
    49    43    31    1
    50    43    35    1
