@<TRIPOS>MOLECULE
No_2229-gen_results/8p0m/2024-11-27-11-27-31/
 27 29 0 0 0
SMALL
GASTEIGER

@<TRIPOS>ATOM
      1 N         -28.0544   -1.0498   28.7246 N.pl3   1  UNL1       -0.2124
      2 C         -26.9659   -0.4722   28.7709 C.ar    1  UNL1        0.0736
      3 C         -25.9289   -1.0196   29.5059 C.ar    1  UNL1        0.0572
      4 C         -24.5844   -0.4437   29.6599 C.ar    1  UNL1        0.0028
      5 C         -24.3615    0.7792   28.9691 C.ar    1  UNL1        0.0108
      6 C         -25.4238    1.3029   28.1832 C.ar    1  UNL1       -0.0003
      7 C         -26.6399    0.7108   28.0777 C.ar    1  UNL1        0.0151
      8 C         -29.0001   -0.6219   29.6852 C.ar    1  UNL1        0.0706
      9 C         -30.0545   -0.7458   29.7865 C.ar    1  UNL1        0.0165
     10 C         -30.9456   -0.2911   30.8410 C.ar    1  UNL1        0.0015
     11 C         -30.3151    0.3874   31.8852 C.ar    1  UNL1        0.0047
     12 C         -28.3162    0.1081   30.9245 C.ar    1  UNL1        0.0211
     13 C         -29.0383    0.5132   31.9404 C.ar    1  UNL1        0.0567
     14 C         -27.6290    1.3222   27.2308 C.ar    1  UNL1        0.0013
     15 C         -27.4123    2.3525   26.5966 C.ar    1  UNL1        0.0000
     16 C         -26.0841    2.9465   26.5785 C.ar    1  UNL1       -0.0000
     17 C         -25.0640    2.4782   27.4028 C.ar    1  UNL1       -0.0002
     18 C         -23.0174    1.3666   28.9618 C.3     1  UNL1        0.2086
     19 O         -22.0774    0.7296   28.4280 O.3     1  UNL1       -0.2152
     20 C         -26.0564   -2.2750   30.3146 C.2     1  UNL1        0.2354
     21 C         -28.3515    1.2337   33.0650 C.2     1  UNL1        0.2691
     22 N         -27.6219    1.9247   33.1470 N.am    1  UNL1       -0.1732
     23 C         -27.1273    2.6050   32.1805 C.2     1  UNL1        0.1012
     24 C         -25.9621    3.4231   32.3768 C.2     1  UNL1        0.0861
     25 CL        -25.8312    5.0250   32.3469 Cl      1  UNL1       -0.0799
     26 O         -28.7064    0.5823   34.2405 O.2     1  UNL1       -0.2680
     27 O         -25.4071   -3.2669   29.8071 O.2     1  UNL1       -0.2831
@<TRIPOS>BOND
     1     1     2    1
     2     1     8    1
     3     5    18    1
     4    18    19    1
     5     3    20    1
     6    13    21    1
     7    21    22   am
     8    22    23    1
     9    23    24    2
    10    24    25    1
    11    21    26    2
    12    20    27    2
    13     2     3   ar
    14     3     4   ar
    15     4     5   ar
    16     5     6   ar
    17     7     2   ar
    18     8     9   ar
    19     9    10   ar
    20    10    11   ar
    21    11    13   ar
    22    13    12   ar
    23    12     8   ar
    24     6     7   ar
    25     7    14   ar
    26    14    15   ar
    27    15    16   ar
    28    16    17   ar
    29    17     6   ar
