@<TRIPOS>MOLECULE
outputs/IAG933/test6/raw/output_2232_IAG933_linker_design_.xyz
 43 47 0 0 0
SMALL
GASTEIGER

@<TRIPOS>ATOM
      1 C         -24.8550   -1.0120   30.1430 C.3     1  UNL1        0.0438
      2 C         -24.9730   -2.5050   29.7880 C.2     1  UNL1       -0.0208
      3 C         -23.9060   -3.1730   29.1460 C.2     1  UNL1       -0.0042
      4 C         -23.9890   -4.5490   28.8530 C.2     1  UNL1       -0.0003
      5 C         -25.1370   -5.2800   29.2050 C.2     1  UNL1       -0.0000
      6 C         -26.2320   -4.6110   29.7840 C.2     1  UNL1       -0.0003
      7 C         -26.1550   -3.2320   30.0650 C.2     1  UNL1       -0.0042
      8 C         -25.3870   -0.6790   31.5710 C.3     1  UNL1        0.0786
      9 C         -25.1890    0.7730   32.0280 C.3     1  UNL1        0.0367
     10 C         -25.3360    0.6840   33.5440 C.3     1  UNL1        0.0217
     11 C         -24.8290   -0.7150   33.9050 C.3     1  UNL1        0.0887
     12 N         -24.7580   -1.4810   32.6460 N.3     1  UNL1       -0.2191
     13 C         -25.6880    1.6140   26.4610 C.2     1  UNL1        0.0169
     14 C         -26.2500    2.9200   26.3950 C.2     1  UNL1        0.0726
     15 C         -25.6420    4.0930   27.1230 C.2     1  UNL1        0.2661
     16 N         -25.6140    5.2520   26.4490 N.am    1  UNL1       -0.1997
     17 C         -25.0260    6.4790   26.9630 C.3     1  UNL1        0.1388
     18 O         -25.1430    3.9660   28.2430 O.2     1  UNL1       -0.2683
     19 C         -27.4380    3.0910   25.6450 C.2     1  UNL1        0.1064
     20 N         -28.0750    2.0890   25.0030 N.2     1  UNL1       -0.2081
     21 C         -27.5430    0.8490   25.0790 C.2     1  UNL1        0.2530
     22 O         -28.1930   -0.2080   24.4770 O.2     1  UNL1       -0.4558
     23 C         -29.4600    0.0050   23.8660 C.3     1  UNL1        0.2426
     24 C         -30.0650   -1.3770   23.5730 C.3     1  UNL1        0.2292
     25 O         -30.7290   -1.8780   24.7210 O.3     1  UNL1       -0.2162
     26 C         -26.3540    0.5760   25.7770 C.2     1  UNL1        0.1891
     27 F         -25.8600   -0.6810   25.7950 F       1  UNL1       -0.1996
     28 N         -28.8568    2.8192   31.8589 N.pl3   1  UNL1       -0.3073
     29 C         -28.0097    1.7147   29.8114 C.2     1  UNL1       -0.0134
     30 C         -25.5041    1.8533   31.0177 C.3     1  UNL1        0.1099
     31 N         -25.0312    1.5060   29.5787 N.3     1  UNL1       -0.2175
     32 C         -27.7852    2.4845   31.0765 C.2     1  UNL1        0.0525
     33 C         -30.5697    2.1061   30.2089 C.3     1  UNL1        0.0261
     34 C         -24.4354    1.3842   27.0590 C.3     1  UNL1        0.0409
     35 C         -23.8907    1.5863   28.5703 C.3     1  UNL1        0.0769
     36 C         -29.4732    1.3204   29.5258 C.3     1  UNL1        0.0288
     37 C         -30.1650    2.2008   31.6511 C.3     1  UNL1        0.0910
     38 C         -28.3973    2.8377   33.2376 C.3     1  UNL1        0.1120
     39 O         -25.3161    3.5820   31.9045 O.3     1  UNL1       -0.2155
     40 C         -26.4320    2.9747   31.3734 C.3     1  UNL1        0.2028
     41 C         -23.2380    1.7569   26.1333 C.3     1  UNL1        0.0059
     42 C         -22.5470    1.2878   28.4997 C.3     1  UNL1        0.0177
     43 C         -22.0881    1.8851   27.1845 C.3     1  UNL1        0.0018
@<TRIPOS>BOND
     1     2     7    1
     2     2     1    1
     3     3     2    2
     4     4     3    1
     5     4     5    2
     6     5     6    1
     7     6     7    2
     8     8     1    1
     9     8     9    1
    10     8    12    1
    11     9    30    1
    12     9    10    1
    13    10    11    1
    14    12    11    1
    15    14    13    1
    16    14    15    1
    17    15    18    2
    18    16    17    1
    19    16    15    1
    20    19    14    2
    21    20    21    2
    22    20    19    1
    23    21    26    1
    24    22    21    1
    25    23    22    1
    26    24    23    1
    27    24    25    1
    28    26    27    1
    29    26    13    2
    30    28    38    1
    31    29    32    2
    32    30    31    1
    33    30    40    1
    34    32    40    1
    35    32    28    1
    36    33    37    1
    37    34    13    1
    38    34    35    1
    39    35    31    1
    40    36    29    1
    41    36    33    1
    42    37    28    1
    43    40    39    1
    44    41    34    1
    45    41    43    1
    46    42    35    1
    47    43    42    1
