@<TRIPOS>MOLECULE
No_2235-gen_results/8p0m/2024-11-27-11-27-31/
 15 16 0 0 0
SMALL
GASTEIGER

@<TRIPOS>ATOM
      1 C         -28.0162   -0.8135   28.8779 C.ar    1  UNL1       -0.0001
      2 C         -27.0636   -0.1190   28.6079 C.ar    1  UNL1       -0.0040
      3 C         -26.9716    0.7139   27.5060 C.ar    1  UNL1       -0.0185
      4 C         -28.1053    0.7744   26.6421 C.ar    1  UNL1        0.0026
      5 C         -29.2041    0.1179   27.0477 C.ar    1  UNL1        0.0795
      6 C         -30.3488    0.2568   26.2203 C.2     1  UNL1        0.3877
      7 C         -29.1817   -0.6758   28.1173 C.ar    1  UNL1        0.0066
      8 O         -31.3387   -0.2347   26.5001 O.co2   1  UNL1       -0.2406
      9 O         -30.3761    1.1595   25.2713 O.co2   1  UNL1       -0.2406
     10 C         -25.6602    1.4148   27.1421 C.3     1  UNL1        0.0406
     11 C         -25.1540    2.3471   28.1428 C.2     1  UNL1       -0.0444
     12 C         -23.9006    2.9158   27.8096 C.2     1  UNL1       -0.0343
     13 C         -23.1688    2.4581   26.6774 C.3     1  UNL1        0.0261
     14 C         -24.3432    1.0448   26.5690 C.3     1  UNL1        0.0130
     15 C         -26.1402    3.5803   28.3485 C.3     1  UNL1        0.0263
@<TRIPOS>BOND
     1     5     6    1
     2     6     8   ar
     3     6     9   ar
     4     3    10    1
     5    10    11    1
     6    11    12    2
     7    12    13    1
     8    10    14    1
     9    13    14    1
    10    11    15    1
    11     1     2   ar
    12     2     3   ar
    13     3     4   ar
    14     4     5   ar
    15     5     7   ar
    16     7     1   ar
