@<TRIPOS>MOLECULE
No_2238-gen_results/8p0m/2024-11-27-11-27-31/
 7 6 0 0 0
SMALL
GASTEIGER

@<TRIPOS>ATOM
      1 C         -28.0162   -0.8135   28.8779 C.2     1  UNL1       -0.0000
      2 C         -27.0636   -0.1189   28.6079 C.2     1  UNL1       -0.0000
      3 C         -25.7647   -0.3897   29.0360 C.2     1  UNL1       -0.0000
      4 C         -25.5296   -1.5302   29.9014 C.2     1  UNL1       -0.0003
      5 C         -26.6888   -2.2893   30.1810 C.2     1  UNL1       -0.0046
      6 C         -27.8727   -1.9508   29.7373 C.2     1  UNL1       -0.0258
      7 C         -28.9971   -2.8256   30.1623 C.3     1  UNL1        0.0307
@<TRIPOS>BOND
     1     1     2    2
     2     2     3    1
     3     3     4    2
     4     4     5    1
     5     5     6    2
     6     6     7    1
