@<TRIPOS>MOLECULE
outputs/IAG933/test6/raw/output_2242_IAG933_linker_design_.xyz
 43 46 0 0 0
SMALL
GASTEIGER

@<TRIPOS>ATOM
      1 C         -24.8550   -1.0120   30.1430 C.3     1  UNL1        0.0437
      2 C         -24.9730   -2.5050   29.7880 C.2     1  UNL1       -0.0208
      3 C         -23.9060   -3.1730   29.1460 C.2     1  UNL1       -0.0042
      4 C         -23.9890   -4.5490   28.8530 C.2     1  UNL1       -0.0003
      5 C         -25.1370   -5.2800   29.2050 C.2     1  UNL1       -0.0000
      6 C         -26.2320   -4.6110   29.7840 C.2     1  UNL1       -0.0003
      7 C         -26.1550   -3.2320   30.0650 C.2     1  UNL1       -0.0042
      8 C         -25.3870   -0.6790   31.5710 C.3     1  UNL1        0.0773
      9 C         -25.1890    0.7730   32.0280 C.3     1  UNL1        0.0222
     10 C         -25.3360    0.6840   33.5440 C.3     1  UNL1        0.0203
     11 C         -24.8290   -0.7150   33.9050 C.3     1  UNL1        0.0887
     12 N         -24.7580   -1.4810   32.6460 N.3     1  UNL1       -0.2191
     13 C         -25.6880    1.6140   26.4610 C.3     1  UNL1        0.0974
     14 C         -26.2500    2.9200   26.3950 C.2     1  UNL1        0.0572
     15 C         -25.6420    4.0930   27.1230 C.2     1  UNL1        0.2625
     16 N         -25.6140    5.2520   26.4490 N.am    1  UNL1       -0.2000
     17 C         -25.0260    6.4790   26.9630 C.3     1  UNL1        0.1388
     18 O         -25.1430    3.9660   28.2430 O.2     1  UNL1       -0.2687
     19 C         -27.4380    3.0910   25.6450 C.2     1  UNL1        0.1022
     20 N         -28.0750    2.0890   25.0030 N.2     1  UNL1       -0.2119
     21 C         -27.5430    0.8490   25.0790 C.2     1  UNL1        0.2342
     22 O         -28.1930   -0.2080   24.4770 O.2     1  UNL1       -0.4585
     23 C         -29.4600    0.0050   23.8660 C.3     1  UNL1        0.2423
     24 C         -30.0650   -1.3770   23.5730 C.3     1  UNL1        0.2292
     25 O         -30.7290   -1.8780   24.7210 O.3     1  UNL1       -0.2162
     26 C         -26.3540    0.5760   25.7770 C.3     1  UNL1        0.2423
     27 F         -25.8600   -0.6810   25.7950 F       1  UNL1       -0.2268
     28 F         -20.6169    1.1209   26.8395 F       1  UNL1       -0.2012
     29 O         -22.7682    1.6842   29.6500 O.3     1  UNL1       -0.2172
     30 C         -22.3526    1.1124   28.3642 C.3     1  UNL1        0.2178
     31 C         -21.5831    1.9684   27.2558 C.3     1  UNL1        0.3092
     32 N         -26.8469    4.1099   30.5441 N.3     1  UNL1       -0.1207
     33 O         -22.5596    2.1707   26.0636 O.3     1  UNL1       -0.3248
     34 O         -24.0743    3.9744   32.0684 O.co2   1  UNL1       -0.2440
     35 C         -23.2726    0.9554   26.0214 C.3     1  UNL1        0.1502
     36 C         -24.7135    1.5964   27.6313 C.3     1  UNL1        0.1275
     37 C         -26.1809    1.6513   31.3169 C.3     1  UNL1        0.0597
     38 C         -26.6450    1.2194   29.9363 C.3     1  UNL1        0.1440
     39 C         -25.3171    3.6466   32.4886 C.2     1  UNL1        0.3819
     40 O         -25.5268    1.1277   28.9970 O.3     1  UNL1       -0.3556
     41 C         -23.5265    0.5041   27.5207 C.3     1  UNL1        0.0931
     42 OXT       -25.6267    3.6262   33.6982 O.co2   1  UNL1       -0.2440
     43 CA        -26.2590    3.1404   31.5146 C.3     1  UNL1        0.1967
@<TRIPOS>BOND
     1     2     7    1
     2     2     1    1
     3     3     2    2
     4     4     3    1
     5     4     5    2
     6     5     6    1
     7     6     7    2
     8     8     1    1
     9     8     9    1
    10     8    12    1
    11     9    37    1
    12     9    10    1
    13    10    11    1
    14    12    11    1
    15    13    36    1
    16    14    13    1
    17    14    15    1
    18    15    18    2
    19    16    17    1
    20    16    15    1
    21    19    14    2
    22    20    21    2
    23    20    19    1
    24    21    26    1
    25    22    21    1
    26    23    22    1
    27    24    23    1
    28    24    25    1
    29    26    27    1
    30    26    13    1
    31    30    29    1
    32    31    28    1
    33    31    30    1
    34    33    31    1
    35    34    39   ar
    36    35    33    1
    37    35    41    1
    38    36    40    1
    39    37    38    1
    40    37    43    1
    41    39    42   ar
    42    40    38    1
    43    41    36    1
    44    41    30    1
    45    43    32    1
    46    43    39    1
