@<TRIPOS>MOLECULE
No_2248-gen_results/8p0m/2024-11-27-11-27-31/
 16 16 0 0 0
SMALL
GASTEIGER

@<TRIPOS>ATOM
      1 C         -28.0162   -0.8135   28.8779 C.ar    1  UNL1        0.0161
      2 C         -28.4690   -0.7850   29.8287 C.ar    1  UNL1        0.0013
      3 C         -26.5455   -0.8762   28.8500 C.ar    1  UNL1        0.0653
      4 C         -25.8041   -1.0324   30.0571 C.ar    1  UNL1        0.0148
      5 C         -26.5373   -1.0386   31.2171 C.ar    1  UNL1        0.0013
      6 C         -27.8843   -0.9532   31.1862 C.ar    1  UNL1        0.0001
      7 C         -24.3655   -1.1134   30.0483 C.2     1  UNL1        0.0014
      8 C         -23.6254   -0.9434   29.0230 C.2     1  UNL1        0.0029
      9 C         -24.0623   -0.2052   27.9349 C.2     1  UNL1        0.0351
     10 C         -25.8333   -0.5661   27.5939 C.2     1  UNL1        0.1494
     11 N         -26.0400   -2.0933   28.5964 N.pl3   1  UNL1       -0.2357
     12 C         -26.1999    0.0031   26.4299 C.3     1  UNL1        0.2452
     13 O         -25.7444   -0.9650   26.6740 O.3     1  UNL1       -0.2117
     14 O         -25.6083    0.7184   28.2558 O.2     1  UNL1       -0.4731
     15 C         -25.4966    1.7699   28.6921 C.3     1  UNL1        0.2521
     16 C         -25.8145   -3.1686   28.7224 C.3     1  UNL1        0.1355
@<TRIPOS>BOND
     1     4     7    1
     2     7     8    2
     3     8     9    1
     4     9    10    2
     5     3    11    1
     6    10    12    1
     7    12    13    1
     8    10    14    1
     9    14    15    1
    10    11    16    1
    11     1     2   ar
    12     2     6   ar
    13     6     5   ar
    14     5     4   ar
    15     4     3   ar
    16     3     1   ar
