@<TRIPOS>MOLECULE
No_2249-gen_results/8p0m/2024-11-27-11-27-31/
 19 20 0 0 0
SMALL
GASTEIGER

@<TRIPOS>ATOM
      1 C         -28.0162   -0.8135   28.8779 C.ar    1  UNL1        0.0003
      2 C         -27.0636   -0.1189   28.6079 C.ar    1  UNL1        0.0032
      3 C         -26.9716    0.7139   27.5060 C.ar    1  UNL1        0.0003
      4 C         -28.1053    0.7744   26.6421 C.ar    1  UNL1        0.0066
      5 C         -29.2041    0.1179   27.0477 C.ar    1  UNL1        0.0798
      6 C         -29.2127   -0.6088   28.1281 C.ar    1  UNL1        0.0066
      7 C         -30.3709    0.2326   26.1381 C.2     1  UNL1        0.3878
      8 O         -30.3086    0.1051   24.9412 O.co2   1  UNL1       -0.2406
      9 O         -31.5786    0.2663   26.6747 O.co2   1  UNL1       -0.2406
     10 C         -25.6671    1.4055   27.1237 C.ar    1  UNL1        0.0039
     11 C         -24.5337    1.0352   27.7283 C.ar    1  UNL1        0.0715
     12 C         -24.2986    0.1217   28.7151 C.ar    1  UNL1        0.0071
     13 C         -25.5993   -0.4857   29.1694 C.ar    1  UNL1        0.0422
     14 C         -23.2264    1.7895   27.3608 C.3     1  UNL1        0.4186
     15 F         -23.3488    2.7015   26.5058 F       1  UNL1       -0.1659
     16 F         -22.6322    2.4232   28.4719 F       1  UNL1       -0.1659
     17 F         -22.2791    0.9433   26.9254 F       1  UNL1       -0.1659
     18 C         -25.4875   -1.4384   30.2757 C.2     1  UNL1        0.2341
     19 O         -25.2031   -2.5514   29.9383 O.2     1  UNL1       -0.2831
@<TRIPOS>BOND
     1     5     7    1
     2     7     8   ar
     3     7     9   ar
     4    11    14    1
     5    14    15    1
     6    14    16    1
     7    14    17    1
     8    13    18    1
     9    18    19    2
    10     3    10   ar
    11    10    11   ar
    12    11    12   ar
    13    12    13   ar
    14    13     2   ar
    15     1     2   ar
    16     2     3   ar
    17     3     4   ar
    18     4     5   ar
    19     5     6   ar
    20     6     1   ar
