@<TRIPOS>MOLECULE
No_2250-gen_results/8p0m/2024-11-27-11-27-31/
 35 39 0 0 0
SMALL
GASTEIGER

@<TRIPOS>ATOM
      1 C         -28.0162   -0.8135   28.8779 C.ar    1  UNL1       -0.0037
      2 C         -27.0636   -0.1189   28.6079 C.ar    1  UNL1       -0.0258
      3 C         -27.0010    0.6913   27.4910 C.ar    1  UNL1       -0.0219
      4 C         -28.1373    0.7363   26.6350 C.ar    1  UNL1        0.0071
      5 C         -29.2360    0.0765   27.0690 C.ar    1  UNL1        0.0573
      6 C         -29.2177   -0.6429   28.1747 C.ar    1  UNL1        0.0111
      7 CL        -30.6116    0.1653   26.0711 Cl      1  UNL1       -0.0823
      8 C         -25.7122   -0.2157   29.4104 C.3     1  UNL1        0.0259
      9 C         -25.0698    1.0084   29.7579 C.3     1  UNL1        0.0087
     10 C         -24.3907    1.5820   28.5881 C.3     1  UNL1        0.0189
     11 C         -25.1336    2.3381   27.5988 C.2     1  UNL1       -0.0408
     12 C         -24.3463    3.2984   26.8677 C.2     1  UNL1       -0.0088
     13 C         -26.3879    1.8735   27.0699 C.3     1  UNL1        0.0403
     14 C         -26.9189    2.7575   26.0808 C.3     1  UNL1        0.0091
     15 C         -23.3403    0.7979   28.0500 C.3     1  UNL1        0.0041
     16 C         -24.6870   -1.1341   28.6265 C.3     1  UNL1        0.0043
     17 C         -24.8267   -2.5201   28.9192 C.3     1  UNL1        0.0004
     18 C         -23.5916   -0.5898   28.0832 C.3     1  UNL1        0.0007
     19 C         -26.0199   -0.7989   30.8561 C.3     1  UNL1        0.0438
     20 C         -25.2550   -3.2615   29.9047 C.3     1  UNL1        0.0007
     21 C         -26.2673   -2.3842   30.7640 C.3     1  UNL1        0.0085
     22 C         -24.8073   -0.6675   31.7664 C.2     1  UNL1       -0.0223
     23 C         -27.2478   -0.1889   31.5056 C.ar    1  UNL1        0.0199
     24 C         -27.6789   -0.5219   32.7647 C.ar    1  UNL1       -0.0008
     25 C         -28.9887   -0.4373   33.0443 C.ar    1  UNL1       -0.0004
     26 C         -29.6718    0.3765   32.1954 C.ar    1  UNL1       -0.0008
     27 C         -29.1578    0.9518   31.0690 C.ar    1  UNL1        0.0208
     28 C         -27.9414    0.6470   30.6739 C.ar    1  UNL1        0.1883
     29 O         -27.3750    2.0655   31.3070 O.3     1  UNL1       -0.2872
     30 C         -24.1788   -1.7558   32.3184 C.2     1  UNL1       -0.0046
     31 C         -29.9955    1.7498   30.1557 C.3     1  UNL1        0.0555
     32 C         -29.7086    3.1540   29.8836 C.2     1  UNL1       -0.0213
     33 C         -29.5721    3.9501   30.6777 C.2     1  UNL1       -0.0042
     34 C         -29.2579    5.3455   30.3950 C.2     1  UNL1       -0.0003
     35 C         -29.1415    5.7262   29.0533 C.2     1  UNL1       -0.0000
@<TRIPOS>BOND
     1     5     7    1
     2     2     8    1
     3     8     9    1
     4     9    10    1
     5    10    11    1
     6    11    12    2
     7     3    13    1
     8    11    13    1
     9    13    14    1
    10    10    15    1
    11     8    16    1
    12    16    17    1
    13    15    18    1
    14    16    18    1
    15     8    19    1
    16    17    20    1
    17    19    21    1
    18    20    21    1
    19    19    22    1
    20    19    23    1
    21    28    29    1
    22    22    30    2
    23    27    31    1
    24    31    32    1
    25    32    33    2
    26    33    34    1
    27    34    35    2
    28     1     2   ar
    29     2     3   ar
    30     3     4   ar
    31     4     5   ar
    32     5     6   ar
    33     6     1   ar
    34    23    24   ar
    35    24    25   ar
    36    25    26   ar
    37    26    27   ar
    38    27    28   ar
    39    28    23   ar
