@<TRIPOS>MOLECULE
outputs/IAG933/test6/raw/output_2253_IAG933_linker_design_.xyz
 59 66 0 0 0
SMALL
GASTEIGER

@<TRIPOS>ATOM
      1 C         -24.8550   -1.0120   30.1430 C.3     1  UNL1        0.0425
      2 C         -24.9730   -2.5050   29.7880 C.2     1  UNL1       -0.0208
      3 C         -23.9060   -3.1730   29.1460 C.2     1  UNL1       -0.0042
      4 C         -23.9890   -4.5490   28.8530 C.2     1  UNL1       -0.0003
      5 C         -25.1370   -5.2800   29.2050 C.2     1  UNL1       -0.0000
      6 C         -26.2320   -4.6110   29.7840 C.2     1  UNL1       -0.0003
      7 C         -26.1550   -3.2320   30.0650 C.2     1  UNL1       -0.0042
      8 C         -25.3870   -0.6790   31.5710 C.3     1  UNL1        0.0771
      9 C         -25.1890    0.7730   32.0280 C.3     1  UNL1        0.0192
     10 C         -25.3360    0.6840   33.5440 C.3     1  UNL1        0.0202
     11 C         -24.8290   -0.7150   33.9050 C.3     1  UNL1        0.0887
     12 N         -24.7580   -1.4810   32.6460 N.3     1  UNL1       -0.2191
     13 C         -25.6880    1.6140   26.4610 C.2     1  UNL1        0.0157
     14 C         -26.2500    2.9200   26.3950 C.2     1  UNL1        0.0726
     15 C         -25.6420    4.0930   27.1230 C.2     1  UNL1        0.2661
     16 N         -25.6140    5.2520   26.4490 N.am    1  UNL1       -0.1997
     17 C         -25.0260    6.4790   26.9630 C.3     1  UNL1        0.1388
     18 O         -25.1430    3.9660   28.2430 O.2     1  UNL1       -0.2683
     19 C         -27.4380    3.0910   25.6450 C.2     1  UNL1        0.1064
     20 N         -28.0750    2.0890   25.0030 N.2     1  UNL1       -0.2081
     21 C         -27.5430    0.8490   25.0790 C.2     1  UNL1        0.2530
     22 O         -28.1930   -0.2080   24.4770 O.2     1  UNL1       -0.4558
     23 C         -29.4600    0.0050   23.8660 C.3     1  UNL1        0.2426
     24 C         -30.0650   -1.3770   23.5730 C.3     1  UNL1        0.2292
     25 O         -30.7290   -1.8780   24.7210 O.3     1  UNL1       -0.2162
     26 C         -26.3540    0.5760   25.7770 C.2     1  UNL1        0.1891
     27 F         -25.8600   -0.6810   25.7950 F       1  UNL1       -0.1996
     28 C         -22.2182    1.1014   27.4491 C.3     1  UNL1        0.1825
     29 C         -23.2284    1.9546   26.6742 C.3     1  UNL1        0.0401
     30 C         -35.5796    5.0906   30.9597 C.3     1  UNL1        0.0117
     31 C         -36.4932    5.3365   29.9049 C.3     1  UNL1        0.0117
     32 C         -27.9085    0.5982   29.1276 C.2     1  UNL1        0.1718
     33 C         -26.8060   -0.3121   28.8130 C.2     1  UNL1        0.0115
     34 O         -29.0548    0.2112   28.4901 O.2     1  UNL1       -0.2916
     35 C         -24.3453    0.2209   28.0262 C.3     1  UNL1        0.0417
     36 O         -22.9522    1.3731   29.6345 O.3     1  UNL1       -0.2204
     37 C         -32.2893    3.5139   31.0125 C.2     1  UNL1        0.1472
     38 C         -32.4097    3.2436   29.5100 C.3     1  UNL1        0.1230
     39 C         -25.3376   -0.0248   29.0938 C.3     1  UNL1        0.0331
     40 O         -21.0964    1.8697   27.8496 O.3     1  UNL1       -0.2204
     41 C         -28.4160    3.4717   31.5702 C.3     1  UNL1        0.2235
     42 N         -31.0219    4.3246   32.8253 N.2     1  UNL1       -0.2452
     43 S         -33.9244    4.0318   28.9158 S.3     1  UNL1       -0.1330
     44 N         -27.8344    4.2945   32.4815 N.2     1  UNL1       -0.0935
     45 N         -25.7620    5.5523   32.2699 N.pl3   1  UNL1        0.1466
     46 C         -27.4757    2.9528   30.7269 C.3     1  UNL1        0.2171
     47 C         -31.6877    3.8673   34.0444 C.2     1  UNL1        0.1018
     48 N         -26.3168    3.7129   30.9039 N.pl3   1  UNL1       -0.0603
     49 C         -28.1605    1.9532   29.9023 C.3     1  UNL1        0.1030
     50 O         -33.4647    2.9884   31.6946 O.2     1  UNL1       -0.4526
     51 C         -33.2811    2.0771   32.8534 C.2     1  UNL1        0.1807
     52 C         -26.6479    4.5200   31.8935 C.cat   1  UNL1        0.4726
     53 C         -29.4601    2.4781   29.8778 C.3     1  UNL1        0.0207
     54 C         -32.2831    2.4181   34.0522 C.2     1  UNL1        0.0612
     55 C         -22.8824    0.3478   28.5807 C.3     1  UNL1        0.1827
     56 C         -35.4986    4.1940   29.7824 C.3     1  UNL1        0.0481
     57 C         -30.9995    3.6602   31.5903 C.2     1  UNL1        0.0932
     58 C         -29.7848    3.2636   31.0397 C.3     1  UNL1        0.0867
     59 C         -24.6099    1.3728   27.1042 C.3     1  UNL1        0.0304
@<TRIPOS>BOND
     1     1    39    1
     2     2     7    1
     3     2     1    1
     4     3     2    2
     5     4     3    1
     6     4     5    2
     7     5     6    1
     8     6     7    2
     9     8     1    1
    10     8     9    1
    11     8    12    1
    12     9    10    1
    13    10    11    1
    14    12    11    1
    15    14    13    1
    16    14    15    1
    17    15    18    2
    18    16    17    1
    19    16    15    1
    20    19    14    2
    21    20    21    2
    22    20    19    1
    23    21    26    1
    24    22    21    1
    25    23    22    1
    26    24    23    1
    27    24    25    1
    28    26    27    1
    29    26    13    2
    30    28    40    1
    31    28    55    1
    32    29    59    1
    33    29    28    1
    34    31    30    1
    35    33    32    2
    36    34    32    1
    37    35    55    1
    38    35    39    1
    39    37    57    2
    40    37    50    1
    41    38    37    1
    42    39    33    1
    43    41    44    1
    44    42    47    2
    45    43    38    1
    46    43    56    1
    47    46    48    1
    48    46    41    1
    49    47    54    1
    50    48    52    1
    51    49    32    1
    52    49    46    1
    53    50    51    1
    54    51    54    2
    55    52    45    1
    56    52    44    2
    57    53    49    1
    58    53    58    1
    59    55    36    1
    60    56    31    1
    61    56    30    1
    62    57    42    1
    63    58    41    1
    64    58    57    1
    65    59    13    1
    66    59    35    1
