@<TRIPOS>MOLECULE
No_2257-gen_results/8p0m/2024-11-27-11-27-31/
 16 17 0 0 0
SMALL
GASTEIGER

@<TRIPOS>ATOM
      1 O         -28.1229   -1.3353   28.4874 O.2     1  UNL1       -0.2726
      2 C         -27.4806   -0.4044   28.7094 C.2     1  UNL1        0.2500
      3 C         -27.1904    0.2460   29.5268 C.3     1  UNL1        0.1135
      4 N         -26.8157    0.1371   27.4262 N.am    1  UNL1       -0.1789
      5 C         -26.5177    0.6156   30.2044 C.ar    1  UNL1       -0.0130
      6 C         -26.5454    1.1964   31.6311 C.ar    1  UNL1       -0.0038
      7 C         -26.4943    1.0918   27.0964 C.ar    1  UNL1        0.0734
      8 C         -25.4597    1.6725   32.3752 C.ar    1  UNL1       -0.0003
      9 C         -24.2486    1.6897   31.6726 C.ar    1  UNL1       -0.0000
     10 C         -24.0288    1.2328   30.4440 C.ar    1  UNL1       -0.0003
     11 C         -25.0618    0.7132   29.7767 C.ar    1  UNL1       -0.0038
     12 C         -27.3835    1.7897   26.3151 C.ar    1  UNL1        0.0166
     13 C         -27.1882    3.1333   26.1672 C.ar    1  UNL1        0.0013
     14 C         -25.9686    3.8136   26.5155 C.ar    1  UNL1        0.0001
     15 C         -24.9970    3.0344   27.2103 C.ar    1  UNL1        0.0013
     16 C         -25.2689    1.8338   27.5614 C.ar    1  UNL1        0.0166
@<TRIPOS>BOND
     1     1     2    2
     2     2     3    1
     3     2     4   am
     4     3     5    1
     5     4     7    1
     6     5     6   ar
     7     6     8   ar
     8     8     9   ar
     9     9    10   ar
    10    10    11   ar
    11    11     5   ar
    12     7    12   ar
    13    12    13   ar
    14    13    14   ar
    15    14    15   ar
    16    15    16   ar
    17    16     7   ar
