@<TRIPOS>MOLECULE
outputs/IAG933/test6/raw/output_226_IAG933_linker_design_.xyz
 41 45 0 0 0
SMALL
GASTEIGER

@<TRIPOS>ATOM
      1 C         -24.8550   -1.0120   30.1430 C.3     1  UNL1        0.1186
      2 C         -24.9730   -2.5050   29.7880 C.2     1  UNL1       -0.0025
      3 C         -23.9060   -3.1730   29.1460 C.2     1  UNL1       -0.0026
      4 C         -23.9890   -4.5490   28.8530 C.2     1  UNL1       -0.0003
      5 C         -25.1370   -5.2800   29.2050 C.2     1  UNL1       -0.0000
      6 C         -26.2320   -4.6110   29.7840 C.2     1  UNL1       -0.0003
      7 C         -26.1550   -3.2320   30.0650 C.2     1  UNL1       -0.0026
      8 C         -25.3870   -0.6790   31.5710 C.3     1  UNL1        0.0956
      9 C         -25.1890    0.7730   32.0280 C.3     1  UNL1        0.0209
     10 C         -25.3360    0.6840   33.5440 C.3     1  UNL1        0.0203
     11 C         -24.8290   -0.7150   33.9050 C.3     1  UNL1        0.0888
     12 N         -24.7580   -1.4810   32.6460 N.3     1  UNL1       -0.2174
     13 C         -25.6880    1.6140   26.4610 C.2     1  UNL1        0.0955
     14 C         -26.2500    2.9200   26.3950 C.2     1  UNL1        0.0905
     15 C         -25.6420    4.0930   27.1230 C.2     1  UNL1        0.2677
     16 N         -25.6140    5.2520   26.4490 N.am    1  UNL1       -0.1997
     17 C         -25.0260    6.4790   26.9630 C.3     1  UNL1        0.1388
     18 O         -25.1430    3.9660   28.2430 O.2     1  UNL1       -0.2683
     19 C         -27.4380    3.0910   25.6450 C.2     1  UNL1        0.1080
     20 N         -28.0750    2.0890   25.0030 N.2     1  UNL1       -0.2080
     21 C         -27.5430    0.8490   25.0790 C.2     1  UNL1        0.2546
     22 O         -28.1930   -0.2080   24.4770 O.2     1  UNL1       -0.4558
     23 C         -29.4600    0.0050   23.8660 C.3     1  UNL1        0.2426
     24 C         -30.0650   -1.3770   23.5730 C.3     1  UNL1        0.2292
     25 O         -30.7290   -1.8780   24.7210 O.3     1  UNL1       -0.2162
     26 C         -26.3540    0.5760   25.7770 C.2     1  UNL1        0.2069
     27 F         -25.8600   -0.6810   25.7950 F       1  UNL1       -0.1979
     28 C         -22.0625    1.3633   27.5820 C.ar    1  UNL1        0.2106
     29 O         -21.2052    2.1039   26.8669 O.2     1  UNL1       -0.2849
     30 C         -20.5153    0.0628   28.7064 C.3     1  UNL1        0.1144
     31 O         -26.1631   -0.2723   28.4405 O.2     1  UNL1       -0.5256
     32 O         -23.9867    2.2574   24.9678 O.2     1  UNL1       -0.2390
     33 O         -21.8363    2.5235   25.6719 O.2     1  UNL1       -0.2424
     34 C         -23.4628    1.4964   26.9562 C.ar    1  UNL1        0.1740
     35 C         -23.1608    2.1019   25.7423 C.ar    1  UNL1        0.4042
     36 N         -24.6785    1.1248   27.2388 N.am    1  UNL1       -0.2372
     37 C         -25.0269    0.3574   28.1870 C.2     1  UNL1        0.1577
     38 C         -21.7054    0.8038   28.7748 C.3     1  UNL1        0.1531
     39 O         -23.8511    1.3790   29.8290 O.3     1  UNL1       -0.4184
     40 N         -21.8310   -0.4781   29.3567 N.3     1  UNL1       -0.2082
     41 N         -24.4111    0.1769   29.4249 N.am    1  UNL1       -0.2647
@<TRIPOS>BOND
     1     1    41    1
     2     2     7    1
     3     2     1    1
     4     3     2    2
     5     4     3    1
     6     4     5    2
     7     5     6    1
     8     6     7    2
     9     8     1    1
    10     8     9    1
    11     8    12    1
    12     9    10    1
    13    10    11    1
    14    12    11    1
    15    13    36    1
    16    14    13    1
    17    14    15    1
    18    15    18    2
    19    16    17    1
    20    16    15    1
    21    19    14    2
    22    20    21    2
    23    20    19    1
    24    21    26    1
    25    22    21    1
    26    23    22    1
    27    24    23    1
    28    24    25    1
    29    26    27    1
    30    26    13    2
    31    29    28   ar
    32    30    38    1
    33    30    40    1
    34    32    35    2
    35    33    35   ar
    36    33    29   ar
    37    34    36    1
    38    34    28   ar
    39    35    34   ar
    40    36    37   am
    41    37    31    2
    42    37    41   am
    43    38    28    1
    44    38    40    1
    45    41    39    1
