@<TRIPOS>MOLECULE
outputs/IAG933/test6/raw/output_2262_IAG933_linker_design_.xyz
 44 48 0 0 0
SMALL
GASTEIGER

@<TRIPOS>ATOM
      1 C         -24.8550   -1.0120   30.1430 C.3     1  UNL1        0.0698
      2 C         -24.9730   -2.5050   29.7880 C.2     1  UNL1       -0.0184
      3 C         -23.9060   -3.1730   29.1460 C.2     1  UNL1       -0.0041
      4 C         -23.9890   -4.5490   28.8530 C.2     1  UNL1       -0.0003
      5 C         -25.1370   -5.2800   29.2050 C.2     1  UNL1       -0.0000
      6 C         -26.2320   -4.6110   29.7840 C.2     1  UNL1       -0.0003
      7 C         -26.1550   -3.2320   30.0650 C.2     1  UNL1       -0.0041
      8 C         -25.3870   -0.6790   31.5710 C.3     1  UNL1        0.0795
      9 C         -25.1890    0.7730   32.0280 C.3     1  UNL1        0.0193
     10 C         -25.3360    0.6840   33.5440 C.3     1  UNL1        0.0202
     11 C         -24.8290   -0.7150   33.9050 C.3     1  UNL1        0.0887
     12 N         -24.7580   -1.4810   32.6460 N.3     1  UNL1       -0.2190
     13 C         -25.6880    1.6140   26.4610 C.2     1  UNL1        0.0352
     14 C         -26.2500    2.9200   26.3950 C.2     1  UNL1        0.0763
     15 C         -25.6420    4.0930   27.1230 C.2     1  UNL1        0.2664
     16 N         -25.6140    5.2520   26.4490 N.am    1  UNL1       -0.1997
     17 C         -25.0260    6.4790   26.9630 C.3     1  UNL1        0.1388
     18 O         -25.1430    3.9660   28.2430 O.2     1  UNL1       -0.2683
     19 C         -27.4380    3.0910   25.6450 C.2     1  UNL1        0.1067
     20 N         -28.0750    2.0890   25.0030 N.2     1  UNL1       -0.2081
     21 C         -27.5430    0.8490   25.0790 C.2     1  UNL1        0.2533
     22 O         -28.1930   -0.2080   24.4770 O.2     1  UNL1       -0.4558
     23 C         -29.4600    0.0050   23.8660 C.3     1  UNL1        0.2426
     24 C         -30.0650   -1.3770   23.5730 C.3     1  UNL1        0.2292
     25 O         -30.7290   -1.8780   24.7210 O.3     1  UNL1       -0.2162
     26 C         -26.3540    0.5760   25.7770 C.2     1  UNL1        0.1928
     27 F         -25.8600   -0.6810   25.7950 F       1  UNL1       -0.1992
     28 C         -28.8518    3.5727   30.0205 C.2     1  UNL1       -0.0002
     29 C         -22.7785    0.5997   28.5000 C.2     1  UNL1        0.2050
     30 O         -22.1365   -0.1692   29.1953 O.2     1  UNL1       -0.2887
     31 C         -28.6287    1.3566   28.9349 C.2     1  UNL1        0.0073
     32 C         -24.2679    0.6327   28.2376 C.2     1  UNL1        0.0398
     33 C         -22.1547    1.4872   27.4116 C.3     1  UNL1        0.2404
     34 C         -28.2321    2.2883   29.9427 C.2     1  UNL1       -0.0019
     35 C         -25.2097    0.0844   29.1582 C.3     1  UNL1        0.1457
     36 C         -30.3624    2.9177   28.2298 C.2     1  UNL1       -0.0002
     37 C         -29.8948    3.8766   29.1359 C.2     1  UNL1       -0.0000
     38 CL        -23.1793    2.8196   25.1587 Cl      1  UNL1       -0.1068
     39 O         -26.4876    0.5314   29.0981 O.3     1  UNL1       -0.3466
     40 C         -29.7284    1.6564   28.1303 C.2     1  UNL1       -0.0019
     41 F         -20.8430    1.4049   27.2283 F       1  UNL1       -0.2272
     42 C         -23.3005    1.8802   26.6082 C.3     1  UNL1        0.1420
     43 C         -24.4735    1.3380   27.1115 C.2     1  UNL1       -0.0007
     44 C         -27.7766    0.1232   28.6047 C.3     1  UNL1        0.1689
@<TRIPOS>BOND
     1     1    35    1
     2     2     7    1
     3     2     1    1
     4     3     2    2
     5     4     3    1
     6     4     5    2
     7     5     6    1
     8     6     7    2
     9     8     1    1
    10     8     9    1
    11     8    12    1
    12     9    10    1
    13    10    11    1
    14    12    11    1
    15    13    43    1
    16    14    13    1
    17    14    15    1
    18    15    18    2
    19    16    17    1
    20    16    15    1
    21    19    14    2
    22    20    21    2
    23    20    19    1
    24    21    26    1
    25    22    21    1
    26    23    22    1
    27    24    23    1
    28    24    25    1
    29    26    27    1
    30    26    13    2
    31    29    30    2
    32    31    34    2
    33    32    29    1
    34    32    35    1
    35    33    41    1
    36    33    29    1
    37    34    28    1
    38    35    39    1
    39    36    37    1
    40    37    28    2
    41    40    36    2
    42    40    31    1
    43    42    38    1
    44    42    43    1
    45    42    33    1
    46    43    32    2
    47    44    31    1
    48    44    39    1
