@<TRIPOS>MOLECULE
No_2263-gen_results/8p0m/2024-11-27-11-27-31/
 35 39 0 0 0
SMALL
GASTEIGER

@<TRIPOS>ATOM
      1 C         -28.0162   -0.8135   28.8779 C.ar    1  UNL1        0.0369
      2 C         -27.0636   -0.1189   28.6079 C.ar    1  UNL1        0.0031
      3 C         -25.7647   -0.3897   29.0360 C.ar    1  UNL1        0.0002
      4 C         -25.5296   -1.5302   29.9014 C.ar    1  UNL1        0.0031
      5 C         -26.6888   -2.2893   30.1810 C.ar    1  UNL1        0.0369
      6 C         -27.7631   -1.9625   29.7387 C.ar    1  UNL1        0.1392
      7 O         -28.8805   -2.7547   30.1120 O.3     1  UNL1       -0.4674
      8 C         -24.5366    0.4322   28.7398 C.ar    1  UNL1        0.0000
      9 C         -24.4900    1.2803   27.7420 C.ar    1  UNL1        0.0000
     10 C         -23.3009    1.9048   27.3667 C.ar    1  UNL1        0.0000
     11 C         -22.0737    1.6304   28.0010 C.ar    1  UNL1        0.0000
     12 C         -23.2750    0.0072   29.3237 C.ar    1  UNL1        0.0000
     13 C         -22.0726    0.6791   28.9659 C.ar    1  UNL1        0.0000
     14 C         -29.9936   -2.2491   30.5775 C.3     1  UNL1        0.2685
     15 C         -31.0386   -2.9566   30.2374 C.2     1  UNL1        0.2684
     16 O         -31.9064   -2.5201   29.5760 O.2     1  UNL1       -0.2709
     17 N         -31.2040   -4.2997   30.7010 N.am    1  UNL1       -0.2782
     18 C         -32.2153   -5.1933   30.2323 C.3     1  UNL1        0.0934
     19 C         -31.9577   -6.4980   30.4781 C.3     1  UNL1        0.0216
     20 C         -30.9060   -6.8440   31.2697 C.3     1  UNL1        0.0035
     21 C         -29.8712   -5.9897   31.6753 C.3     1  UNL1        0.0199
     22 C         -30.0308   -4.7469   31.3634 C.3     1  UNL1        0.0755
     23 C         -29.9218   -1.9827   32.1126 C.3     1  UNL1        0.1718
     24 C         -29.4165   -0.6910   32.3668 C.3     1  UNL1        0.0346
     25 C         -30.0005   -0.1014   33.3833 C.3     1  UNL1        0.0030
     26 C         -30.5792   -0.7888   34.3355 C.3     1  UNL1        0.0045
     27 C         -31.1813   -2.0477   34.0358 C.3     1  UNL1        0.0246
     28 C         -30.6536   -2.7014   32.9566 C.3     1  UNL1        0.0377
     29 C         -30.7378   -4.1912   32.8032 C.3     1  UNL1        0.0227
     30 O         -28.4797   -2.6172   32.4215 O.3     1  UNL1       -0.2214
     31 C         -32.1009   -2.7427   34.9703 C.2     1  UNL1       -0.0264
     32 C         -33.3568   -2.5756   34.7061 C.2     1  UNL1       -0.0049
     33 C         -33.8558   -1.6773   33.7505 C.2     1  UNL1       -0.0049
     34 C         -34.7234   -1.5266   33.2223 C.2     1  UNL1       -0.0258
     35 C         -35.0691   -0.5012   32.1732 C.3     1  UNL1        0.0307
@<TRIPOS>BOND
     1     6     7    1
     2     3     8    1
     3     7    14    1
     4    14    15    1
     5    15    16    2
     6    15    17   am
     7    17    18    1
     8    19    20    1
     9    17    22    1
    10    21    22    1
    11    14    23    1
    12    23    24    1
    13    24    25    1
    14    26    27    1
    15    23    28    1
    16    27    28    1
    17    22    29    1
    18    28    29    1
    19    23    30    1
    20    27    31    1
    21    31    32    2
    22    32    33    1
    23    33    34    2
    24    34    35    1
    25    18    19    1
    26    20    21    1
    27    25    26    1
    28     1     2   ar
    29     2     3   ar
    30     3     4   ar
    31     4     5   ar
    32     5     6   ar
    33     6     1   ar
    34     8     9   ar
    35     9    10   ar
    36    10    11   ar
    37    11    13   ar
    38    13    12   ar
    39    12     8   ar
