@<TRIPOS>MOLECULE
No_2266-gen_results/8p0m/2024-11-27-11-27-31/
 35 39 0 0 0
SMALL
GASTEIGER

@<TRIPOS>ATOM
      1 CL        -28.1493   -0.8198   28.9079 Cl      1  UNL1       -0.0799
      2 C         -27.8339    0.4961   29.0598 C.ar    1  UNL1        0.0850
      3 C         -27.6022    1.0128   30.2974 C.ar    1  UNL1        0.0138
      4 C         -27.1699    2.3964   30.5338 C.ar    1  UNL1        0.0056
      5 C         -26.9133    3.1827   29.3680 C.ar    1  UNL1        0.0573
      6 C         -27.0551    2.6221   28.1384 C.ar    1  UNL1        0.0351
      7 C         -27.4622    1.3345   27.9669 C.ar    1  UNL1        0.1507
      8 F         -27.6027    0.8776   26.7626 F       1  UNL1       -0.2033
      9 C         -26.4260    4.5705   29.5775 C.2     1  UNL1        0.2654
     10 O         -25.7663    5.1165   28.7637 O.2     1  UNL1       -0.2683
     11 N         -26.6677    5.2159   30.7687 N.am    1  UNL1       -0.1944
     12 C         -26.3517    6.4969   30.9893 C.3     1  UNL1        0.1400
     13 C         -25.2304    6.6850   31.6977 C.ar    1  UNL1        0.0019
     14 C         -24.3119    7.7820   31.4799 C.ar    1  UNL1        0.0056
     15 C         -23.1139    7.9390   32.1929 C.ar    1  UNL1        0.0922
     16 C         -22.7743    6.9523   33.1894 C.ar    1  UNL1        0.1517
     17 C         -23.6098    5.8694   33.3817 C.ar    1  UNL1        0.0375
     18 C         -24.7530    5.7591   32.6659 C.ar    1  UNL1        0.0008
     19 O         -21.6562    7.0400   33.9099 O.2     1  UNL1       -0.4359
     20 C         -27.4827    7.2555   31.6246 C.ar    1  UNL1        0.0016
     21 C         -27.6421    8.5304   31.2535 C.ar    1  UNL1       -0.0023
     22 C         -28.7313    9.3095   31.7527 C.ar    1  UNL1       -0.0003
     23 C         -29.6978    8.6483   32.5226 C.ar    1  UNL1       -0.0000
     24 C         -29.5695    7.3180   32.8190 C.ar    1  UNL1       -0.0003
     25 C         -28.4616    6.5786   32.3936 C.ar    1  UNL1       -0.0023
     26 C         -20.8463    8.1809   33.6264 C.ar    1  UNL1        0.2321
     27 C         -19.6356    8.1982   34.2819 C.ar    1  UNL1        0.0537
     28 C         -19.6554    8.0603   35.5786 C.ar    1  UNL1        0.0047
     29 C         -18.4169    8.0866   36.3740 C.ar    1  UNL1        0.0002
     30 C         -17.2233    8.3635   35.6644 C.ar    1  UNL1        0.0000
     31 C         -17.2930    8.6907   34.3277 C.ar    1  UNL1        0.0002
     32 C         -18.5018    8.6307   33.6622 C.ar    1  UNL1        0.0047
     33 N         -21.0962    9.0210   32.6923 N.ar    1  UNL1       -0.1725
     34 C         -22.2156    9.0101   31.9994 C.ar    1  UNL1        0.2846
     35 O         -22.4364    9.8744   31.1374 O.2     1  UNL1       -0.2650
@<TRIPOS>BOND
     1     1     2    1
     2     7     8    1
     3     5     9    1
     4     9    10    2
     5     9    11   am
     6    11    12    1
     7    12    13    1
     8    16    19   ar
     9    12    20    1
    10    19    26   ar
    11    26    27    1
    12    26    33   ar
    13    15    34   ar
    14    33    34   ar
    15    34    35    2
    16     2     3   ar
    17     3     4   ar
    18     4     5   ar
    19     5     6   ar
    20     6     7   ar
    21     7     2   ar
    22    13    14   ar
    23    14    15   ar
    24    15    16   ar
    25    16    17   ar
    26    17    18   ar
    27    18    13   ar
    28    20    21   ar
    29    21    22   ar
    30    22    23   ar
    31    23    24   ar
    32    24    25   ar
    33    25    20   ar
    34    27    28   ar
    35    28    29   ar
    36    29    30   ar
    37    30    31   ar
    38    31    32   ar
    39    32    27   ar
