@<TRIPOS>MOLECULE
outputs/IAG933/test6/raw/output_2268_IAG933_linker_design_.xyz
 45 49 0 0 0
SMALL
GASTEIGER

@<TRIPOS>ATOM
      1 C         -24.8550   -1.0120   30.1430 C.3     1  UNL1        0.0590
      2 C         -24.9730   -2.5050   29.7880 C.2     1  UNL1       -0.0195
      3 C         -23.9060   -3.1730   29.1460 C.2     1  UNL1       -0.0042
      4 C         -23.9890   -4.5490   28.8530 C.2     1  UNL1       -0.0003
      5 C         -25.1370   -5.2800   29.2050 C.2     1  UNL1       -0.0000
      6 C         -26.2320   -4.6110   29.7840 C.2     1  UNL1       -0.0003
      7 C         -26.1550   -3.2320   30.0650 C.2     1  UNL1       -0.0042
      8 C         -25.3870   -0.6790   31.5710 C.3     1  UNL1        0.0785
      9 C         -25.1890    0.7730   32.0280 C.3     1  UNL1        0.0192
     10 C         -25.3360    0.6840   33.5440 C.3     1  UNL1        0.0202
     11 C         -24.8290   -0.7150   33.9050 C.3     1  UNL1        0.0887
     12 N         -24.7580   -1.4810   32.6460 N.3     1  UNL1       -0.2191
     13 C         -25.6880    1.6140   26.4610 C.2     1  UNL1        0.0377
     14 C         -26.2500    2.9200   26.3950 C.2     1  UNL1        0.0763
     15 C         -25.6420    4.0930   27.1230 C.2     1  UNL1        0.2664
     16 N         -25.6140    5.2520   26.4490 N.am    1  UNL1       -0.1997
     17 C         -25.0260    6.4790   26.9630 C.3     1  UNL1        0.1388
     18 O         -25.1430    3.9660   28.2430 O.2     1  UNL1       -0.2683
     19 C         -27.4380    3.0910   25.6450 C.2     1  UNL1        0.1067
     20 N         -28.0750    2.0890   25.0030 N.2     1  UNL1       -0.2081
     21 C         -27.5430    0.8490   25.0790 C.2     1  UNL1        0.2533
     22 O         -28.1930   -0.2080   24.4770 O.2     1  UNL1       -0.4558
     23 C         -29.4600    0.0050   23.8660 C.3     1  UNL1        0.2426
     24 C         -30.0650   -1.3770   23.5730 C.3     1  UNL1        0.2292
     25 O         -30.7290   -1.8780   24.7210 O.3     1  UNL1       -0.2162
     26 C         -26.3540    0.5760   25.7770 C.2     1  UNL1        0.1929
     27 F         -25.8600   -0.6810   25.7950 F       1  UNL1       -0.1992
     28 C         -23.2048    0.4313   28.8297 C.2     1  UNL1        0.1027
     29 C         -28.8514    2.7065   28.9225 C.2     1  UNL1        0.0762
     30 C         -24.6598    0.4947   28.4149 C.3     1  UNL1        0.0875
     31 C         -22.3814    1.0335   27.7201 C.2     1  UNL1        0.1913
     32 F         -21.0604    1.1142   27.6893 F       1  UNL1       -0.1997
     33 C         -28.2620    3.8812   28.4026 C.2     1  UNL1        0.0071
     34 O         -30.3126    4.2547   30.0323 O.2     1  UNL1       -0.4674
     35 C         -28.2215    1.1420   28.9124 C.2     1  UNL1        0.2643
     36 O         -29.0268    0.3407   28.5493 O.2     1  UNL1       -0.2686
     37 O         -22.9208    2.1333   25.7599 O.2     1  UNL1       -0.2845
     38 C         -24.5984    1.1516   27.3028 C.2     1  UNL1        0.0285
     39 C         -28.4608    5.1730   28.8838 C.2     1  UNL1        0.0400
     40 C         -25.8317   -0.1815   29.1847 C.3     1  UNL1        0.1105
     41 C         -23.2601    1.4717   26.8439 C.2     1  UNL1        0.2204
     42 N         -22.5173   -0.0664   30.0303 N.pl3   1  UNL1       -0.1299
     43 C         -30.0229    2.9644   29.6731 C.3     1  UNL1        0.2367
     44 C         -29.5028    5.3838   29.8073 C.2     1  UNL1        0.1727
     45 N         -26.9153    0.8522   29.3938 N.am    1  UNL1       -0.2025
@<TRIPOS>BOND
     1     1    40    1
     2     2     7    1
     3     2     1    1
     4     3     2    2
     5     4     3    1
     6     4     5    2
     7     5     6    1
     8     6     7    2
     9     8     1    1
    10     8     9    1
    11     8    12    1
    12     9    10    1
    13    10    11    1
    14    12    11    1
    15    13    38    1
    16    14    13    1
    17    14    15    1
    18    15    18    2
    19    16    17    1
    20    16    15    1
    21    19    14    2
    22    20    21    2
    23    20    19    1
    24    21    26    1
    25    22    21    1
    26    23    22    1
    27    24    23    1
    28    24    25    1
    29    26    27    1
    30    26    13    2
    31    28    42    1
    32    29    43    1
    33    30    28    1
    34    30    40    1
    35    31    28    2
    36    32    31    1
    37    33    39    1
    38    33    29    2
    39    35    29    1
    40    35    45    1
    41    36    35    2
    42    37    41    1
    43    38    30    1
    44    39    44    2
    45    40    45    1
    46    41    38    2
    47    41    31    1
    48    43    34    1
    49    44    34    1
