@<TRIPOS>MOLECULE
outputs/IAG933/test6/raw/output_227_IAG933_linker_design_.xyz
 41 45 0 0 0
SMALL
GASTEIGER

@<TRIPOS>ATOM
      1 C         -24.8550   -1.0120   30.1430 C.3     1  UNL1        0.0620
      2 C         -24.9730   -2.5050   29.7880 C.2     1  UNL1       -0.0170
      3 C         -23.9060   -3.1730   29.1460 C.2     1  UNL1       -0.0039
      4 C         -23.9890   -4.5490   28.8530 C.2     1  UNL1       -0.0003
      5 C         -25.1370   -5.2800   29.2050 C.2     1  UNL1       -0.0000
      6 C         -26.2320   -4.6110   29.7840 C.2     1  UNL1       -0.0003
      7 C         -26.1550   -3.2320   30.0650 C.2     1  UNL1       -0.0039
      8 C         -25.3870   -0.6790   31.5710 C.3     1  UNL1        0.0810
      9 C         -25.1890    0.7730   32.0280 C.3     1  UNL1        0.0220
     10 C         -25.3360    0.6840   33.5440 C.3     1  UNL1        0.0203
     11 C         -24.8290   -0.7150   33.9050 C.3     1  UNL1        0.0887
     12 N         -24.7580   -1.4810   32.6460 N.3     1  UNL1       -0.2188
     13 C         -25.6880    1.6140   26.4610 C.2     1  UNL1        0.0940
     14 C         -26.2500    2.9200   26.3950 C.2     1  UNL1        0.0905
     15 C         -25.6420    4.0930   27.1230 C.2     1  UNL1        0.2677
     16 N         -25.6140    5.2520   26.4490 N.am    1  UNL1       -0.1997
     17 C         -25.0260    6.4790   26.9630 C.3     1  UNL1        0.1388
     18 O         -25.1430    3.9660   28.2430 O.2     1  UNL1       -0.2683
     19 C         -27.4380    3.0910   25.6450 C.2     1  UNL1        0.1080
     20 N         -28.0750    2.0890   25.0030 N.2     1  UNL1       -0.2080
     21 C         -27.5430    0.8490   25.0790 C.2     1  UNL1        0.2546
     22 O         -28.1930   -0.2080   24.4770 O.2     1  UNL1       -0.4558
     23 C         -29.4600    0.0050   23.8660 C.3     1  UNL1        0.2426
     24 C         -30.0650   -1.3770   23.5730 C.3     1  UNL1        0.2292
     25 O         -30.7290   -1.8780   24.7210 O.3     1  UNL1       -0.2162
     26 C         -26.3540    0.5760   25.7770 C.2     1  UNL1        0.2069
     27 F         -25.8600   -0.6810   25.7950 F       1  UNL1       -0.1979
     28 C         -25.8693    4.2126   32.8227 C.3     1  UNL1        0.0488
     29 C         -26.2109    5.6273   32.3312 C.3     1  UNL1        0.0229
     30 N         -24.4263    1.3038   27.0288 N.pl3   1  UNL1       -0.2617
     31 C         -25.8561    5.5990   30.8381 C.3     1  UNL1        0.0913
     32 O         -24.1183    3.2839   31.4318 O.3     1  UNL1       -0.2078
     33 C         -26.0626    1.9092   31.4580 C.3     1  UNL1        0.0488
     34 C         -25.5258    3.3589   31.5344 C.3     1  UNL1        0.1858
     35 S         -22.3891    0.6069   28.6666 S.3     1  UNL1       -0.0706
     36 N         -26.0774    4.1572   30.5243 N.3     1  UNL1       -0.1925
     37 C         -23.2017    2.6355   25.2317 C.3     1  UNL1        0.0483
     38 C         -24.0950    0.5615   28.1706 C.2     1  UNL1        0.0817
     39 C         -23.2397    1.8920   26.5238 C.2     1  UNL1        0.0403
     40 C         -22.1272    1.6509   27.3416 C.2     1  UNL1        0.0474
     41 C         -25.1226   -0.2065   28.8649 C.2     1  UNL1        0.0012
@<TRIPOS>BOND
     1     1    41    1
     2     2     7    1
     3     2     1    1
     4     3     2    2
     5     4     3    1
     6     4     5    2
     7     5     6    1
     8     6     7    2
     9     8     1    1
    10     8     9    1
    11     8    12    1
    12     9    33    1
    13     9    10    1
    14    10    11    1
    15    12    11    1
    16    13    30    1
    17    14    13    1
    18    14    15    1
    19    15    18    2
    20    16    17    1
    21    16    15    1
    22    19    14    2
    23    20    21    2
    24    20    19    1
    25    21    26    1
    26    22    21    1
    27    23    22    1
    28    24    23    1
    29    24    25    1
    30    26    27    1
    31    26    13    2
    32    29    28    1
    33    30    38    1
    34    31    29    1
    35    33    34    1
    36    34    32    1
    37    34    28    1
    38    36    31    1
    39    36    34    1
    40    37    39    1
    41    38    35    1
    42    38    41    2
    43    39    30    1
    44    39    40    2
    45    40    35    1
