@<TRIPOS>MOLECULE
outputs/IAG933/test6/raw/output_2271_IAG933_linker_design_.xyz
 45 48 0 0 0
SMALL
GASTEIGER

@<TRIPOS>ATOM
      1 C         -24.8550   -1.0120   30.1430 C.3     1  UNL1        0.0384
      2 C         -24.9730   -2.5050   29.7880 C.2     1  UNL1       -0.0212
      3 C         -23.9060   -3.1730   29.1460 C.2     1  UNL1       -0.0042
      4 C         -23.9890   -4.5490   28.8530 C.2     1  UNL1       -0.0003
      5 C         -25.1370   -5.2800   29.2050 C.2     1  UNL1       -0.0000
      6 C         -26.2320   -4.6110   29.7840 C.2     1  UNL1       -0.0003
      7 C         -26.1550   -3.2320   30.0650 C.2     1  UNL1       -0.0042
      8 C         -25.3870   -0.6790   31.5710 C.3     1  UNL1        0.0768
      9 C         -25.1890    0.7730   32.0280 C.3     1  UNL1        0.0192
     10 C         -25.3360    0.6840   33.5440 C.3     1  UNL1        0.0202
     11 C         -24.8290   -0.7150   33.9050 C.3     1  UNL1        0.0887
     12 N         -24.7580   -1.4810   32.6460 N.3     1  UNL1       -0.2191
     13 C         -25.6880    1.6140   26.4610 C.2     1  UNL1        0.0184
     14 C         -26.2500    2.9200   26.3950 C.2     1  UNL1        0.0727
     15 C         -25.6420    4.0930   27.1230 C.2     1  UNL1        0.2661
     16 N         -25.6140    5.2520   26.4490 N.am    1  UNL1       -0.1997
     17 C         -25.0260    6.4790   26.9630 C.3     1  UNL1        0.1388
     18 O         -25.1430    3.9660   28.2430 O.2     1  UNL1       -0.2683
     19 C         -27.4380    3.0910   25.6450 C.2     1  UNL1        0.1064
     20 N         -28.0750    2.0890   25.0030 N.2     1  UNL1       -0.2081
     21 C         -27.5430    0.8490   25.0790 C.2     1  UNL1        0.2530
     22 O         -28.1930   -0.2080   24.4770 O.2     1  UNL1       -0.4558
     23 C         -29.4600    0.0050   23.8660 C.3     1  UNL1        0.2426
     24 C         -30.0650   -1.3770   23.5730 C.3     1  UNL1        0.2292
     25 O         -30.7290   -1.8780   24.7210 O.3     1  UNL1       -0.2162
     26 C         -26.3540    0.5760   25.7770 C.2     1  UNL1        0.1892
     27 F         -25.8600   -0.6810   25.7950 F       1  UNL1       -0.1996
     28 C         -29.3300    1.0324   29.0649 C.3     1  UNL1        0.2406
     29 O         -28.8784   -1.2893   28.7878 O.co2   1  UNL1       -0.2436
     30 C         -23.1205    0.8878   27.0575 C.3     1  UNL1        0.0857
     31 O         -30.9699   -0.7615   29.1344 O.co2   1  UNL1       -0.2436
     32 C         -29.7345    2.9337   30.9024 C.3     1  UNL1        0.0730
     33 C         -29.7418    2.2242   32.2914 C.3     1  UNL1        0.0188
     34 C         -31.6579    1.8445   29.7529 C.3     1  UNL1        0.0904
     35 C         -23.8588   -0.4375   29.7468 C.3     1  UNL1        0.0075
     36 C         -29.7724   -0.4778   28.9913 C.2     1  UNL1        0.3880
     37 C         -24.5739    1.2157   27.4259 C.3     1  UNL1        0.0599
     38 N         -26.3144    1.5496   29.3141 N.am    1  UNL1       -0.2052
     39 C         -22.7011    0.4022   28.2900 C.3     1  UNL1        0.0184
     40 CL        -21.6939    1.9731   26.9390 Cl      1  UNL1       -0.1146
     41 C         -23.4044    1.0231   29.5644 C.3     1  UNL1        0.0220
     42 N         -30.1673    1.8910   29.9237 N.3     1  UNL1       -0.2561
     43 O         -27.7232    1.1201   30.9119 O.2     1  UNL1       -0.2713
     44 C         -24.8661    1.4139   28.8441 C.3     1  UNL1        0.1006
     45 C         -27.6530    1.2574   29.7595 C.2     1  UNL1        0.2671
@<TRIPOS>BOND
     1     1    35    1
     2     2     7    1
     3     2     1    1
     4     3     2    2
     5     4     3    1
     6     4     5    2
     7     5     6    1
     8     6     7    2
     9     8     1    1
    10     8     9    1
    11     8    12    1
    12     9    10    1
    13    10    11    1
    14    12    11    1
    15    14    13    1
    16    14    15    1
    17    15    18    2
    18    16    17    1
    19    16    15    1
    20    19    14    2
    21    20    21    2
    22    20    19    1
    23    21    26    1
    24    22    21    1
    25    23    22    1
    26    24    23    1
    27    24    25    1
    28    26    27    1
    29    26    13    2
    30    28    36    1
    31    28    45    1
    32    28    42    1
    33    29    36   ar
    34    30    40    1
    35    30    37    1
    36    30    39    1
    37    32    33    1
    38    34    42    1
    39    36    31   ar
    40    37    13    1
    41    37    44    1
    42    38    45    1
    43    39    41    1
    44    41    35    1
    45    42    32    1
    46    44    38    1
    47    44    41    1
    48    45    43    2
