@<TRIPOS>MOLECULE
No_2273-gen_results/8p0m/2024-11-27-11-27-31/
 24 26 0 0 0
SMALL
GASTEIGER

@<TRIPOS>ATOM
      1 C         -28.0162   -0.8135   28.8779 C.ar    1  UNL1        0.0375
      2 C         -27.0636   -0.1190   28.6079 C.ar    1  UNL1        0.0046
      3 C         -25.7647   -0.3897   29.0360 C.ar    1  UNL1        0.0180
      4 C         -25.5296   -1.5302   29.9014 C.ar    1  UNL1        0.0046
      5 C         -26.6888   -2.2893   30.1810 C.ar    1  UNL1        0.0375
      6 C         -27.8727   -1.9508   29.7373 C.ar    1  UNL1        0.1456
      7 O         -28.9304   -2.7298   30.1154 O.3     1  UNL1       -0.4472
      8 C         -24.5394    0.4211   28.7421 C.ar    1  UNL1        0.0858
      9 N         -24.5049    1.2442   27.7743 N.ar    1  UNL1       -0.2111
     10 C         -23.4160    1.8660   27.3248 C.ar    1  UNL1        0.2566
     11 N         -22.2119    1.6117   27.9136 N.ar    1  UNL1       -0.2096
     12 C         -23.2877    0.0911   29.3426 C.ar    1  UNL1        0.0399
     13 C         -22.1048    0.7991   28.9333 C.ar    1  UNL1        0.1035
     14 N         -23.4474    2.7767   26.3463 N.pl3   1  UNL1       -0.0860
     15 C         -28.7884   -4.0020   30.6348 C.2     1  UNL1        0.2167
     16 C         -29.8224   -4.8496   30.2404 C.2     1  UNL1        0.1827
     17 O         -30.9408   -4.3701   30.5882 O.2     1  UNL1       -0.4503
     18 C         -32.0853   -4.8429   30.1063 C.2     1  UNL1        0.1451
     19 C         -31.9146   -5.6801   29.2718 C.2     1  UNL1        0.0376
     20 C         -30.7556   -6.2113   28.6597 C.2     1  UNL1        0.0064
     21 C         -29.6725   -5.3316   28.8839 C.2     1  UNL1        0.0409
     22 C         -33.3401   -4.4009   30.6939 C.2     1  UNL1        0.0329
     23 C         -34.0308   -3.6980   30.4444 C.2     1  UNL1       -0.0227
     24 C         -35.2861   -3.2874   31.1569 C.3     1  UNL1        0.0308
@<TRIPOS>BOND
     1     6     7    1
     2     3     8    1
     3    10    14    1
     4     7    15    1
     5    15    16    2
     6    16    17    1
     7    17    18    1
     8    18    19    2
     9    19    20    1
    10    16    21    1
    11    20    21    2
    12    18    22    1
    13    22    23    2
    14    23    24    1
    15     1     2   ar
    16     2     3   ar
    17     3     4   ar
    18     4     5   ar
    19     5     6   ar
    20     6     1   ar
    21     8     9   ar
    22     9    10   ar
    23    10    11   ar
    24    11    13   ar
    25    13    12   ar
    26    12     8   ar
