@<TRIPOS>MOLECULE
outputs/IAG933/test6/raw/output_2274_IAG933_linker_design_.xyz
 42 44 0 0 0
SMALL
GASTEIGER

@<TRIPOS>ATOM
      1 C         -24.8550   -1.0120   30.1430 C.3     1  UNL1        0.0439
      2 C         -24.9730   -2.5050   29.7880 C.2     1  UNL1       -0.0208
      3 C         -23.9060   -3.1730   29.1460 C.2     1  UNL1       -0.0042
      4 C         -23.9890   -4.5490   28.8530 C.2     1  UNL1       -0.0003
      5 C         -25.1370   -5.2800   29.2050 C.2     1  UNL1       -0.0000
      6 C         -26.2320   -4.6110   29.7840 C.2     1  UNL1       -0.0003
      7 C         -26.1550   -3.2320   30.0650 C.2     1  UNL1       -0.0042
      8 C         -25.3870   -0.6790   31.5710 C.3     1  UNL1        0.0815
      9 C         -25.1890    0.7730   32.0280 C.3     1  UNL1        0.0689
     10 C         -25.3360    0.6840   33.5440 C.3     1  UNL1        0.0247
     11 C         -24.8290   -0.7150   33.9050 C.3     1  UNL1        0.0889
     12 N         -24.7580   -1.4810   32.6460 N.3     1  UNL1       -0.2190
     13 C         -25.6880    1.6140   26.4610 C.2     1  UNL1        0.0215
     14 C         -26.2500    2.9200   26.3950 C.2     1  UNL1        0.0729
     15 C         -25.6420    4.0930   27.1230 C.2     1  UNL1        0.2661
     16 N         -25.6140    5.2520   26.4490 N.am    1  UNL1       -0.1997
     17 C         -25.0260    6.4790   26.9630 C.3     1  UNL1        0.1388
     18 O         -25.1430    3.9660   28.2430 O.2     1  UNL1       -0.2683
     19 C         -27.4380    3.0910   25.6450 C.2     1  UNL1        0.1064
     20 N         -28.0750    2.0890   25.0030 N.2     1  UNL1       -0.2081
     21 C         -27.5430    0.8490   25.0790 C.2     1  UNL1        0.2530
     22 O         -28.1930   -0.2080   24.4770 O.2     1  UNL1       -0.4558
     23 C         -29.4600    0.0050   23.8660 C.3     1  UNL1        0.2426
     24 C         -30.0650   -1.3770   23.5730 C.3     1  UNL1        0.2292
     25 O         -30.7290   -1.8780   24.7210 O.3     1  UNL1       -0.2162
     26 C         -26.3540    0.5760   25.7770 C.2     1  UNL1        0.1895
     27 F         -25.8600   -0.6810   25.7950 F       1  UNL1       -0.1996
     28 C         -21.3955    1.4903   27.8548 C.2     1  UNL1        0.0590
     29 C         -23.0624    0.0054   28.7303 C.3     1  UNL1        0.0467
     30 C         -24.3741    1.2957   27.0018 C.3     1  UNL1        0.0699
     31 C         -24.3649    0.8353   28.3959 C.2     1  UNL1        0.0389
     32 N         -26.6747    3.3846   32.7401 N.3     1  UNL1       -0.0429
     33 C         -25.5785    4.0113   32.1027 C.3     1  UNL1        0.4156
     34 O         -24.9944    3.0159   31.5364 O.3     1  UNL1       -0.2757
     35 O         -25.1227    4.8207   33.1980 O.3     1  UNL1       -0.2935
     36 C         -21.4642    1.8717   26.7009 C.1     1  UNL1        0.1293
     37 N         -25.4315    1.6151   29.3636 N.2     1  UNL1       -0.2513
     38 O         -25.8048    4.8059   31.0276 O.3     1  UNL1       -0.1457
     39 O         -21.6180    2.1551   25.6080 O.2     1  UNL1       -0.2314
     40 C         -24.1807    5.9610   33.0685 C.3     1  UNL1        0.1808
     41 C         -22.1991    0.5934   28.8331 C.3     1  UNL1        0.0437
     42 C         -25.6751    1.8090   31.1232 C.3     1  UNL1        0.2255
@<TRIPOS>BOND
     1     2     7    1
     2     2     1    1
     3     3     2    2
     4     4     3    1
     5     4     5    2
     6     5     6    1
     7     6     7    2
     8     8     1    1
     9     8     9    1
    10     8    12    1
    11     9    42    1
    12     9    10    1
    13    10    11    1
    14    12    11    1
    15    13    30    1
    16    14    13    1
    17    14    15    1
    18    15    18    2
    19    16    17    1
    20    16    15    1
    21    19    14    2
    22    20    21    2
    23    20    19    1
    24    21    26    1
    25    22    21    1
    26    23    22    1
    27    24    23    1
    28    24    25    1
    29    26    27    1
    30    26    13    2
    31    28    41    1
    32    29    41    1
    33    30    31    1
    34    31    29    1
    35    31    37    2
    36    33    38    1
    37    33    32    1
    38    33    35    1
    39    34    33    1
    40    36    28    2
    41    39    36    2
    42    40    35    1
    43    42    37    1
    44    42    34    1
