@<TRIPOS>MOLECULE
outputs/IAG933/test6/raw/output_2276_IAG933_linker_design_.xyz
 43 46 0 0 0
SMALL
GASTEIGER

@<TRIPOS>ATOM
      1 C         -24.8550   -1.0120   30.1430 C.3     1  UNL1        0.0625
      2 C         -24.9730   -2.5050   29.7880 C.2     1  UNL1       -0.0191
      3 C         -23.9060   -3.1730   29.1460 C.2     1  UNL1       -0.0042
      4 C         -23.9890   -4.5490   28.8530 C.2     1  UNL1       -0.0003
      5 C         -25.1370   -5.2800   29.2050 C.2     1  UNL1       -0.0000
      6 C         -26.2320   -4.6110   29.7840 C.2     1  UNL1       -0.0003
      7 C         -26.1550   -3.2320   30.0650 C.2     1  UNL1       -0.0042
      8 C         -25.3870   -0.6790   31.5710 C.3     1  UNL1        0.0788
      9 C         -25.1890    0.7730   32.0280 C.3     1  UNL1        0.0193
     10 C         -25.3360    0.6840   33.5440 C.3     1  UNL1        0.0202
     11 C         -24.8290   -0.7150   33.9050 C.3     1  UNL1        0.0887
     12 N         -24.7580   -1.4810   32.6460 N.3     1  UNL1       -0.2191
     13 C         -25.6880    1.6140   26.4610 C.2     1  UNL1        0.0400
     14 C         -26.2500    2.9200   26.3950 C.2     1  UNL1        0.0766
     15 C         -25.6420    4.0930   27.1230 C.2     1  UNL1        0.2664
     16 N         -25.6140    5.2520   26.4490 N.am    1  UNL1       -0.1997
     17 C         -25.0260    6.4790   26.9630 C.3     1  UNL1        0.1388
     18 O         -25.1430    3.9660   28.2430 O.2     1  UNL1       -0.2683
     19 C         -27.4380    3.0910   25.6450 C.2     1  UNL1        0.1067
     20 N         -28.0750    2.0890   25.0030 N.2     1  UNL1       -0.2081
     21 C         -27.5430    0.8490   25.0790 C.2     1  UNL1        0.2533
     22 O         -28.1930   -0.2080   24.4770 O.2     1  UNL1       -0.4558
     23 C         -29.4600    0.0050   23.8660 C.3     1  UNL1        0.2426
     24 C         -30.0650   -1.3770   23.5730 C.3     1  UNL1        0.2292
     25 O         -30.7290   -1.8780   24.7210 O.3     1  UNL1       -0.2162
     26 C         -26.3540    0.5760   25.7770 C.2     1  UNL1        0.1931
     27 F         -25.8600   -0.6810   25.7950 F       1  UNL1       -0.1992
     28 C         -24.1170    0.7127   28.3546 C.2     1  UNL1        0.0168
     29 C         -24.3087    1.4078   27.0597 C.2     1  UNL1        0.0289
     30 C         -21.8936    1.8032   26.8808 C.2     1  UNL1        0.0310
     31 C         -22.7341    0.5972   28.8442 C.2     1  UNL1        0.0869
     32 C         -23.1696    1.9353   26.3997 C.2     1  UNL1        0.1400
     33 O         -28.0219   -1.1950   29.3017 O.2     1  UNL1       -0.2706
     34 C         -28.7772    0.7144   28.0058 C.3     1  UNL1        0.2290
     35 C         -29.3228    1.7336   28.9874 C.3     1  UNL1        0.0425
     36 N         -22.3753   -0.0829   30.0376 N.pl3   1  UNL1       -0.1283
     37 C         -25.1979   -0.0071   29.0603 C.3     1  UNL1        0.1242
     38 C         -21.6858    1.1196   28.0600 C.2     1  UNL1        0.0201
     39 C         -29.7751    1.4853   30.3510 C.3     1  UNL1        0.0032
     40 F         -23.3114    2.7353   25.3122 F       1  UNL1       -0.2042
     41 O         -29.8541   -0.1480   27.5536 O.3     1  UNL1       -0.2132
     42 C         -27.7337   -0.1510   28.7009 C.2     1  UNL1        0.2721
     43 N         -26.4957    0.3028   28.7254 N.am    1  UNL1       -0.2001
@<TRIPOS>BOND
     1     1    37    1
     2     2     7    1
     3     2     1    1
     4     3     2    2
     5     4     3    1
     6     4     5    2
     7     5     6    1
     8     6     7    2
     9     8     1    1
    10     8     9    1
    11     8    12    1
    12     9    10    1
    13    10    11    1
    14    12    11    1
    15    13    29    1
    16    14    13    1
    17    14    15    1
    18    15    18    2
    19    16    17    1
    20    16    15    1
    21    19    14    2
    22    20    21    2
    23    20    19    1
    24    21    26    1
    25    22    21    1
    26    23    22    1
    27    24    23    1
    28    24    25    1
    29    26    27    1
    30    26    13    2
    31    28    31    1
    32    28    37    1
    33    29    28    2
    34    30    38    1
    35    31    36    1
    36    32    30    2
    37    32    29    1
    38    34    41    1
    39    34    42    1
    40    34    35    1
    41    35    39    1
    42    37    43    1
    43    38    31    2
    44    40    32    1
    45    42    43    1
    46    42    33    2
