@<TRIPOS>MOLECULE
outputs/IAG933/test6/raw/output_2277_IAG933_linker_design_.xyz
 44 47 0 0 0
SMALL
GASTEIGER

@<TRIPOS>ATOM
      1 C         -24.8550   -1.0120   30.1430 C.3     1  UNL1        0.0585
      2 C         -24.9730   -2.5050   29.7880 C.2     1  UNL1       -0.0173
      3 C         -23.9060   -3.1730   29.1460 C.2     1  UNL1       -0.0039
      4 C         -23.9890   -4.5490   28.8530 C.2     1  UNL1       -0.0003
      5 C         -25.1370   -5.2800   29.2050 C.2     1  UNL1       -0.0000
      6 C         -26.2320   -4.6110   29.7840 C.2     1  UNL1       -0.0003
      7 C         -26.1550   -3.2320   30.0650 C.2     1  UNL1       -0.0039
      8 C         -25.3870   -0.6790   31.5710 C.3     1  UNL1        0.0806
      9 C         -25.1890    0.7730   32.0280 C.3     1  UNL1        0.0195
     10 C         -25.3360    0.6840   33.5440 C.3     1  UNL1        0.0203
     11 C         -24.8290   -0.7150   33.9050 C.3     1  UNL1        0.0887
     12 N         -24.7580   -1.4810   32.6460 N.3     1  UNL1       -0.2188
     13 C         -25.6880    1.6140   26.4610 C.2     1  UNL1        0.0513
     14 C         -26.2500    2.9200   26.3950 C.2     1  UNL1        0.0776
     15 C         -25.6420    4.0930   27.1230 C.2     1  UNL1        0.2665
     16 N         -25.6140    5.2520   26.4490 N.am    1  UNL1       -0.1997
     17 C         -25.0260    6.4790   26.9630 C.3     1  UNL1        0.1388
     18 O         -25.1430    3.9660   28.2430 O.2     1  UNL1       -0.2683
     19 C         -27.4380    3.0910   25.6450 C.2     1  UNL1        0.1068
     20 N         -28.0750    2.0890   25.0030 N.2     1  UNL1       -0.2081
     21 C         -27.5430    0.8490   25.0790 C.2     1  UNL1        0.2533
     22 O         -28.1930   -0.2080   24.4770 O.2     1  UNL1       -0.4558
     23 C         -29.4600    0.0050   23.8660 C.3     1  UNL1        0.2426
     24 C         -30.0650   -1.3770   23.5730 C.3     1  UNL1        0.2292
     25 O         -30.7290   -1.8780   24.7210 O.3     1  UNL1       -0.2162
     26 C         -26.3540    0.5760   25.7770 C.2     1  UNL1        0.1941
     27 F         -25.8600   -0.6810   25.7950 F       1  UNL1       -0.1992
     28 C         -29.5682    3.4495   32.1816 C.3     1  UNL1        0.0830
     29 C         -24.7682    1.2910   27.2407 C.2     1  UNL1        0.0777
     30 C         -22.8888    0.1341   29.2120 C.2     1  UNL1        0.0195
     31 O         -28.0001    2.2563   30.3559 O.3     1  UNL1       -0.4334
     32 N         -26.4932    0.8793   28.9002 N.am    1  UNL1       -0.1604
     33 C         -25.2555    0.5927   28.4865 C.3     1  UNL1        0.1548
     34 C         -29.6535    1.9611   32.5935 C.3     1  UNL1        0.1860
     35 C         -24.3696   -0.0975   29.3153 C.2     1  UNL1       -0.0124
     36 C         -22.0188    0.7957   28.2705 C.2     1  UNL1        0.1574
     37 O         -21.4963    2.2450   26.5020 O.2     1  UNL1       -0.2663
     38 N         -23.6321    1.7447   26.7466 N.am    1  UNL1       -0.1764
     39 C         -22.3574    1.6160   27.1293 C.2     1  UNL1        0.2882
     40 O         -28.6535    0.3581   29.2208 O.2     1  UNL1       -0.2245
     41 C         -27.7601    1.1010   29.4762 C.2     1  UNL1        0.4217
     42 N         -20.7770    0.8955   28.6651 N.2     1  UNL1       -0.1432
     43 O         -28.3505    1.5527   32.9206 O.3     1  UNL1       -0.2203
     44 C         -28.9400    3.4182   30.7141 C.3     1  UNL1        0.2129
@<TRIPOS>BOND
     1     1    35    1
     2     2     7    1
     3     2     1    1
     4     3     2    2
     5     4     3    1
     6     4     5    2
     7     5     6    1
     8     6     7    2
     9     8     1    1
    10     8     9    1
    11     8    12    1
    12     9    10    1
    13    10    11    1
    14    12    11    1
    15    13    29    1
    16    14    13    1
    17    14    15    1
    18    15    18    2
    19    16    17    1
    20    16    15    1
    21    19    14    2
    22    20    21    2
    23    20    19    1
    24    21    26    1
    25    22    21    1
    26    23    22    1
    27    24    23    1
    28    24    25    1
    29    26    27    1
    30    26    13    2
    31    28    34    1
    32    29    33    1
    33    30    35    2
    34    31    44    1
    35    32    41    1
    36    33    32    1
    37    33    35    1
    38    34    43    1
    39    36    42    2
    40    36    30    1
    41    37    39    2
    42    38    39    1
    43    38    29    2
    44    39    36    1
    45    40    41    2
    46    41    31    1
    47    44    28    1
