@<TRIPOS>MOLECULE
No_2278-gen_results/8p0m/2024-11-27-11-27-31/
 35 38 0 0 0
SMALL
GASTEIGER

@<TRIPOS>ATOM
      1 O         -28.1229   -1.3353   28.4874 O.2     1  UNL1       -0.2745
      2 C         -28.5208   -0.4363   29.0779 C.2     1  UNL1        0.2295
      3 C         -28.5894    0.5916   28.9464 C.3     1  UNL1        0.0990
      4 N         -28.7866   -0.8872   30.4874 N.am    1  UNL1       -0.2752
      5 C         -27.7841    1.2822   27.9869 C.ar    1  UNL1       -0.0139
      6 C         -26.4272    1.0397   27.9945 C.ar    1  UNL1       -0.0038
      7 C         -25.5484    1.1428   26.9397 C.ar    1  UNL1       -0.0003
      8 C         -25.8503    1.7838   25.7769 C.ar    1  UNL1       -0.0000
      9 C         -27.2137    2.1377   25.6563 C.ar    1  UNL1       -0.0003
     10 C         -28.1100    1.8665   26.6819 C.ar    1  UNL1       -0.0035
     11 C         -28.7066   -2.3114   30.9474 C.3     1  UNL1        0.1201
     12 C         -29.3237    0.0003   31.4831 C.3     1  UNL1        0.0938
     13 C         -29.7425    0.9892   30.9842 C.3     1  UNL1        0.0223
     14 C         -29.1720    1.6660   29.8382 C.3     1  UNL1        0.0152
     15 C         -29.3647   -3.3448   30.3377 C.ar    1  UNL1       -0.0024
     16 C         -30.6021   -3.1967   30.1351 C.ar    1  UNL1       -0.0029
     17 C         -31.3369   -4.3015   29.5041 C.ar    1  UNL1       -0.0039
     18 C         -30.6358   -5.5084   29.2718 C.ar    1  UNL1       -0.0144
     19 C         -29.2882   -5.5835   29.5977 C.ar    1  UNL1       -0.0039
     20 C         -28.6007   -4.5533   30.2151 C.ar    1  UNL1       -0.0029
     21 C         -29.5072    2.2136   26.4627 C.ar    1  UNL1       -0.0003
     22 C         -30.4749    1.3803   26.6997 C.ar    1  UNL1        0.0038
     23 C         -31.7999    1.7146   26.6163 C.ar    1  UNL1        0.0714
     24 C         -32.1085    2.9815   26.2068 C.ar    1  UNL1        0.0039
     25 C         -29.8276    3.5597   26.1212 C.ar    1  UNL1       -0.0000
     26 C         -31.1297    3.9610   25.9439 C.ar    1  UNL1       -0.0001
     27 C         -32.9307    0.8056   26.9043 C.3     1  UNL1        0.4186
     28 F         -33.2353    0.6387   28.0554 F       1  UNL1       -0.1659
     29 F         -34.0178    1.1936   26.1809 F       1  UNL1       -0.1659
     30 F         -32.5332   -0.4012   26.3446 F       1  UNL1       -0.1659
     31 C         -31.2941   -6.6232   28.6668 C.3     1  UNL1        0.0661
     32 C         -31.7496   -6.7005   27.3968 C.2     1  UNL1       -0.0177
     33 C         -32.2136   -7.8484   26.8244 C.2     1  UNL1       -0.0042
     34 C         -31.2171   -7.9648   29.1693 C.2     1  UNL1       -0.0177
     35 C         -31.6842   -9.1242   28.7251 C.2     1  UNL1       -0.0042
@<TRIPOS>BOND
     1     1     2    2
     2     2     3    1
     3     2     4   am
     4     3     5    1
     5     4    11    1
     6     4    12    1
     7     3    14    1
     8    13    14    1
     9    11    15    1
    10    10    21    1
    11    23    27    1
    12    27    28    1
    13    27    29    1
    14    27    30    1
    15    18    31    1
    16    31    32    1
    17    32    33    2
    18    31    34    1
    19    34    35    2
    20    13    12    1
    21    21    22   ar
    22    22    23   ar
    23    23    24   ar
    24    24    26   ar
    25    26    25   ar
    26    25    21   ar
    27     5     6   ar
    28     6     7   ar
    29     7     8   ar
    30     8     9   ar
    31     9    10   ar
    32    10     5   ar
    33    15    16   ar
    34    16    17   ar
    35    17    18   ar
    36    18    19   ar
    37    19    20   ar
    38    20    15   ar
