@<TRIPOS>MOLECULE
No_2279-gen_results/8p0m/2024-11-27-11-27-31/
 18 20 0 0 0
SMALL
GASTEIGER

@<TRIPOS>ATOM
      1 C         -28.0162   -0.8135   28.8779 C.ar    1  UNL1        0.0000
      2 C         -27.0636   -0.1189   28.6079 C.ar    1  UNL1        0.0001
      3 C         -25.7647   -0.3897   29.0360 C.ar    1  UNL1        0.0044
      4 C         -24.5517    0.4058   28.7646 C.ar    1  UNL1        0.0536
      5 C         -23.2300    0.1178   29.2575 C.ar    1  UNL1        0.0045
      6 C         -23.0942   -1.1309   29.8730 C.ar    1  UNL1        0.0001
      7 C         -27.7980   -1.9341   29.8560 C.ar    1  UNL1        0.0000
      8 C         -26.5420   -2.3268   30.2580 C.ar    1  UNL1        0.0000
      9 C         -25.4514   -1.5516   29.9079 C.ar    1  UNL1        0.0001
     10 C         -24.1562   -1.9097   30.2809 C.ar    1  UNL1        0.0000
     11 C         -24.6450    1.6582   27.9464 C.2     1  UNL1        0.2490
     12 N         -24.8818    2.7021   28.4939 N.am    1  UNL1       -0.2761
     13 O         -24.1151    1.6488   26.7653 O.2     1  UNL1       -0.2699
     14 C         -25.4549    3.0134   29.7862 C.3     1  UNL1        0.0937
     15 C         -25.9353    4.2700   30.0858 C.3     1  UNL1        0.0216
     16 C         -25.8233    5.2780   29.0890 C.3     1  UNL1        0.0035
     17 C         -25.2943    5.0151   27.8272 C.3     1  UNL1        0.0216
     18 C         -24.9159    3.7925   27.5676 C.3     1  UNL1        0.0937
@<TRIPOS>BOND
     1     4    11    1
     2    11    12   am
     3    11    13    2
     4    12    14    1
     5    15    16    1
     6    12    18    1
     7    17    18    1
     8    14    15    1
     9    16    17    1
    10     1     2   ar
    11     2     3   ar
    12     9     8   ar
    13     8     7   ar
    14     7     1   ar
    15     3     4   ar
    16     4     5   ar
    17     5     6   ar
    18     6    10   ar
    19    10     9   ar
    20     9     3   ar
