@<TRIPOS>MOLECULE
No_2280-gen_results/8p0m/2024-11-27-11-27-31/
 15 14 0 0 0
SMALL
GASTEIGER

@<TRIPOS>ATOM
      1 P         -27.9505   -0.5786   29.0402 P.3     1  UNL1        0.5249
      2 O         -27.2401    0.0613   28.4283 O.3     1  UNL1       -0.1728
      3 O         -27.2444   -1.9817   29.3768 O.3     1  UNL1       -0.2681
      4 O         -28.1843   -0.0275   30.5202 O.3     1  UNL1       -0.0817
      5 O         -29.3836   -0.9386   28.6565 O.2     1  UNL1       -0.2232
      6 CL        -25.7611    0.2071   28.3458 Cl      1  UNL1        0.0718
      7 C         -27.6192   -3.0031   30.2259 C.3     1  UNL1        0.1857
      8 F         -28.6174   -0.5427   31.3551 F       1  UNL1       -0.0372
      9 C         -26.8589   -4.2720   29.9133 C.3     1  UNL1        0.1748
     10 O         -25.9124   -4.1731   29.1731 O.3     1  UNL1       -0.3484
     11 C         -24.8353   -5.1320   29.3399 C.3     1  UNL1        0.1742
     12 C         -23.7570   -4.7558   28.4496 C.3     1  UNL1        0.1741
     13 O         -23.4006   -3.4624   28.5510 O.3     1  UNL1       -0.3511
     14 C         -24.3669   -2.5565   29.1715 C.3     1  UNL1        0.1424
     15 C         -23.7221   -1.1646   29.1146 C.3     1  UNL1        0.0346
@<TRIPOS>BOND
     1     1     2    1
     2     1     3    1
     3     1     4    1
     4     1     5    2
     5     2     6    1
     6     3     7    1
     7     4     8    1
     8     7     9    1
     9     9    10    1
    10    10    11    1
    11    11    12    1
    12    12    13    1
    13    13    14    1
    14    14    15    1
