@<TRIPOS>MOLECULE
No_2281-gen_results/8p0m/2024-11-27-11-27-31/
 26 30 0 0 0
SMALL
GASTEIGER

@<TRIPOS>ATOM
      1 C         -28.0162   -0.8135   28.8779 C.ar    1  UNL1        0.0367
      2 C         -28.4690   -0.7850   29.8287 C.ar    1  UNL1        0.1390
      3 C         -26.5042   -0.7777   28.8766 C.ar    1  UNL1        0.0007
      4 C         -25.8103   -0.8531   30.1028 C.ar    1  UNL1       -0.0001
      5 C         -27.9906   -0.8916   31.2257 C.ar    1  UNL1        0.0369
      6 C         -26.6042   -0.8676   31.2652 C.ar    1  UNL1        0.0031
      7 O         -29.9385   -0.8194   29.8358 O.3     1  UNL1       -0.4718
      8 C         -30.6978   -1.6543   30.3501 C.3     1  UNL1        0.2223
      9 C         -24.3665   -0.8009   30.1517 C.ar    1  UNL1       -0.0000
     10 C         -23.6111   -0.5763   29.0793 C.ar    1  UNL1       -0.0001
     11 C         -22.1571   -0.4106   29.2448 C.ar    1  UNL1       -0.0000
     12 C         -21.4156   -0.0110   28.1099 C.ar    1  UNL1        0.0001
     13 C         -22.0778    0.9164   27.2323 C.ar    1  UNL1        0.0046
     14 C         -23.5199    1.0552   27.2529 C.ar    1  UNL1        0.0548
     15 C         -24.2197    0.4264   28.1864 C.ar    1  UNL1        0.0021
     16 C         -23.9043    2.0069   26.1694 C.2     1  UNL1        0.2651
     17 N         -25.2434    2.1316   26.1197 N.am    1  UNL1       -0.1968
     18 O         -23.1517    2.4176   25.3171 O.2     1  UNL1       -0.2684
     19 C         -26.2332    1.8218   26.8507 C.3     1  UNL1        0.1418
     20 C         -25.6080    0.6426   28.0947 C.ar    1  UNL1       -0.0003
     21 C         -31.7384   -1.9699   29.5785 C.3     1  UNL1        0.0513
     22 C         -32.1956   -3.2865   29.5604 C.3     1  UNL1        0.0046
     23 C         -31.3274   -4.1745   29.6774 C.3     1  UNL1        0.0080
     24 C         -30.2286   -4.0615   30.6690 C.3     1  UNL1        0.0683
     25 C         -29.6779   -2.7080   30.6547 C.2     1  UNL1        0.1902
     26 O         -28.5404   -2.7044   31.3086 O.2     1  UNL1       -0.2923
@<TRIPOS>BOND
     1     2     7    1
     2     7     8    1
     3    14    16    1
     4    16    17   am
     5    16    18    2
     6    17    19    1
     7     8    21    1
     8    21    22    1
     9    22    23    1
    10     8    25    1
    11    24    25    1
    12    25    26    2
    13    23    24    1
    14    20    19    1
    15     4     9   ar
    16     9    10   ar
    17    15    20   ar
    18    20     3   ar
    19    10    11   ar
    20    11    12   ar
    21    12    13   ar
    22    13    14   ar
    23    14    15   ar
    24    15    10   ar
    25     1     2   ar
    26     2     5   ar
    27     5     6   ar
    28     6     4   ar
    29     4     3   ar
    30     3     1   ar
