@<TRIPOS>MOLECULE
outputs/IAG933/test6/raw/output_2286_IAG933_linker_design_.xyz
 44 49 0 0 0
SMALL
GASTEIGER

@<TRIPOS>ATOM
      1 C         -24.8550   -1.0120   30.1430 C.3     1  UNL1        0.0651
      2 C         -24.9730   -2.5050   29.7880 C.2     1  UNL1       -0.0189
      3 C         -23.9060   -3.1730   29.1460 C.2     1  UNL1       -0.0042
      4 C         -23.9890   -4.5490   28.8530 C.2     1  UNL1       -0.0003
      5 C         -25.1370   -5.2800   29.2050 C.2     1  UNL1       -0.0000
      6 C         -26.2320   -4.6110   29.7840 C.2     1  UNL1       -0.0003
      7 C         -26.1550   -3.2320   30.0650 C.2     1  UNL1       -0.0042
      8 C         -25.3870   -0.6790   31.5710 C.3     1  UNL1        0.0790
      9 C         -25.1890    0.7730   32.0280 C.3     1  UNL1        0.0193
     10 C         -25.3360    0.6840   33.5440 C.3     1  UNL1        0.0202
     11 C         -24.8290   -0.7150   33.9050 C.3     1  UNL1        0.0887
     12 N         -24.7580   -1.4810   32.6460 N.3     1  UNL1       -0.2191
     13 C         -25.6880    1.6140   26.4610 C.2     1  UNL1        0.0410
     14 C         -26.2500    2.9200   26.3950 C.2     1  UNL1        0.0747
     15 C         -25.6420    4.0930   27.1230 C.2     1  UNL1        0.2662
     16 N         -25.6140    5.2520   26.4490 N.am    1  UNL1       -0.1997
     17 C         -25.0260    6.4790   26.9630 C.3     1  UNL1        0.1388
     18 O         -25.1430    3.9660   28.2430 O.2     1  UNL1       -0.2683
     19 C         -27.4380    3.0910   25.6450 C.2     1  UNL1        0.1065
     20 N         -28.0750    2.0890   25.0030 N.2     1  UNL1       -0.2081
     21 C         -27.5430    0.8490   25.0790 C.2     1  UNL1        0.2530
     22 O         -28.1930   -0.2080   24.4770 O.2     1  UNL1       -0.4558
     23 C         -29.4600    0.0050   23.8660 C.3     1  UNL1        0.2426
     24 C         -30.0650   -1.3770   23.5730 C.3     1  UNL1        0.2292
     25 O         -30.7290   -1.8780   24.7210 O.3     1  UNL1       -0.2162
     26 C         -26.3540    0.5760   25.7770 C.2     1  UNL1        0.1912
     27 F         -25.8600   -0.6810   25.7950 F       1  UNL1       -0.1995
     28 C         -29.2138   -0.0373   27.8114 C.3     1  UNL1        0.1843
     29 C         -22.0138    1.2724   27.8178 C.2     1  UNL1        0.2164
     30 C         -30.3897    2.0973   27.9827 C.2     1  UNL1        0.0001
     31 C         -28.7413    1.4014   29.5496 C.2     1  UNL1        0.0419
     32 C         -22.6565    0.2844   28.6937 C.3     1  UNL1        0.1506
     33 C         -29.2515    2.2466   30.5623 C.2     1  UNL1        0.0254
     34 N         -31.0137    3.6645   31.2407 N.pl3   1  UNL1       -0.1280
     35 S         -27.0407    0.6052   29.4171 S.3     1  UNL1       -0.0227
     36 C         -25.1731    0.1423   29.2329 C.3     1  UNL1        0.1328
     37 O         -28.2161   -0.7159   28.9841 O.3     1  UNL1       -0.3007
     38 O         -20.8549    1.6374   27.9112 O.2     1  UNL1       -0.2830
     39 C         -30.8543    3.0595   28.9402 C.2     1  UNL1        0.0178
     40 C         -30.3711    3.0026   30.2623 C.2     1  UNL1        0.0896
     41 C         -24.3808    1.4719   27.1039 C.3     1  UNL1        0.1393
     42 N         -24.1867    0.6842   28.3969 N.3     1  UNL1       -0.2449
     43 C         -29.4106    1.1597   28.3897 C.2     1  UNL1        0.0157
     44 S         -22.9521    2.0058   26.5274 S.3     1  UNL1       -0.0555
@<TRIPOS>BOND
     1     1    36    1
     2     2     7    1
     3     2     1    1
     4     3     2    2
     5     4     3    1
     6     4     5    2
     7     5     6    1
     8     6     7    2
     9     8     1    1
    10     8     9    1
    11     8    12    1
    12     9    10    1
    13    10    11    1
    14    12    11    1
    15    14    13    1
    16    14    15    1
    17    15    18    2
    18    16    17    1
    19    16    15    1
    20    19    14    2
    21    20    21    2
    22    20    19    1
    23    21    26    1
    24    22    21    1
    25    23    22    1
    26    24    23    1
    27    24    25    1
    28    26    27    1
    29    26    13    2
    30    28    43    1
    31    28    37    1
    32    29    38    2
    33    29    32    1
    34    30    43    2
    35    30    39    1
    36    31    33    2
    37    35    36    1
    38    35    31    1
    39    36    42    1
    40    37    35    1
    41    39    40    2
    42    40    33    1
    43    40    34    1
    44    41    13    1
    45    41    42    1
    46    42    32    1
    47    43    31    1
    48    44    41    1
    49    44    29    1
