@<TRIPOS>MOLECULE
No_2287-gen_results/8p0m/2024-11-27-11-27-31/
 15 17 0 0 0
SMALL
GASTEIGER

@<TRIPOS>ATOM
      1 C         -28.0162   -0.8135   28.8779 C.ar    1  UNL1       -0.0000
      2 C         -27.0636   -0.1190   28.6079 C.ar    1  UNL1       -0.0000
      3 C         -27.0010    0.6913   27.4910 C.ar    1  UNL1       -0.0000
      4 C         -25.7770    1.0214   26.9135 C.ar    1  UNL1       -0.0003
      5 C         -24.5088    0.7364   27.5686 C.ar    1  UNL1       -0.0040
      6 C         -23.2776    1.1675   27.1017 C.ar    1  UNL1       -0.0218
      7 C         -28.0386   -1.5919   30.1382 C.ar    1  UNL1        0.0000
      8 C         -26.8122   -1.7762   30.8008 C.ar    1  UNL1       -0.0000
      9 C         -25.6542   -1.1542   30.4147 C.ar    1  UNL1       -0.0000
     10 C         -25.7248   -0.3202   29.2902 C.ar    1  UNL1       -0.0000
     11 C         -24.5135    0.1558   28.7472 C.ar    1  UNL1       -0.0003
     12 C         -23.0957    2.2101   26.1020 C.3     1  UNL1        0.0310
     13 C         -22.0507    0.9375   27.8508 C.ar    1  UNL1       -0.0043
     14 C         -21.9689    0.0997   28.8903 C.ar    1  UNL1       -0.0003
     15 C         -23.3224   -0.2679   29.4635 C.ar    1  UNL1       -0.0000
@<TRIPOS>BOND
     1    12     6    1
     2     1     2   ar
     3    10     9   ar
     4     9     8   ar
     5     8     7   ar
     6     7     1   ar
     7     5     6   ar
     8     6    13   ar
     9    13    14   ar
    10    14    15   ar
    11    15    11   ar
    12     2     3   ar
    13     3     4   ar
    14     4     5   ar
    15     5    11   ar
    16    11    10   ar
    17    10     2   ar
