@<TRIPOS>MOLECULE
outputs/IAG933/test6/raw/output_2288_IAG933_linker_design_.xyz
 40 42 0 0 0
SMALL
GASTEIGER

@<TRIPOS>ATOM
      1 C         -24.8550   -1.0120   30.1430 C.3     1  UNL1        0.0455
      2 C         -24.9730   -2.5050   29.7880 C.2     1  UNL1       -0.0207
      3 C         -23.9060   -3.1730   29.1460 C.2     1  UNL1       -0.0042
      4 C         -23.9890   -4.5490   28.8530 C.2     1  UNL1       -0.0003
      5 C         -25.1370   -5.2800   29.2050 C.2     1  UNL1       -0.0000
      6 C         -26.2320   -4.6110   29.7840 C.2     1  UNL1       -0.0003
      7 C         -26.1550   -3.2320   30.0650 C.2     1  UNL1       -0.0042
      8 C         -25.3870   -0.6790   31.5710 C.3     1  UNL1        0.0969
      9 C         -25.1890    0.7730   32.0280 C.3     1  UNL1        0.1098
     10 C         -25.3360    0.6840   33.5440 C.3     1  UNL1        0.0418
     11 C         -24.8290   -0.7150   33.9050 C.3     1  UNL1        0.0905
     12 N         -24.7580   -1.4810   32.6460 N.3     1  UNL1       -0.2173
     13 C         -25.6880    1.6140   26.4610 C.3     1  UNL1        0.1425
     14 C         -26.2500    2.9200   26.3950 C.2     1  UNL1        0.0709
     15 C         -25.6420    4.0930   27.1230 C.2     1  UNL1        0.2638
     16 N         -25.6140    5.2520   26.4490 N.am    1  UNL1       -0.2000
     17 C         -25.0260    6.4790   26.9630 C.3     1  UNL1        0.1388
     18 O         -25.1430    3.9660   28.2430 O.2     1  UNL1       -0.2686
     19 C         -27.4380    3.0910   25.6450 C.2     1  UNL1        0.1035
     20 N         -28.0750    2.0890   25.0030 N.2     1  UNL1       -0.2118
     21 C         -27.5430    0.8490   25.0790 C.2     1  UNL1        0.2356
     22 O         -28.1930   -0.2080   24.4770 O.2     1  UNL1       -0.4585
     23 C         -29.4600    0.0050   23.8660 C.3     1  UNL1        0.2423
     24 C         -30.0650   -1.3770   23.5730 C.3     1  UNL1        0.2292
     25 O         -30.7290   -1.8780   24.7210 O.3     1  UNL1       -0.2162
     26 C         -26.3540    0.5760   25.7770 C.3     1  UNL1        0.2559
     27 F         -25.8600   -0.6810   25.7950 F       1  UNL1       -0.2253
     28 C         -25.6347    5.0700   32.2461 C.3     1  UNL1        0.0416
     29 N         -25.7637    2.0184   31.5301 N.pl3   1  UNL1       -0.2417
     30 C         -23.4269    1.0838   27.1113 C.3     1  UNL1        0.0843
     31 N         -24.8009    1.2455   27.4222 N.3     1  UNL1       -0.2120
     32 C         -23.7620    2.2998   30.3145 C.2     1  UNL1        0.0426
     33 O         -23.2996    5.2396   33.0273 O.3     1  UNL1       -0.2204
     34 C         -22.4776    1.4917   28.2402 C.3     1  UNL1        0.0796
     35 C         -24.6702    5.3312   33.4350 C.3     1  UNL1        0.1825
     36 S         -22.9394    0.8031   29.7463 S.3     1  UNL1       -0.1107
     37 C         -25.1814    4.3116   31.0997 C.3     1  UNL1        0.0459
     38 C         -22.0151    2.3503   25.4281 C.3     1  UNL1        0.0015
     39 C         -23.2087    1.4673   25.6357 C.3     1  UNL1        0.0183
     40 C         -24.9202    2.9625   31.0568 C.2     1  UNL1        0.0492
@<TRIPOS>BOND
     1     2     7    1
     2     2     1    1
     3     3     2    2
     4     4     3    1
     5     4     5    2
     6     5     6    1
     7     6     7    2
     8     8     1    1
     9     8     9    1
    10     8    12    1
    11     9    29    1
    12     9    10    1
    13    10    11    1
    14    12    11    1
    15    13    31    1
    16    14    13    1
    17    14    15    1
    18    15    18    2
    19    16    17    1
    20    16    15    1
    21    19    14    2
    22    20    21    2
    23    20    19    1
    24    21    26    1
    25    22    21    1
    26    23    22    1
    27    24    23    1
    28    24    25    1
    29    26    27    1
    30    26    13    1
    31    28    35    1
    32    30    39    1
    33    30    31    1
    34    30    34    1
    35    32    40    2
    36    33    35    1
    37    34    36    1
    38    36    32    1
    39    37    28    1
    40    38    39    1
    41    40    37    1
    42    40    29    1
