@<TRIPOS>MOLECULE
No_2289-gen_results/8p0m/2024-11-27-11-27-31/
 16 17 0 0 0
SMALL
GASTEIGER

@<TRIPOS>ATOM
      1 C         -28.0162   -0.8135   28.8779 C.ar    1  UNL1        0.0064
      2 C         -27.0636   -0.1189   28.6079 C.ar    1  UNL1        0.0345
      3 C         -26.9287    1.1713   29.0083 C.ar    1  UNL1        0.0064
      4 C         -27.9560    1.7411   29.7840 C.ar    1  UNL1       -0.0035
      5 C         -29.0569   -0.3271   29.7466 C.ar    1  UNL1       -0.0035
      6 C         -28.9828    0.9722   30.1516 C.ar    1  UNL1       -0.0190
      7 BR        -25.5945   -0.7909   27.5783 Br      1  UNL1       -0.0490
      8 C         -30.0834    1.5124   31.0122 C.3     1  UNL1        0.0377
      9 C         -29.7778    1.7525   32.2169 C.ar    1  UNL1       -0.0190
     10 C         -28.4974    1.8314   32.6814 C.ar    1  UNL1       -0.0040
     11 C         -28.1642    2.1903   34.0894 C.ar    1  UNL1       -0.0003
     12 C         -29.1374    2.3932   34.9143 C.ar    1  UNL1       -0.0000
     13 C         -30.4278    2.3369   34.4929 C.ar    1  UNL1       -0.0003
     14 C         -30.7338    2.0461   33.2235 C.ar    1  UNL1       -0.0040
     15 C         -30.6316    2.6284   30.1941 C.3     1  UNL1        0.0088
     16 C         -31.1651    0.3037   30.9716 C.3     1  UNL1        0.0088
@<TRIPOS>BOND
     1     2     7    1
     2     6     8    1
     3     8     9    1
     4     8    15    1
     5     8    16    1
     6     1     2   ar
     7     2     3   ar
     8     3     4   ar
     9     4     6   ar
    10     6     5   ar
    11     5     1   ar
    12     9    10   ar
    13    10    11   ar
    14    11    12   ar
    15    12    13   ar
    16    13    14   ar
    17    14     9   ar
