@<TRIPOS>MOLECULE
outputs/IAG933/test6/raw/output_229_IAG933_linker_design_.xyz
 43 46 0 0 0
SMALL
GASTEIGER

@<TRIPOS>ATOM
      1 C         -24.8550   -1.0120   30.1430 C.3     1  UNL1        0.0438
      2 C         -24.9730   -2.5050   29.7880 C.2     1  UNL1       -0.0208
      3 C         -23.9060   -3.1730   29.1460 C.2     1  UNL1       -0.0042
      4 C         -23.9890   -4.5490   28.8530 C.2     1  UNL1       -0.0003
      5 C         -25.1370   -5.2800   29.2050 C.2     1  UNL1       -0.0000
      6 C         -26.2320   -4.6110   29.7840 C.2     1  UNL1       -0.0003
      7 C         -26.1550   -3.2320   30.0650 C.2     1  UNL1       -0.0042
      8 C         -25.3870   -0.6790   31.5710 C.3     1  UNL1        0.0795
      9 C         -25.1890    0.7730   32.0280 C.3     1  UNL1        0.0450
     10 C         -25.3360    0.6840   33.5440 C.3     1  UNL1        0.0226
     11 C         -24.8290   -0.7150   33.9050 C.3     1  UNL1        0.0888
     12 N         -24.7580   -1.4810   32.6460 N.3     1  UNL1       -0.2190
     13 C         -25.6880    1.6140   26.4610 C.2     1  UNL1        0.1032
     14 C         -26.2500    2.9200   26.3950 C.2     1  UNL1        0.0914
     15 C         -25.6420    4.0930   27.1230 C.2     1  UNL1        0.2677
     16 N         -25.6140    5.2520   26.4490 N.am    1  UNL1       -0.1997
     17 C         -25.0260    6.4790   26.9630 C.3     1  UNL1        0.1388
     18 O         -25.1430    3.9660   28.2430 O.2     1  UNL1       -0.2683
     19 C         -27.4380    3.0910   25.6450 C.2     1  UNL1        0.1080
     20 N         -28.0750    2.0890   25.0030 N.2     1  UNL1       -0.2080
     21 C         -27.5430    0.8490   25.0790 C.2     1  UNL1        0.2546
     22 O         -28.1930   -0.2080   24.4770 O.2     1  UNL1       -0.4558
     23 C         -29.4600    0.0050   23.8660 C.3     1  UNL1        0.2426
     24 C         -30.0650   -1.3770   23.5730 C.3     1  UNL1        0.2292
     25 O         -30.7290   -1.8780   24.7210 O.3     1  UNL1       -0.2162
     26 C         -26.3540    0.5760   25.7770 C.2     1  UNL1        0.2078
     27 F         -25.8600   -0.6810   25.7950 F       1  UNL1       -0.1979
     28 C         -25.3846    5.9951   31.4951 C.2     1  UNL1       -0.0019
     29 C         -22.6647    1.6383   28.5939 C.3     1  UNL1        0.1117
     30 N         -22.1378    0.3326   29.3117 N.3     1  UNL1       -0.1311
     31 C         -26.0596    4.0086   32.8927 C.3     1  UNL1        0.1685
     32 C         -22.7215    2.0639   25.9915 C.3     1  UNL1        0.0249
     33 C         -25.3706    7.6860   33.7545 C.2     1  UNL1       -0.0002
     34 C         -25.7962    5.5024   32.7472 C.2     1  UNL1        0.0073
     35 C         -23.6063    2.3116   29.6492 C.3     1  UNL1        0.0233
     36 C         -23.3331    1.3781   27.2052 C.3     1  UNL1        0.1101
     37 C         -24.8722    7.2928   31.4384 C.2     1  UNL1       -0.0002
     38 C         -25.8541    6.3741   33.8730 C.2     1  UNL1       -0.0019
     39 C         -25.6332    2.0755   31.3422 C.3     1  UNL1        0.1170
     40 O         -25.2321    3.3419   31.9231 O.3     1  UNL1       -0.3514
     41 C         -25.0803    1.8264   29.9165 C.3     1  UNL1        0.0312
     42 C         -24.8428    8.1285   32.5534 C.2     1  UNL1       -0.0000
     43 N         -24.7832    1.3861   27.3133 N.pl3   1  UNL1       -0.2353
@<TRIPOS>BOND
     1     2     7    1
     2     2     1    1
     3     3     2    2
     4     4     3    1
     5     4     5    2
     6     5     6    1
     7     6     7    2
     8     8     1    1
     9     8     9    1
    10     8    12    1
    11     9    39    1
    12     9    10    1
    13    10    11    1
    14    12    11    1
    15    13    43    1
    16    14    13    1
    17    14    15    1
    18    15    18    2
    19    16    17    1
    20    16    15    1
    21    19    14    2
    22    20    21    2
    23    20    19    1
    24    21    26    1
    25    22    21    1
    26    23    22    1
    27    24    23    1
    28    24    25    1
    29    26    27    1
    30    26    13    2
    31    28    34    1
    32    29    30    1
    33    29    35    1
    34    33    38    1
    35    34    31    1
    36    34    38    2
    37    35    41    1
    38    36    32    1
    39    36    43    1
    40    36    29    1
    41    37    28    2
    42    37    42    1
    43    39    41    1
    44    39    40    1
    45    40    31    1
    46    42    33    2
