@<TRIPOS>MOLECULE
outputs/IAG933/test6/raw/output_2290_IAG933_linker_design_.xyz
 42 45 0 0 0
SMALL
GASTEIGER

@<TRIPOS>ATOM
      1 C         -24.8550   -1.0120   30.1430 C.3     1  UNL1        0.1152
      2 C         -24.9730   -2.5050   29.7880 C.2     1  UNL1       -0.0027
      3 C         -23.9060   -3.1730   29.1460 C.2     1  UNL1       -0.0026
      4 C         -23.9890   -4.5490   28.8530 C.2     1  UNL1       -0.0003
      5 C         -25.1370   -5.2800   29.2050 C.2     1  UNL1       -0.0000
      6 C         -26.2320   -4.6110   29.7840 C.2     1  UNL1       -0.0003
      7 C         -26.1550   -3.2320   30.0650 C.2     1  UNL1       -0.0026
      8 C         -25.3870   -0.6790   31.5710 C.3     1  UNL1        0.0954
      9 C         -25.1890    0.7730   32.0280 C.3     1  UNL1        0.0209
     10 C         -25.3360    0.6840   33.5440 C.3     1  UNL1        0.0203
     11 C         -24.8290   -0.7150   33.9050 C.3     1  UNL1        0.0888
     12 N         -24.7580   -1.4810   32.6460 N.3     1  UNL1       -0.2174
     13 C         -25.6880    1.6140   26.4610 C.3     1  UNL1        0.0977
     14 C         -26.2500    2.9200   26.3950 C.2     1  UNL1        0.0591
     15 C         -25.6420    4.0930   27.1230 C.2     1  UNL1        0.2628
     16 N         -25.6140    5.2520   26.4490 N.am    1  UNL1       -0.2000
     17 C         -25.0260    6.4790   26.9630 C.3     1  UNL1        0.1388
     18 O         -25.1430    3.9660   28.2430 O.2     1  UNL1       -0.2686
     19 C         -27.4380    3.0910   25.6450 C.2     1  UNL1        0.1025
     20 N         -28.0750    2.0890   25.0030 N.2     1  UNL1       -0.2118
     21 C         -27.5430    0.8490   25.0790 C.2     1  UNL1        0.2344
     22 O         -28.1930   -0.2080   24.4770 O.2     1  UNL1       -0.4585
     23 C         -29.4600    0.0050   23.8660 C.3     1  UNL1        0.2423
     24 C         -30.0650   -1.3770   23.5730 C.3     1  UNL1        0.2292
     25 O         -30.7290   -1.8780   24.7210 O.3     1  UNL1       -0.2162
     26 C         -26.3540    0.5760   25.7770 C.3     1  UNL1        0.2442
     27 F         -25.8600   -0.6810   25.7950 F       1  UNL1       -0.2265
     28 N         -29.6801    2.9191   30.4100 N.am    1  UNL1       -0.0878
     29 C         -22.9643   -0.1712   29.3257 C.2     1  UNL1        0.0778
     30 C         -23.3831    1.5124   26.9273 C.2     1  UNL1        0.2660
     31 C         -20.5485   -0.0568   28.6645 C.3     1  UNL1        0.0507
     32 C         -26.7380   -0.1415   28.7832 C.3     1  UNL1        0.0417
     33 C         -28.7545    2.0710   30.5978 C.2     1  UNL1        0.2607
     34 C         -28.9797    0.6111   30.1041 C.3     1  UNL1        0.0889
     35 O         -27.7103    2.3546   31.1074 O.2     1  UNL1       -0.2717
     36 N         -22.1931    0.9990   27.2992 N.am    1  UNL1       -0.1787
     37 O         -23.2263    2.4123   26.0585 O.2     1  UNL1       -0.2683
     38 N         -24.2180   -0.0993   29.1720 N.pl3   1  UNL1       -0.2850
     39 C         -25.2862    0.3828   28.5107 C.2     1  UNL1        0.0299
     40 C         -24.7841    1.1785   27.4081 C.2     1  UNL1        0.0498
     41 C         -28.1103    0.2076   28.8963 C.3     1  UNL1        0.0157
     42 C         -21.9120    0.2726   28.4205 C.2     1  UNL1        0.0665
@<TRIPOS>BOND
     1     1     2    1
     2     2     7    1
     3     3     2    2
     4     4     3    1
     5     4     5    2
     6     5     6    1
     7     6     7    2
     8     8     1    1
     9     8     9    1
    10     8    12    1
    11     9    10    1
    12    10    11    1
    13    12    11    1
    14    13    40    1
    15    14    13    1
    16    14    15    1
    17    15    18    2
    18    16    17    1
    19    16    15    1
    20    19    14    2
    21    20    21    2
    22    20    19    1
    23    21    26    1
    24    22    21    1
    25    23    22    1
    26    24    23    1
    27    24    25    1
    28    26    27    1
    29    26    13    1
    30    28    33    1
    31    30    36    1
    32    30    40    1
    33    32    41    1
    34    33    35    2
    35    34    33    1
    36    36    42    1
    37    37    30    2
    38    38    29    1
    39    38     1    1
    40    39    32    1
    41    39    38    1
    42    40    39    2
    43    41    34    1
    44    42    31    1
    45    42    29    2
