@<TRIPOS>MOLECULE
outputs/IAG933/test6/raw/output_2292_IAG933_linker_design_.xyz
 53 59 0 0 0
SMALL
GASTEIGER

@<TRIPOS>ATOM
      1 C         -24.8550   -1.0120   30.1430 C.3     1  UNL1        0.0700
      2 C         -24.9730   -2.5050   29.7880 C.2     1  UNL1       -0.0184
      3 C         -23.9060   -3.1730   29.1460 C.2     1  UNL1       -0.0041
      4 C         -23.9890   -4.5490   28.8530 C.2     1  UNL1       -0.0003
      5 C         -25.1370   -5.2800   29.2050 C.2     1  UNL1       -0.0000
      6 C         -26.2320   -4.6110   29.7840 C.2     1  UNL1       -0.0003
      7 C         -26.1550   -3.2320   30.0650 C.2     1  UNL1       -0.0041
      8 C         -25.3870   -0.6790   31.5710 C.3     1  UNL1        0.0795
      9 C         -25.1890    0.7730   32.0280 C.3     1  UNL1        0.0193
     10 C         -25.3360    0.6840   33.5440 C.3     1  UNL1        0.0202
     11 C         -24.8290   -0.7150   33.9050 C.3     1  UNL1        0.0887
     12 N         -24.7580   -1.4810   32.6460 N.3     1  UNL1       -0.2190
     13 C         -25.6880    1.6140   26.4610 C.3     1  UNL1        0.0746
     14 C         -26.2500    2.9200   26.3950 C.2     1  UNL1        0.0551
     15 C         -25.6420    4.0930   27.1230 C.2     1  UNL1        0.2624
     16 N         -25.6140    5.2520   26.4490 N.am    1  UNL1       -0.2000
     17 C         -25.0260    6.4790   26.9630 C.3     1  UNL1        0.1388
     18 O         -25.1430    3.9660   28.2430 O.2     1  UNL1       -0.2687
     19 C         -27.4380    3.0910   25.6450 C.2     1  UNL1        0.1021
     20 N         -28.0750    2.0890   25.0030 N.2     1  UNL1       -0.2119
     21 C         -27.5430    0.8490   25.0790 C.2     1  UNL1        0.2341
     22 O         -28.1930   -0.2080   24.4770 O.2     1  UNL1       -0.4585
     23 C         -29.4600    0.0050   23.8660 C.3     1  UNL1        0.2423
     24 C         -30.0650   -1.3770   23.5730 C.3     1  UNL1        0.2292
     25 O         -30.7290   -1.8780   24.7210 O.3     1  UNL1       -0.2162
     26 C         -26.3540    0.5760   25.7770 C.3     1  UNL1        0.2403
     27 F         -25.8600   -0.6810   25.7950 F       1  UNL1       -0.2269
     28 C         -25.3626    1.0675   28.7363 C.2     1  UNL1        0.0166
     29 C         -26.5188    1.7356   29.4201 C.1     1  UNL1       -0.1166
     30 O         -31.0035    4.2204   27.2613 O.3     1  UNL1       -0.2199
     31 C         -21.1511    1.4241   27.8334 C.3     1  UNL1        0.0321
     32 O         -28.8581    7.0710   30.7618 O.3     1  UNL1       -0.3585
     33 C         -30.3993    1.4575   27.9668 C.2     1  UNL1        0.1531
     34 C         -30.0482    2.6108   28.8587 C.3     1  UNL1        0.0948
     35 C         -27.7605    7.7702   31.2917 C.3     1  UNL1        0.1420
     36 C         -29.3230    4.6055   30.6163 C.3     1  UNL1        0.0318
     37 C         -26.8861    6.7806   32.1445 C.3     1  UNL1        0.0344
     38 C         -23.3717    2.0321   27.3869 C.3     1  UNL1        0.0347
     39 C         -27.7986    5.4833   32.1344 C.3     1  UNL1        0.0278
     40 C         -29.6589    0.1544   28.2907 C.3     1  UNL1        0.0649
     41 C         -28.9508    1.9739   29.5859 C.3     1  UNL1        0.0353
     42 C         -27.2780    5.6604   29.4768 C.3     1  UNL1        0.0296
     43 C         -29.7895    3.8936   27.9548 C.3     1  UNL1        0.1897
     44 C         -28.9542    0.5326   29.5885 C.3     1  UNL1        0.0129
     45 O         -23.1907    0.4354   29.2735 O.3     1  UNL1       -0.3537
     46 C         -27.8269    2.6315   30.1196 C.2     1  UNL1       -0.0106
     47 C         -24.9267    1.5142   27.5528 C.3     1  UNL1        0.0376
     48 C         -27.4303    4.1381   32.0984 C.3     1  UNL1        0.0071
     49 C         -28.3374    5.7044   30.6916 C.3     1  UNL1        0.0932
     50 O         -31.0641    1.5023   26.9284 O.2     1  UNL1       -0.2960
     51 C         -28.2785    3.5099   31.1548 C.3     1  UNL1        0.0278
     52 C         -24.4771    0.1934   29.3777 C.3     1  UNL1        0.1456
     53 C         -22.5755    0.8884   28.0400 C.3     1  UNL1        0.1160
@<TRIPOS>BOND
     1     1     2    1
     2     2     7    1
     3     3     2    2
     4     4     3    1
     5     4     5    2
     6     5     6    1
     7     6     7    2
     8     8     1    1
     9     8     9    1
    10     8    12    1
    11     9    10    1
    12    10    11    1
    13    12    11    1
    14    13    14    1
    15    13    47    1
    16    14    15    1
    17    15    18    2
    18    16    17    1
    19    16    15    1
    20    19    14    2
    21    20    21    2
    22    20    19    1
    23    21    26    1
    24    22    21    1
    25    23    22    1
    26    24    23    1
    27    24    25    1
    28    26    27    1
    29    26    13    1
    30    28    52    1
    31    28    29    2
    32    29    46    2
    33    30    43    1
    34    32    35    1
    35    33    40    1
    36    33    34    1
    37    34    43    1
    38    34    41    1
    39    35    37    1
    40    36    49    1
    41    36    51    1
    42    38    53    1
    43    39    48    1
    44    39    37    1
    45    40    44    1
    46    41    44    1
    47    41    46    1
    48    45    52    1
    49    47    38    1
    50    47    28    1
    51    49    42    1
    52    49    32    1
    53    49    39    1
    54    50    33    2
    55    51    46    1
    56    51    48    1
    57    52     1    1
    58    53    31    1
    59    53    45    1
