@<TRIPOS>MOLECULE
outputs/IAG933/test6/raw/output_2293_IAG933_linker_design_.xyz
 45 49 0 0 0
SMALL
GASTEIGER

@<TRIPOS>ATOM
      1 C         -24.8550   -1.0120   30.1430 C.3     1  UNL1        0.0963
      2 C         -24.9730   -2.5050   29.7880 C.2     1  UNL1       -0.0064
      3 C         -23.9060   -3.1730   29.1460 C.2     1  UNL1       -0.0029
      4 C         -23.9890   -4.5490   28.8530 C.2     1  UNL1       -0.0003
      5 C         -25.1370   -5.2800   29.2050 C.2     1  UNL1       -0.0000
      6 C         -26.2320   -4.6110   29.7840 C.2     1  UNL1       -0.0003
      7 C         -26.1550   -3.2320   30.0650 C.2     1  UNL1       -0.0029
      8 C         -25.3870   -0.6790   31.5710 C.3     1  UNL1        0.0916
      9 C         -25.1890    0.7730   32.0280 C.3     1  UNL1        0.0206
     10 C         -25.3360    0.6840   33.5440 C.3     1  UNL1        0.0203
     11 C         -24.8290   -0.7150   33.9050 C.3     1  UNL1        0.0888
     12 N         -24.7580   -1.4810   32.6460 N.3     1  UNL1       -0.2178
     13 C         -25.6880    1.6140   26.4610 C.3     1  UNL1        0.0939
     14 C         -26.2500    2.9200   26.3950 C.2     1  UNL1        0.0588
     15 C         -25.6420    4.0930   27.1230 C.2     1  UNL1        0.2627
     16 N         -25.6140    5.2520   26.4490 N.am    1  UNL1       -0.2000
     17 C         -25.0260    6.4790   26.9630 C.3     1  UNL1        0.1388
     18 O         -25.1430    3.9660   28.2430 O.2     1  UNL1       -0.2686
     19 C         -27.4380    3.0910   25.6450 C.2     1  UNL1        0.1025
     20 N         -28.0750    2.0890   25.0030 N.2     1  UNL1       -0.2118
     21 C         -27.5430    0.8490   25.0790 C.2     1  UNL1        0.2344
     22 O         -28.1930   -0.2080   24.4770 O.2     1  UNL1       -0.4585
     23 C         -29.4600    0.0050   23.8660 C.3     1  UNL1        0.2423
     24 C         -30.0650   -1.3770   23.5730 C.3     1  UNL1        0.2292
     25 O         -30.7290   -1.8780   24.7210 O.3     1  UNL1       -0.2162
     26 C         -26.3540    0.5760   25.7770 C.3     1  UNL1        0.2439
     27 F         -25.8600   -0.6810   25.7950 F       1  UNL1       -0.2265
     28 C         -27.1520   -0.1342   28.7116 C.3     1  UNL1        0.0188
     29 N         -29.4835   -1.0407   28.9955 N.3     1  UNL1       -0.2476
     30 C         -25.8100    0.0434   28.3686 C.3     1  UNL1        0.0188
     31 O         -22.1983    2.0250   25.0387 O.2     1  UNL1       -0.3306
     32 C         -25.1377    0.8207   28.8849 C.3     1  UNL1        0.0724
     33 C         -22.8064    1.4445   27.1514 C.3     1  UNL1        0.1876
     34 C         -32.1232   -1.2454   30.2061 C.3     1  UNL1        0.1453
     35 C         -23.0646    0.2805   29.2408 C.3     1  UNL1        0.0754
     36 C         -23.5665    1.8229   25.1576 C.2     1  UNL1        0.2145
     37 C         -30.8917   -1.5814   31.0820 C.3     1  UNL1        0.0495
     38 O         -21.8798    2.0280   26.3606 O.3     1  UNL1       -0.1709
     39 N         -24.3762   -0.0440   29.3244 N.3     1  UNL1       -0.2691
     40 C         -22.4094    1.0755   28.4726 C.3     1  UNL1        0.0557
     41 C         -24.0106    1.5879   26.2779 C.2     1  UNL1        0.0347
     42 O         -31.7827   -1.5742   28.8333 O.3     1  UNL1       -0.3373
     43 C         -30.7286   -0.7847   28.2736 C.3     1  UNL1        0.2199
     44 C         -29.5796   -1.0086   30.4761 C.3     1  UNL1        0.0769
     45 C         -28.5395   -0.1151   28.2980 C.3     1  UNL1        0.0744
@<TRIPOS>BOND
     1     1    39    1
     2     2     7    1
     3     2     1    1
     4     3     2    2
     5     4     3    1
     6     4     5    2
     7     5     6    1
     8     6     7    2
     9     8     1    1
    10     8     9    1
    11     8    12    1
    12     9    10    1
    13    10    11    1
    14    12    11    1
    15    13    41    1
    16    14    13    1
    17    14    15    1
    18    15    18    2
    19    16    17    1
    20    16    15    1
    21    19    14    2
    22    20    21    2
    23    20    19    1
    24    21    26    1
    25    22    21    1
    26    23    22    1
    27    24    23    1
    28    24    25    1
    29    26    27    1
    30    26    13    1
    31    29    44    1
    32    30    28    1
    33    30    32    1
    34    31    36    1
    35    31    38    1
    36    32    39    1
    37    33    40    1
    38    34    37    1
    39    35    39    1
    40    36    41    2
    41    38    33    1
    42    40    35    1
    43    41    33    1
    44    42    34    1
    45    43    42    1
    46    43    29    1
    47    44    37    1
    48    45    28    1
    49    45    29    1
