@<TRIPOS>MOLECULE
outputs/IAG933/test6/raw/output_2294_IAG933_linker_design_.xyz
 43 49 0 0 0
SMALL
GASTEIGER

@<TRIPOS>ATOM
      1 C         -24.8550   -1.0120   30.1430 C.3     1  UNL1        0.0719
      2 C         -24.9730   -2.5050   29.7880 C.2     1  UNL1       -0.0186
      3 C         -23.9060   -3.1730   29.1460 C.2     1  UNL1       -0.0042
      4 C         -23.9890   -4.5490   28.8530 C.2     1  UNL1       -0.0003
      5 C         -25.1370   -5.2800   29.2050 C.2     1  UNL1       -0.0000
      6 C         -26.2320   -4.6110   29.7840 C.2     1  UNL1       -0.0003
      7 C         -26.1550   -3.2320   30.0650 C.2     1  UNL1       -0.0042
      8 C         -25.3870   -0.6790   31.5710 C.3     1  UNL1        0.0794
      9 C         -25.1890    0.7730   32.0280 C.3     1  UNL1        0.0193
     10 C         -25.3360    0.6840   33.5440 C.3     1  UNL1        0.0202
     11 C         -24.8290   -0.7150   33.9050 C.3     1  UNL1        0.0887
     12 N         -24.7580   -1.4810   32.6460 N.3     1  UNL1       -0.2190
     13 C         -25.6880    1.6140   26.4610 C.2     1  UNL1        0.0890
     14 C         -26.2500    2.9200   26.3950 C.2     1  UNL1        0.0900
     15 C         -25.6420    4.0930   27.1230 C.2     1  UNL1        0.2676
     16 N         -25.6140    5.2520   26.4490 N.am    1  UNL1       -0.1997
     17 C         -25.0260    6.4790   26.9630 C.3     1  UNL1        0.1388
     18 O         -25.1430    3.9660   28.2430 O.2     1  UNL1       -0.2683
     19 C         -27.4380    3.0910   25.6450 C.2     1  UNL1        0.1080
     20 N         -28.0750    2.0890   25.0030 N.2     1  UNL1       -0.2080
     21 C         -27.5430    0.8490   25.0790 C.2     1  UNL1        0.2546
     22 O         -28.1930   -0.2080   24.4770 O.2     1  UNL1       -0.4558
     23 C         -29.4600    0.0050   23.8660 C.3     1  UNL1        0.2426
     24 C         -30.0650   -1.3770   23.5730 C.3     1  UNL1        0.2292
     25 O         -30.7290   -1.8780   24.7210 O.3     1  UNL1       -0.2162
     26 C         -26.3540    0.5760   25.7770 C.2     1  UNL1        0.2063
     27 F         -25.8600   -0.6810   25.7950 F       1  UNL1       -0.1979
     28 O         -23.3439    2.0945   25.1499 O.3     1  UNL1       -0.1994
     29 C         -23.4894    1.5813   26.4782 C.3     1  UNL1        0.2359
     30 C         -21.6637   -0.3270   29.3969 C.3     1  UNL1        0.1737
     31 C         -25.3086   -0.1561   28.9183 C.3     1  UNL1        0.1928
     32 F         -20.0631    2.1244   27.1370 F       1  UNL1       -0.2009
     33 O         -22.6479    0.4180   30.3263 O.3     1  UNL1       -0.2802
     34 C         -20.5801    0.3011   28.5656 C.3     1  UNL1        0.1406
     35 O         -22.0982    2.4913   24.9158 O.3     1  UNL1       -0.1851
     36 N         -19.7911   -0.3653   27.8945 N.3     1  UNL1       -0.1287
     37 C         -21.3164    2.1312   26.5084 C.3     1  UNL1        0.3152
     38 N         -24.6078    1.3446   27.1403 N.pl3   1  UNL1       -0.2658
     39 N         -23.1790    0.9892   28.8873 N.3     1  UNL1       -0.1445
     40 C         -22.1686    0.3703   28.0121 C.3     1  UNL1        0.1277
     41 C         -24.5043    1.1353   28.5780 C.3     1  UNL1        0.1910
     42 O         -25.0794   -1.0077   27.8473 O.3     1  UNL1       -0.2194
     43 C         -22.2781    1.4458   27.0597 C.3     1  UNL1        0.1339
@<TRIPOS>BOND
     1     1    31    1
     2     2     7    1
     3     2     1    1
     4     3     2    2
     5     4     3    1
     6     4     5    2
     7     5     6    1
     8     6     7    2
     9     8     1    1
    10     8     9    1
    11     8    12    1
    12     9    10    1
    13    10    11    1
    14    12    11    1
    15    13    38    1
    16    14    13    1
    17    14    15    1
    18    15    18    2
    19    16    17    1
    20    16    15    1
    21    19    14    2
    22    20    21    2
    23    20    19    1
    24    21    26    1
    25    22    21    1
    26    23    22    1
    27    24    23    1
    28    24    25    1
    29    26    27    1
    30    26    13    2
    31    29    28    1
    32    29    43    1
    33    29    38    1
    34    30    33    1
    35    31    42    1
    36    34    36    1
    37    34    30    1
    38    35    28    1
    39    35    37    1
    40    37    43    1
    41    37    32    1
    42    38    41    1
    43    39    33    1
    44    40    34    1
    45    40    39    1
    46    40    30    1
    47    41    39    1
    48    41    31    1
    49    43    40    1
