@<TRIPOS>MOLECULE
No_2299-gen_results/8p0m/2024-11-27-11-27-31/
 18 20 0 0 0
SMALL
GASTEIGER

@<TRIPOS>ATOM
      1 C         -28.0162   -0.8135   28.8779 C.ar    1  UNL1       -0.0000
      2 C         -28.4690   -0.7850   29.8287 C.ar    1  UNL1       -0.0000
      3 C         -27.1356    0.2359   28.5352 C.ar    1  UNL1       -0.0000
      4 C         -26.8745    1.2825   29.3982 C.ar    1  UNL1       -0.0000
      5 C         -28.3613    0.1987   30.9244 C.ar    1  UNL1        0.0000
      6 C         -27.5277    1.2234   30.6356 C.ar    1  UNL1       -0.0000
      7 C         -26.3987    0.2949   27.2279 C.ar    1  UNL1       -0.0002
      8 C         -25.0392    0.2356   27.3538 C.ar    1  UNL1       -0.0013
      9 C         -27.0287    0.3958   26.0087 C.ar    1  UNL1       -0.0000
     10 C         -26.2725    0.3047   24.8644 C.ar    1  UNL1       -0.0000
     11 C         -24.3360    0.0989   28.6508 C.2     1  UNL1        0.0119
     12 C         -24.8412    0.2669   24.9621 C.ar    1  UNL1       -0.0000
     13 C         -24.2741    0.3219   26.1572 C.ar    1  UNL1       -0.0002
     14 C         -23.9571   -1.0909   29.1539 C.2     1  UNL1       -0.0017
     15 C         -23.3361   -1.1973   30.3036 C.2     1  UNL1       -0.0020
     16 C         -23.3607   -0.1570   31.1341 C.2     1  UNL1        0.0106
     17 C         -24.2612    1.0477   29.8378 C.3     1  UNL1        0.1963
     18 O         -23.2944    2.0606   29.7808 O.3     1  UNL1       -0.2134
@<TRIPOS>BOND
     1     3     7    1
     2     8    11    1
     3    11    14    2
     4    14    15    1
     5    15    16    2
     6    11    17    1
     7    16    17    1
     8    17    18    1
     9     1     2   ar
    10     2     5   ar
    11     5     6   ar
    12     6     4   ar
    13     4     3   ar
    14     3     1   ar
    15     7     8   ar
    16     8    13   ar
    17    13    12   ar
    18    12    10   ar
    19    10     9   ar
    20     9     7   ar
