@<TRIPOS>MOLECULE
No_230-gen_results/8p0m/2024-11-27-11-27-31/
 18 19 0 0 0
SMALL
GASTEIGER

@<TRIPOS>ATOM
      1 CL        -28.1493   -0.8198   28.9079 Cl      1  UNL1       -0.0822
      2 C         -26.9116   -0.0797   28.9452 C.ar    1  UNL1        0.0577
      3 C         -26.7384    1.0439   29.2534 C.ar    1  UNL1        0.0115
      4 C         -25.4392    1.7115   29.2755 C.ar    1  UNL1        0.0054
      5 C         -24.2812    0.9888   28.8542 C.ar    1  UNL1        0.0551
      6 C         -24.4868   -0.3041   28.4957 C.ar    1  UNL1        0.0054
      7 C         -25.7046   -0.8667   28.5244 C.ar    1  UNL1        0.0115
      8 C         -23.0983    1.8445   28.7510 C.2     1  UNL1        0.2650
      9 N         -22.8950    2.4794   27.5642 N.am    1  UNL1       -0.1989
     10 C         -23.9239    2.9671   26.9056 C.3     1  UNL1        0.1178
     11 C         -24.6831    3.9000   27.4206 C.ar    1  UNL1       -0.0026
     12 C         -24.1011    2.5875   25.5390 C.3     1  UNL1        0.0283
     13 C         -25.6840    4.6034   26.6971 C.ar    1  UNL1       -0.0026
     14 C         -26.4620    5.5371   27.3557 C.ar    1  UNL1       -0.0003
     15 C         -26.2339    5.8478   28.6776 C.ar    1  UNL1       -0.0000
     16 C         -25.3011    5.1778   29.4381 C.ar    1  UNL1       -0.0003
     17 C         -24.5855    4.2791   28.8777 C.ar    1  UNL1       -0.0026
     18 O         -22.1755    1.5054   29.5562 O.2     1  UNL1       -0.2684
@<TRIPOS>BOND
     1     1     2    1
     2     5     8    1
     3     8     9   am
     4     9    10    1
     5    10    11    1
     6    10    12    1
     7     8    18    2
     8     2     3   ar
     9     3     4   ar
    10     4     5   ar
    11     5     6   ar
    12     6     7   ar
    13     7     2   ar
    14    11    13   ar
    15    13    14   ar
    16    14    15   ar
    17    15    16   ar
    18    16    17   ar
    19    17    11   ar
