@<TRIPOS>MOLECULE
outputs/IAG933/test6/raw/output_2300_IAG933_linker_design_.xyz
 48 53 0 0 0
SMALL
GASTEIGER

@<TRIPOS>ATOM
      1 C         -24.8550   -1.0120   30.1430 C.3     1  UNL1        0.1139
      2 C         -24.9730   -2.5050   29.7880 C.2     1  UNL1       -0.0029
      3 C         -23.9060   -3.1730   29.1460 C.2     1  UNL1       -0.0026
      4 C         -23.9890   -4.5490   28.8530 C.2     1  UNL1       -0.0003
      5 C         -25.1370   -5.2800   29.2050 C.2     1  UNL1       -0.0000
      6 C         -26.2320   -4.6110   29.7840 C.2     1  UNL1       -0.0003
      7 C         -26.1550   -3.2320   30.0650 C.2     1  UNL1       -0.0026
      8 C         -25.3870   -0.6790   31.5710 C.3     1  UNL1        0.0951
      9 C         -25.1890    0.7730   32.0280 C.3     1  UNL1        0.0209
     10 C         -25.3360    0.6840   33.5440 C.3     1  UNL1        0.0203
     11 C         -24.8290   -0.7150   33.9050 C.3     1  UNL1        0.0888
     12 N         -24.7580   -1.4810   32.6460 N.3     1  UNL1       -0.2174
     13 C         -25.6880    1.6140   26.4610 C.3     1  UNL1        0.0732
     14 C         -26.2500    2.9200   26.3950 C.2     1  UNL1        0.0527
     15 C         -25.6420    4.0930   27.1230 C.2     1  UNL1        0.2179
     16 N         -25.6140    5.2520   26.4490 N.2     1  UNL1       -0.2359
     17 C         -25.0260    6.4790   26.9630 C.3     1  UNL1        0.1550
     18 O         -25.1430    3.9660   28.2430 O.2     1  UNL1       -0.4593
     19 C         -27.4380    3.0910   25.6450 C.2     1  UNL1        0.1022
     20 N         -28.0750    2.0890   25.0030 N.2     1  UNL1       -0.2119
     21 C         -27.5430    0.8490   25.0790 C.2     1  UNL1        0.2341
     22 O         -28.1930   -0.2080   24.4770 O.2     1  UNL1       -0.4585
     23 C         -29.4600    0.0050   23.8660 C.3     1  UNL1        0.2423
     24 C         -30.0650   -1.3770   23.5730 C.3     1  UNL1        0.2292
     25 O         -30.7290   -1.8780   24.7210 O.3     1  UNL1       -0.2162
     26 C         -26.3540    0.5760   25.7770 C.3     1  UNL1        0.2401
     27 F         -25.8600   -0.6810   25.7950 F       1  UNL1       -0.2269
     28 F         -26.1178    3.3056   31.3825 F       1  UNL1       -0.2264
     29 C         -26.2343    3.8828   30.1732 C.3     1  UNL1        0.2450
     30 C         -23.4845    1.9713   27.0869 C.3     1  UNL1        0.1235
     31 O         -25.0154    5.8513   30.4669 O.2     1  UNL1       -0.2715
     32 C         -22.5728    1.2409   27.9345 C.3     1  UNL1        0.2513
     33 C         -27.1279    7.4927   31.1535 C.3     1  UNL1        0.1223
     34 F         -29.4897    6.4763   29.7993 F       1  UNL1       -0.1864
     35 C         -26.1187    5.3463   30.4246 C.2     1  UNL1        0.2646
     36 C         -27.4797    3.5529   29.5849 C.3     1  UNL1        0.0938
     37 C         -28.3738    5.7544   29.9405 C.2     1  UNL1        0.2106
     38 C         -22.9455    0.4564   29.0959 C.2     1  UNL1        0.2599
     39 C         -28.4821    4.4634   29.3969 C.2     1  UNL1        0.1119
     40 N         -29.5751    4.1255   28.6971 N.pl3   1  UNL1       -0.1289
     41 C         -25.2093    3.0736   29.2031 C.3     1  UNL1        0.2238
     42 C         -24.6241    1.3484   27.5151 C.3     1  UNL1        0.0476
     43 N         -27.2427    6.1832   30.5039 N.am    1  UNL1       -0.2310
     44 CL        -22.7591    2.6637   25.5111 Cl      1  UNL1       -0.1115
     45 F         -21.2575    1.5344   27.8042 F       1  UNL1       -0.2260
     46 O         -22.2541   -0.3631   29.7018 O.2     1  UNL1       -0.2719
     47 N         -24.3719    0.3211   29.4208 N.am    1  UNL1       -0.2717
     48 C         -25.1299    1.5257   28.7264 C.3     1  UNL1        0.1205
@<TRIPOS>BOND
     1     1     2    1
     2     2     7    1
     3     3     2    2
     4     4     3    1
     5     4     5    2
     6     5     6    1
     7     6     7    2
     8     8     1    1
     9     8     9    1
    10     8    12    1
    11     9    10    1
    12    10    11    1
    13    12    11    1
    14    13    14    1
    15    13    42    1
    16    14    15    1
    17    15    18    1
    18    16    17    1
    19    16    15    2
    20    19    14    2
    21    20    21    2
    22    20    19    1
    23    21    26    1
    24    22    21    1
    25    23    22    1
    26    24    23    1
    27    24    25    1
    28    26    27    1
    29    26    13    1
    30    29    35    1
    31    29    28    1
    32    30    44    1
    33    30    42    1
    34    30    32    1
    35    32    45    1
    36    32    38    1
    37    34    37    1
    38    35    31    2
    39    35    43   am
    40    36    29    1
    41    37    43    1
    42    38    47   am
    43    38    46    2
    44    39    36    1
    45    39    37    2
    46    40    39    1
    47    41    18    1
    48    41    29    1
    49    42    48    1
    50    43    33    1
    51    47     1    1
    52    48    41    1
    53    48    47    1
