@<TRIPOS>MOLECULE
outputs/IAG933/test6/raw/output_2301_IAG933_linker_design_.xyz
 45 48 0 0 0
SMALL
GASTEIGER

@<TRIPOS>ATOM
      1 C         -24.8550   -1.0120   30.1430 C.2     1  UNL1        0.0349
      2 C         -24.9730   -2.5050   29.7880 C.2     1  UNL1        0.0046
      3 C         -23.9060   -3.1730   29.1460 C.2     1  UNL1        0.0003
      4 C         -23.9890   -4.5490   28.8530 C.2     1  UNL1        0.0000
      5 C         -25.1370   -5.2800   29.2050 C.2     1  UNL1        0.0000
      6 C         -26.2320   -4.6110   29.7840 C.2     1  UNL1        0.0000
      7 C         -26.1550   -3.2320   30.0650 C.2     1  UNL1        0.0003
      8 C         -25.3870   -0.6790   31.5710 C.3     1  UNL1        0.1022
      9 C         -25.1890    0.7730   32.0280 C.3     1  UNL1        0.0240
     10 C         -25.3360    0.6840   33.5440 C.3     1  UNL1        0.0206
     11 C         -24.8290   -0.7150   33.9050 C.3     1  UNL1        0.0891
     12 N         -24.7580   -1.4810   32.6460 N.3     1  UNL1       -0.2144
     13 C         -25.6880    1.6140   26.4610 C.3     1  UNL1        0.1173
     14 C         -26.2500    2.9200   26.3950 C.2     1  UNL1        0.0589
     15 C         -25.6420    4.0930   27.1230 C.2     1  UNL1        0.2626
     16 N         -25.6140    5.2520   26.4490 N.am    1  UNL1       -0.2000
     17 C         -25.0260    6.4790   26.9630 C.3     1  UNL1        0.1388
     18 O         -25.1430    3.9660   28.2430 O.2     1  UNL1       -0.2687
     19 C         -27.4380    3.0910   25.6450 C.2     1  UNL1        0.1023
     20 N         -28.0750    2.0890   25.0030 N.2     1  UNL1       -0.2119
     21 C         -27.5430    0.8490   25.0790 C.2     1  UNL1        0.2342
     22 O         -28.1930   -0.2080   24.4770 O.2     1  UNL1       -0.4585
     23 C         -29.4600    0.0050   23.8660 C.3     1  UNL1        0.2423
     24 C         -30.0650   -1.3770   23.5730 C.3     1  UNL1        0.2292
     25 O         -30.7290   -1.8780   24.7210 O.3     1  UNL1       -0.2162
     26 C         -26.3540    0.5760   25.7770 C.3     1  UNL1        0.2440
     27 F         -25.8600   -0.6810   25.7950 F       1  UNL1       -0.2267
     28 C         -21.4253    1.3120   27.5042 C.3     1  UNL1        0.1248
     29 C         -29.7877    5.9285   31.5451 C.3     1  UNL1        0.0215
     30 C         -22.6192    0.7013   28.1860 C.2     1  UNL1        0.3143
     31 N         -28.3573    1.8379   30.0134 N.am    1  UNL1       -0.1989
     32 N         -26.4123    1.2458   28.8929 N.am    1  UNL1        0.0532
     33 C         -24.1747    1.6924   26.4075 C.3     1  UNL1        0.2184
     34 C         -27.6006    0.6684   29.4024 C.2     1  UNL1        0.4431
     35 C         -25.0253    0.7062   28.6063 C.2     1  UNL1        0.3623
     36 C         -24.9968   -0.1729   29.2614 C.1     1  UNL1       -0.0189
     37 C         -29.4250    1.5904   30.8217 C.2     1  UNL1        0.0886
     38 O         -22.4335    0.1973   29.2446 O.2     1  UNL1       -0.2467
     39 N         -23.9253    1.0984   27.7419 N.am    1  UNL1       -0.1352
     40 C         -30.0262    2.7678   31.0562 C.2     1  UNL1        0.0791
     41 C         -31.2401    5.5881   31.8606 C.3     1  UNL1        0.0018
     42 N         -29.2931    3.7730   30.3568 N.pl3   1  UNL1       -0.2883
     43 C         -29.3667    5.2546   30.2333 C.3     1  UNL1        0.0924
     44 O         -27.8958   -0.4739   29.2899 O.2     1  UNL1       -0.2190
     45 C         -28.2816    3.0722   29.8273 C.3     1  UNL1        0.1982
@<TRIPOS>BOND
     1     2     7    1
     2     2     1    1
     3     3     2    2
     4     4     3    1
     5     4     5    2
     6     5     6    1
     7     6     7    2
     8     8     1    1
     9     8     9    1
    10     8    12    1
    11     9    10    1
    12    10    11    1
    13    12    11    1
    14    13    33    1
    15    14    13    1
    16    14    15    1
    17    15    18    2
    18    16    17    1
    19    16    15    1
    20    19    14    2
    21    20    21    2
    22    20    19    1
    23    21    26    1
    24    22    21    1
    25    23    22    1
    26    24    23    1
    27    24    25    1
    28    26    27    1
    29    26    13    1
    30    28    30    1
    31    29    41    1
    32    30    38    2
    33    31    37    1
    34    32    34    1
    35    33    39    1
    36    34    31   am
    37    35    32    1
    38    35    36    2
    39    36     1    2
    40    37    40    2
    41    39    30   am
    42    39    35    1
    43    42    40    1
    44    43    42    1
    45    43    29    1
    46    44    34    2
    47    45    31    1
    48    45    42    1
