@<TRIPOS>MOLECULE
outputs/IAG933/test6/raw/output_2303_IAG933_linker_design_.xyz
 48 53 0 0 0
SMALL
GASTEIGER

@<TRIPOS>ATOM
      1 C         -24.8550   -1.0120   30.1430 C.3     1  UNL1        0.1157
      2 C         -24.9730   -2.5050   29.7880 C.2     1  UNL1       -0.0029
      3 C         -23.9060   -3.1730   29.1460 C.2     1  UNL1       -0.0026
      4 C         -23.9890   -4.5490   28.8530 C.2     1  UNL1       -0.0003
      5 C         -25.1370   -5.2800   29.2050 C.2     1  UNL1       -0.0000
      6 C         -26.2320   -4.6110   29.7840 C.2     1  UNL1       -0.0003
      7 C         -26.1550   -3.2320   30.0650 C.2     1  UNL1       -0.0026
      8 C         -25.3870   -0.6790   31.5710 C.3     1  UNL1        0.0952
      9 C         -25.1890    0.7730   32.0280 C.3     1  UNL1        0.0209
     10 C         -25.3360    0.6840   33.5440 C.3     1  UNL1        0.0203
     11 C         -24.8290   -0.7150   33.9050 C.3     1  UNL1        0.0888
     12 N         -24.7580   -1.4810   32.6460 N.3     1  UNL1       -0.2174
     13 C         -25.6880    1.6140   26.4610 C.3     1  UNL1        0.0828
     14 C         -26.2500    2.9200   26.3950 C.2     1  UNL1        0.0557
     15 C         -25.6420    4.0930   27.1230 C.2     1  UNL1        0.2625
     16 N         -25.6140    5.2520   26.4490 N.am    1  UNL1       -0.2000
     17 C         -25.0260    6.4790   26.9630 C.3     1  UNL1        0.1388
     18 O         -25.1430    3.9660   28.2430 O.2     1  UNL1       -0.2687
     19 C         -27.4380    3.0910   25.6450 C.2     1  UNL1        0.1022
     20 N         -28.0750    2.0890   25.0030 N.2     1  UNL1       -0.2119
     21 C         -27.5430    0.8490   25.0790 C.2     1  UNL1        0.2341
     22 O         -28.1930   -0.2080   24.4770 O.2     1  UNL1       -0.4585
     23 C         -29.4600    0.0050   23.8660 C.3     1  UNL1        0.2423
     24 C         -30.0650   -1.3770   23.5730 C.3     1  UNL1        0.2292
     25 O         -30.7290   -1.8780   24.7210 O.3     1  UNL1       -0.2162
     26 C         -26.3540    0.5760   25.7770 C.3     1  UNL1        0.2409
     27 F         -25.8600   -0.6810   25.7950 F       1  UNL1       -0.2269
     28 N         -28.3512    1.3383   30.2006 N.2     1  UNL1       -0.2252
     29 C         -23.2598    0.2957   29.1425 C.2     1  UNL1        0.2689
     30 C         -29.3101    4.3641   29.6946 C.2     1  UNL1       -0.0130
     31 C         -30.0163    3.1925   30.2302 C.3     1  UNL1        0.1108
     32 N         -26.6887    0.9070   28.7347 N.3     1  UNL1       -0.1769
     33 C         -27.7686    0.5514   29.3295 C.3     1  UNL1        0.1838
     34 C         -29.2742    4.4688   28.3179 C.2     1  UNL1       -0.0038
     35 C         -28.2098    6.4417   29.8222 C.2     1  UNL1       -0.0003
     36 O         -29.7799    1.4675   28.3916 O.2     1  UNL1       -0.4631
     37 C         -29.4562    1.9944   29.7261 C.2     1  UNL1        0.2014
     38 C         -21.2148    1.4600   27.4284 C.3     1  UNL1        0.0679
     39 N         -24.5426   -0.0553   29.2992 N.am    1  UNL1       -0.2545
     40 C         -28.6204   -0.6311   28.9070 C.3     1  UNL1        0.0899
     41 S         -22.9709    1.1223   27.6290 S.3     1  UNL1       -0.1013
     42 C         -28.7940    5.6118   27.6320 C.2     1  UNL1       -0.0003
     43 C         -28.2725    6.6031   28.4421 C.2     1  UNL1       -0.0000
     44 C         -24.8074    1.1731   27.4704 C.3     1  UNL1        0.0893
     45 C         -28.7042    5.2999   30.4793 C.2     1  UNL1       -0.0038
     46 C         -25.4099    0.6563   28.5736 C.3     1  UNL1        0.1623
     47 C         -29.6498    0.0525   28.0510 C.3     1  UNL1        0.2103
     48 O         -22.3777    0.1318   29.9938 O.2     1  UNL1       -0.2635
@<TRIPOS>BOND
     1     1     2    1
     2     2     7    1
     3     3     2    2
     4     4     3    1
     5     4     5    2
     6     5     6    1
     7     6     7    2
     8     8     1    1
     9     8     9    1
    10     8    12    1
    11     9    10    1
    12    10    11    1
    13    12    11    1
    14    13    14    1
    15    14    15    1
    16    15    18    2
    17    16    17    1
    18    16    15    1
    19    19    14    2
    20    20    21    2
    21    20    19    1
    22    21    26    1
    23    22    21    1
    24    23    22    1
    25    24    23    1
    26    24    25    1
    27    26    27    1
    28    26    13    1
    29    29    39   am
    30    29    48    2
    31    30    31    1
    32    30    45    1
    33    33    32    1
    34    33    28    1
    35    34    30    2
    36    35    45    2
    37    36    37    1
    38    37    28    2
    39    37    31    1
    40    39     1    1
    41    40    33    1
    42    41    38    1
    43    41    29    1
    44    42    34    1
    45    42    43    2
    46    43    35    1
    47    44    13    1
    48    44    41    1
    49    44    46    1
    50    46    32    1
    51    46    39    1
    52    47    36    1
    53    47    40    1
