@<TRIPOS>MOLECULE
No_2307-gen_results/8p0m/2024-11-27-11-27-31/
 18 20 0 0 0
SMALL
GASTEIGER

@<TRIPOS>ATOM
      1 C         -28.0162   -0.8135   28.8779 C.ar    1  UNL1        0.0814
      2 C         -27.0636   -0.1189   28.6079 C.ar    1  UNL1        0.0177
      3 C         -25.7923   -0.4302   29.0761 C.ar    1  UNL1        0.0015
      4 C         -25.5756   -1.5654   29.9363 C.ar    1  UNL1        0.0001
      5 C         -26.7354   -2.3004   30.2173 C.ar    1  UNL1        0.0015
      6 C         -27.9184   -1.9537   29.7629 C.ar    1  UNL1        0.0191
      7 C         -27.1057    1.1023   27.7593 C.ar    1  UNL1        0.0031
      8 C         -27.8576    1.5309   27.2156 C.ar    1  UNL1        0.0207
      9 C         -29.2421    0.8816   27.2919 C.ar    1  UNL1        0.1156
     10 C         -30.1363    1.1221   26.2917 C.ar    1  UNL1        0.1629
     11 C         -29.8995    2.2403   25.4307 C.ar    1  UNL1        0.0391
     12 C         -28.7143    2.9514   25.3572 C.ar    1  UNL1        0.0032
     13 C         -27.7288    2.5759   26.1326 C.ar    1  UNL1        0.0017
     14 N         -29.2365   -0.2889   28.2437 N.ar    1  UNL1       -0.2423
     15 O         -31.3794    0.7304   26.3598 O.3     1  UNL1       -0.4492
     16 C         -32.2283    0.8500   27.2865 C.2     1  UNL1        0.1750
     17 C         -32.4078    1.8575   27.8514 C.2     1  UNL1        0.0148
     18 C         -33.3701    2.0303   29.0022 C.3     1  UNL1        0.0341
@<TRIPOS>BOND
     1    10    15    1
     2    15    16    1
     3    16    17    2
     4    17    18    1
     5     2     3   ar
     6     3     4   ar
     7     4     5   ar
     8     5     6   ar
     9     6     1   ar
    10     9    10   ar
    11    10    11   ar
    12    11    12   ar
    13    12    13   ar
    14    13     8   ar
    15     1     2   ar
    16     2     7   ar
    17     7     8   ar
    18     8     9   ar
    19     9    14   ar
    20    14     1   ar
