@<TRIPOS>MOLECULE
No_2311-gen_results/8p0m/2024-11-27-11-27-31/
 19 19 0 0 0
SMALL
GASTEIGER

@<TRIPOS>ATOM
      1 C         -28.0162   -0.8135   28.8779 C.ar    1  UNL1       -0.0043
      2 C         -27.0636   -0.1190   28.6079 C.ar    1  UNL1       -0.0219
      3 C         -26.9287    1.1713   29.0083 C.ar    1  UNL1       -0.0043
      4 C         -27.9560    1.7411   29.7840 C.ar    1  UNL1       -0.0003
      5 C         -29.0569   -0.3271   29.7466 C.ar    1  UNL1       -0.0003
      6 C         -28.9828    0.9722   30.1516 C.ar    1  UNL1       -0.0000
      7 C         -25.8907   -0.6263   27.7857 C.3     1  UNL1        0.0304
      8 C         -25.4633    0.1123   26.6815 C.3     1  UNL1        0.0264
      9 C         -25.0310   -1.6701   28.2406 C.3     1  UNL1        0.0267
     10 C         -24.3963   -1.7192   29.4773 C.2     1  UNL1       -0.0439
     11 C         -23.7186   -2.6927   29.8730 C.2     1  UNL1       -0.0091
     12 C         -24.8852   -0.8794   30.5290 C.3     1  UNL1        0.0220
     13 C         -24.0666   -0.6194   31.7189 C.3     1  UNL1        0.0043
     14 C         -23.4384    0.4613   31.7920 C.3     1  UNL1        0.0003
     15 C         -26.1552   -0.0005   25.4459 C.3     1  UNL1        0.0050
     16 C         -24.8934    1.4164   26.7811 C.2     1  UNL1       -0.0261
     17 C         -23.8628    1.8901   26.5281 C.2     1  UNL1       -0.0046
     18 C         -23.2976    3.2148   26.7476 C.2     1  UNL1       -0.0003
     19 C         -24.3472    4.1166   27.1422 C.2     1  UNL1       -0.0000
@<TRIPOS>BOND
     1     2     7    1
     2     7     8    1
     3     7     9    1
     4     9    10    1
     5    10    11    2
     6    10    12    1
     7    12    13    1
     8    13    14    1
     9     8    15    1
    10     8    16    1
    11    16    17    2
    12    17    18    1
    13    18    19    2
    14     1     2   ar
    15     2     3   ar
    16     3     4   ar
    17     4     6   ar
    18     6     5   ar
    19     5     1   ar
