@<TRIPOS>MOLECULE
outputs/IAG933/test6/raw/output_2316_IAG933_linker_design_.xyz
 43 46 0 0 0
SMALL
GASTEIGER

@<TRIPOS>ATOM
      1 C         -24.8550   -1.0120   30.1430 C.3     1  UNL1        0.0438
      2 C         -24.9730   -2.5050   29.7880 C.2     1  UNL1       -0.0208
      3 C         -23.9060   -3.1730   29.1460 C.2     1  UNL1       -0.0042
      4 C         -23.9890   -4.5490   28.8530 C.2     1  UNL1       -0.0003
      5 C         -25.1370   -5.2800   29.2050 C.2     1  UNL1       -0.0000
      6 C         -26.2320   -4.6110   29.7840 C.2     1  UNL1       -0.0003
      7 C         -26.1550   -3.2320   30.0650 C.2     1  UNL1       -0.0042
      8 C         -25.3870   -0.6790   31.5710 C.3     1  UNL1        0.0788
      9 C         -25.1890    0.7730   32.0280 C.3     1  UNL1        0.0380
     10 C         -25.3360    0.6840   33.5440 C.3     1  UNL1        0.0219
     11 C         -24.8290   -0.7150   33.9050 C.3     1  UNL1        0.0888
     12 N         -24.7580   -1.4810   32.6460 N.3     1  UNL1       -0.2191
     13 C         -25.6880    1.6140   26.4610 C.2     1  UNL1        0.1217
     14 C         -26.2500    2.9200   26.3950 C.2     1  UNL1        0.0930
     15 C         -25.6420    4.0930   27.1230 C.2     1  UNL1        0.2677
     16 N         -25.6140    5.2520   26.4490 N.am    1  UNL1       -0.1997
     17 C         -25.0260    6.4790   26.9630 C.3     1  UNL1        0.1388
     18 O         -25.1430    3.9660   28.2430 O.2     1  UNL1       -0.2683
     19 C         -27.4380    3.0910   25.6450 C.2     1  UNL1        0.1081
     20 N         -28.0750    2.0890   25.0030 N.2     1  UNL1       -0.2080
     21 C         -27.5430    0.8490   25.0790 C.2     1  UNL1        0.2547
     22 O         -28.1930   -0.2080   24.4770 O.2     1  UNL1       -0.4558
     23 C         -29.4600    0.0050   23.8660 C.3     1  UNL1        0.2426
     24 C         -30.0650   -1.3770   23.5730 C.3     1  UNL1        0.2292
     25 O         -30.7290   -1.8780   24.7210 O.3     1  UNL1       -0.2162
     26 C         -26.3540    0.5760   25.7770 C.2     1  UNL1        0.2093
     27 F         -25.8600   -0.6810   25.7950 F       1  UNL1       -0.1978
     28 C         -23.6152    1.7828   29.2948 C.3     1  UNL1        0.1094
     29 C         -22.0775    1.4463   27.3351 C.3     1  UNL1        0.1142
     30 C         -26.1904    6.2330   31.6268 C.2     1  UNL1        0.1401
     31 C         -23.0250    2.3752   25.3295 C.3     1  UNL1        0.1129
     32 N         -21.9894   -0.0117   29.5431 N.3     1  UNL1       -0.1299
     33 C         -25.3603    5.6585   32.5920 C.2     1  UNL1        0.0294
     34 N         -24.1387    2.0613   30.3516 N.3     1  UNL1       -0.2134
     35 F         -26.2968    7.5784   31.6025 F       1  UNL1       -0.2042
     36 N         -24.5116    1.3012   26.9801 N.pl3   1  UNL1       -0.1612
     37 C         -22.6721    0.8644   28.6781 C.3     1  UNL1        0.1268
     38 C         -25.1037    4.3025   32.6040 C.2     1  UNL1       -0.0006
     39 C         -24.9643    2.1343   31.3558 C.3     1  UNL1        0.0963
     40 C         -26.5808    3.9969   30.7118 C.2     1  UNL1       -0.0006
     41 C         -25.5911    3.4572   31.5828 C.2     1  UNL1       -0.0063
     42 N         -23.3254    2.0119   26.6847 N.3     1  UNL1       -0.1840
     43 C         -26.8202    5.4045   30.6609 C.2     1  UNL1        0.0294
@<TRIPOS>BOND
     1     2     7    1
     2     2     1    1
     3     3     2    2
     4     4     3    1
     5     4     5    2
     6     5     6    1
     7     6     7    2
     8     8     1    1
     9     8     9    1
    10     8    12    1
    11     9    39    1
    12     9    10    1
    13    10    11    1
    14    12    11    1
    15    13    36    1
    16    14    13    1
    17    14    15    1
    18    15    18    2
    19    16    17    1
    20    16    15    1
    21    19    14    2
    22    20    21    2
    23    20    19    1
    24    21    26    1
    25    22    21    1
    26    23    22    1
    27    24    23    1
    28    24    25    1
    29    26    27    1
    30    26    13    2
    31    28    34    1
    32    29    37    1
    33    30    33    1
    34    31    42    1
    35    33    38    2
    36    35    30    1
    37    37    28    1
    38    37    32    1
    39    39    34    1
    40    39    41    1
    41    40    41    2
    42    41    38    1
    43    42    36    1
    44    42    29    1
    45    43    40    1
    46    43    30    2
