@<TRIPOS>MOLECULE
outputs/IAG933/test6/raw/output_2319_IAG933_linker_design_.xyz
 40 44 0 0 0
SMALL
GASTEIGER

@<TRIPOS>ATOM
      1 C         -24.8550   -1.0120   30.1430 C.3     1  UNL1        0.0635
      2 C         -24.9730   -2.5050   29.7880 C.2     1  UNL1       -0.0193
      3 C         -23.9060   -3.1730   29.1460 C.2     1  UNL1       -0.0042
      4 C         -23.9890   -4.5490   28.8530 C.2     1  UNL1       -0.0003
      5 C         -25.1370   -5.2800   29.2050 C.2     1  UNL1       -0.0000
      6 C         -26.2320   -4.6110   29.7840 C.2     1  UNL1       -0.0003
      7 C         -26.1550   -3.2320   30.0650 C.2     1  UNL1       -0.0042
      8 C         -25.3870   -0.6790   31.5710 C.3     1  UNL1        0.0786
      9 C         -25.1890    0.7730   32.0280 C.3     1  UNL1        0.0193
     10 C         -25.3360    0.6840   33.5440 C.3     1  UNL1        0.0202
     11 C         -24.8290   -0.7150   33.9050 C.3     1  UNL1        0.0887
     12 N         -24.7580   -1.4810   32.6460 N.3     1  UNL1       -0.2191
     13 C         -25.6880    1.6140   26.4610 C.3     1  UNL1        0.0917
     14 C         -26.2500    2.9200   26.3950 C.2     1  UNL1        0.0587
     15 C         -25.6420    4.0930   27.1230 C.2     1  UNL1        0.2627
     16 N         -25.6140    5.2520   26.4490 N.am    1  UNL1       -0.2000
     17 C         -25.0260    6.4790   26.9630 C.3     1  UNL1        0.1388
     18 O         -25.1430    3.9660   28.2430 O.2     1  UNL1       -0.2686
     19 C         -27.4380    3.0910   25.6450 C.2     1  UNL1        0.1025
     20 N         -28.0750    2.0890   25.0030 N.2     1  UNL1       -0.2118
     21 C         -27.5430    0.8490   25.0790 C.2     1  UNL1        0.2344
     22 O         -28.1930   -0.2080   24.4770 O.2     1  UNL1       -0.4585
     23 C         -29.4600    0.0050   23.8660 C.3     1  UNL1        0.2423
     24 C         -30.0650   -1.3770   23.5730 C.3     1  UNL1        0.2292
     25 O         -30.7290   -1.8780   24.7210 O.3     1  UNL1       -0.2162
     26 C         -26.3540    0.5760   25.7770 C.3     1  UNL1        0.2438
     27 F         -25.8600   -0.6810   25.7950 F       1  UNL1       -0.2265
     28 O         -21.9497    1.9341   26.1738 O.3     1  UNL1       -0.3432
     29 O         -21.5687   -1.1121   29.1021 O.3     1  UNL1       -0.3225
     30 C         -23.5315    0.8502   27.4019 C.2     1  UNL1        0.0677
     31 C         -22.5325   -0.3775   30.0038 C.3     1  UNL1        0.2988
     32 C         -20.8352   -0.3459   28.4623 C.3     1  UNL1        0.1831
     33 F         -19.9347    1.8664   27.8142 F       1  UNL1       -0.2315
     34 C         -23.6650   -0.3004   29.5341 C.3     1  UNL1        0.1588
     35 C         -23.2881    2.1048   25.6392 C.3     1  UNL1        0.1663
     36 N         -24.1301   -0.0294   28.2548 N.pl3   1  UNL1       -0.2359
     37 F         -22.4462    0.8669   29.9815 F       1  UNL1       -0.2021
     38 C         -24.2332    1.5109   26.5406 C.2     1  UNL1        0.0054
     39 C         -20.9254    0.9633   28.1930 C.3     1  UNL1        0.2228
     40 C         -22.0989    1.2395   27.2978 C.3     1  UNL1        0.1868
@<TRIPOS>BOND
     1     1     2    1
     2     2     7    1
     3     3     2    2
     4     4     3    1
     5     4     5    2
     6     5     6    1
     7     6     7    2
     8     8     1    1
     9     8     9    1
    10     8    12    1
    11     9    10    1
    12    10    11    1
    13    12    11    1
    14    13    38    1
    15    14    13    1
    16    14    15    1
    17    15    18    2
    18    16    17    1
    19    16    15    1
    20    19    14    2
    21    20    21    2
    22    20    19    1
    23    21    26    1
    24    22    21    1
    25    23    22    1
    26    24    23    1
    27    24    25    1
    28    26    27    1
    29    26    13    1
    30    29    31    1
    31    30    36    1
    32    31    37    1
    33    32    29    1
    34    34    31    1
    35    34     1    1
    36    35    28    1
    37    35    38    1
    38    36    34    1
    39    38    30    2
    40    39    33    1
    41    39    32    1
    42    40    28    1
    43    40    30    1
    44    40    39    1
