@<TRIPOS>MOLECULE
outputs/IAG933/test6/raw/output_2321_IAG933_linker_design_.xyz
 47 50 0 0 0
SMALL
GASTEIGER

@<TRIPOS>ATOM
      1 C         -24.8550   -1.0120   30.1430 C.3     1  UNL1        0.0626
      2 C         -24.9730   -2.5050   29.7880 C.2     1  UNL1       -0.0191
      3 C         -23.9060   -3.1730   29.1460 C.2     1  UNL1       -0.0042
      4 C         -23.9890   -4.5490   28.8530 C.2     1  UNL1       -0.0003
      5 C         -25.1370   -5.2800   29.2050 C.2     1  UNL1       -0.0000
      6 C         -26.2320   -4.6110   29.7840 C.2     1  UNL1       -0.0003
      7 C         -26.1550   -3.2320   30.0650 C.2     1  UNL1       -0.0042
      8 C         -25.3870   -0.6790   31.5710 C.3     1  UNL1        0.0788
      9 C         -25.1890    0.7730   32.0280 C.3     1  UNL1        0.0193
     10 C         -25.3360    0.6840   33.5440 C.3     1  UNL1        0.0202
     11 C         -24.8290   -0.7150   33.9050 C.3     1  UNL1        0.0887
     12 N         -24.7580   -1.4810   32.6460 N.3     1  UNL1       -0.2191
     13 C         -25.6880    1.6140   26.4610 C.2     1  UNL1        0.0408
     14 C         -26.2500    2.9200   26.3950 C.2     1  UNL1        0.0791
     15 C         -25.6420    4.0930   27.1230 C.2     1  UNL1        0.2765
     16 N         -25.6140    5.2520   26.4490 N.2     1  UNL1       -0.2318
     17 C         -25.0260    6.4790   26.9630 C.3     1  UNL1        0.1551
     18 O         -25.1430    3.9660   28.2430 O.2     1  UNL1       -0.2670
     19 C         -27.4380    3.0910   25.6450 C.2     1  UNL1        0.1069
     20 N         -28.0750    2.0890   25.0030 N.2     1  UNL1       -0.2081
     21 C         -27.5430    0.8490   25.0790 C.2     1  UNL1        0.2533
     22 O         -28.1930   -0.2080   24.4770 O.2     1  UNL1       -0.4558
     23 C         -29.4600    0.0050   23.8660 C.3     1  UNL1        0.2426
     24 C         -30.0650   -1.3770   23.5730 C.3     1  UNL1        0.2292
     25 O         -30.7290   -1.8780   24.7210 O.3     1  UNL1       -0.2162
     26 C         -26.3540    0.5760   25.7770 C.2     1  UNL1        0.1931
     27 F         -25.8600   -0.6810   25.7950 F       1  UNL1       -0.1992
     28 C         -26.7434    3.5879   30.7263 C.3     1  UNL1        0.2816
     29 N         -22.0955   -0.3770   29.8746 N.pl3   1  UNL1       -0.1282
     30 C         -21.9203    1.8216   26.8632 C.2     1  UNL1        0.0046
     31 C         -21.5571    0.8858   27.8652 C.2     1  UNL1        0.0180
     32 C         -28.8497    1.4288   29.0323 C.3     1  UNL1        0.1084
     33 O         -28.2781   -0.8746   29.2690 O.2     1  UNL1       -0.2733
     34 N         -28.7202    5.1819   28.4467 N.am    1  UNL1       -0.0691
     35 O         -29.2615    5.4622   30.5850 O.2     1  UNL1       -0.2490
     36 C         -27.8541    0.2716   29.1895 C.2     1  UNL1        0.2434
     37 N         -26.5216    0.6957   29.0929 N.am    1  UNL1       -0.2021
     38 C         -23.8865    0.8593   28.7250 C.2     1  UNL1        0.0535
     39 C         -22.4980    0.4752   28.8315 C.2     1  UNL1        0.0898
     40 C         -28.8510    2.3960   30.2241 C.3     1  UNL1        0.1071
     41 N         -28.0285    3.6324   30.0610 N.am    1  UNL1       -0.2329
     42 C         -23.1817    2.4121   27.0261 C.2     1  UNL1        0.0418
     43 C         -25.1258   -0.0184   28.9947 C.3     1  UNL1        0.1271
     44 O         -24.5053    3.0943   28.8360 O.2     1  UNL1       -0.2853
     45 C         -28.6826    4.7802   29.7207 C.2     1  UNL1        0.3448
     46 C         -23.9287    2.0876   28.1911 C.2     1  UNL1        0.1947
     47 O         -26.0723    4.8077   30.8313 O.3     1  UNL1       -0.1958
@<TRIPOS>BOND
     1     1    43    1
     2     2     7    1
     3     2     1    1
     4     3     2    2
     5     4     3    1
     6     4     5    2
     7     5     6    1
     8     6     7    2
     9     8     1    1
    10     8     9    1
    11     8    12    1
    12     9    10    1
    13    10    11    1
    14    12    11    1
    15    14    13    1
    16    14    15    1
    17    15    18    1
    18    16    17    1
    19    16    15    2
    20    18    44    1
    21    19    14    2
    22    20    21    2
    23    20    19    1
    24    21    26    1
    25    22    21    1
    26    23    22    1
    27    24    23    1
    28    24    25    1
    29    26    27    1
    30    26    13    2
    31    28    47    1
    32    30    42    2
    33    30    31    1
    34    31    39    2
    35    32    36    1
    36    32    40    1
    37    34    45    1
    38    36    33    2
    39    37    36    1
    40    38    39    1
    41    38    43    1
    42    39    29    1
    43    41    40    1
    44    41    28    1
    45    42    46    1
    46    43    37    1
    47    45    41   am
    48    45    35    2
    49    46    38    2
    50    46    44    1
