@<TRIPOS>MOLECULE
No_2322-gen_results/8p0m/2024-11-27-11-27-31/
 12 13 0 0 0
SMALL
GASTEIGER

@<TRIPOS>ATOM
      1 C         -28.0162   -0.8135   28.8779 C.ar    1  UNL1        0.0000
      2 C         -28.4690   -0.7850   29.8287 C.ar    1  UNL1        0.0000
      3 C         -28.1960    0.3478   28.0550 C.ar    1  UNL1        0.0000
      4 C         -27.4421    0.5100   26.7946 C.ar    1  UNL1        0.0000
      5 C         -27.8427    1.3330   25.8056 C.ar    1  UNL1        0.0000
      6 C         -29.4956    0.1092   30.3452 C.ar    1  UNL1        0.0000
      7 C         -29.7284    1.1870   29.5687 C.ar    1  UNL1        0.0000
      8 C         -29.0420    1.3665   28.3718 C.ar    1  UNL1        0.0000
      9 C         -26.1281   -0.0671   26.6257 C.ar    1  UNL1        0.0000
     10 C         -25.3186    0.2592   25.5799 C.ar    1  UNL1        0.0000
     11 C         -27.1242    1.5158   24.5577 C.ar    1  UNL1        0.0000
     12 C         -25.8297    0.9463   24.5295 C.ar    1  UNL1        0.0000
@<TRIPOS>BOND
     1     3     4    1
     2     4     5   ar
     3     5    11   ar
     4    11    12   ar
     5    12    10   ar
     6    10     9   ar
     7     9     4   ar
     8     1     2   ar
     9     2     6   ar
    10     6     7   ar
    11     7     8   ar
    12     8     3   ar
    13     3     1   ar
