@<TRIPOS>MOLECULE
No_2325-gen_results/8p0m/2024-11-27-11-27-31/
 14 16 0 0 0
SMALL
GASTEIGER

@<TRIPOS>ATOM
      1 C         -28.0162   -0.8135   28.8779 C.ar    1  UNL1        0.0000
      2 C         -27.0636   -0.1189   28.6079 C.ar    1  UNL1        0.0000
      3 C         -25.7923   -0.4302   29.0761 C.ar    1  UNL1        0.0000
      4 C         -25.5756   -1.5654   29.9363 C.ar    1  UNL1        0.0000
      5 C         -24.3722   -1.9422   30.4466 C.ar    1  UNL1        0.0000
      6 C         -27.9614   -1.9130   29.8182 C.ar    1  UNL1        0.0000
      7 C         -26.7388   -2.3048   30.3196 C.ar    1  UNL1        0.0000
      8 C         -23.2164   -0.9664   30.3235 C.ar    1  UNL1        0.0000
      9 C         -23.3919    0.1486   29.3972 C.ar    1  UNL1        0.0000
     10 C         -24.6334    0.4303   28.8389 C.ar    1  UNL1        0.0000
     11 C         -24.6507    1.5727   27.9615 C.ar    1  UNL1        0.0000
     12 C         -23.5778    1.7960   27.0915 C.ar    1  UNL1        0.0000
     13 C         -22.2570    1.5995   27.7248 C.ar    1  UNL1        0.0000
     14 C         -22.1369    0.6986   28.8462 C.ar    1  UNL1        0.0000
@<TRIPOS>BOND
     1     4     5   ar
     2     5     8   ar
     3     8     9   ar
     4    10     3   ar
     5     9    10   ar
     6    10    11   ar
     7    11    12   ar
     8    12    13   ar
     9    13    14   ar
    10    14     9   ar
    11     1     2   ar
    12     2     3   ar
    13     3     4   ar
    14     4     7   ar
    15     7     6   ar
    16     6     1   ar
