@<TRIPOS>MOLECULE
outputs/IAG933/test6/raw/output_2330_IAG933_linker_design_.xyz
 42 45 0 0 0
SMALL
GASTEIGER

@<TRIPOS>ATOM
      1 C         -24.8550   -1.0120   30.1430 C.3     1  UNL1        0.0583
      2 C         -24.9730   -2.5050   29.7880 C.2     1  UNL1       -0.0195
      3 C         -23.9060   -3.1730   29.1460 C.2     1  UNL1       -0.0042
      4 C         -23.9890   -4.5490   28.8530 C.2     1  UNL1       -0.0003
      5 C         -25.1370   -5.2800   29.2050 C.2     1  UNL1       -0.0000
      6 C         -26.2320   -4.6110   29.7840 C.2     1  UNL1       -0.0003
      7 C         -26.1550   -3.2320   30.0650 C.2     1  UNL1       -0.0042
      8 C         -25.3870   -0.6790   31.5710 C.3     1  UNL1        0.0785
      9 C         -25.1890    0.7730   32.0280 C.3     1  UNL1        0.0192
     10 C         -25.3360    0.6840   33.5440 C.3     1  UNL1        0.0202
     11 C         -24.8290   -0.7150   33.9050 C.3     1  UNL1        0.0887
     12 N         -24.7580   -1.4810   32.6460 N.3     1  UNL1       -0.2191
     13 C         -25.6880    1.6140   26.4610 C.3     1  UNL1        0.0940
     14 C         -26.2500    2.9200   26.3950 C.2     1  UNL1        0.0568
     15 C         -25.6420    4.0930   27.1230 C.2     1  UNL1        0.2625
     16 N         -25.6140    5.2520   26.4490 N.am    1  UNL1       -0.2000
     17 C         -25.0260    6.4790   26.9630 C.3     1  UNL1        0.1388
     18 O         -25.1430    3.9660   28.2430 O.2     1  UNL1       -0.2687
     19 C         -27.4380    3.0910   25.6450 C.2     1  UNL1        0.1022
     20 N         -28.0750    2.0890   25.0030 N.2     1  UNL1       -0.2119
     21 C         -27.5430    0.8490   25.0790 C.2     1  UNL1        0.2342
     22 O         -28.1930   -0.2080   24.4770 O.2     1  UNL1       -0.4585
     23 C         -29.4600    0.0050   23.8660 C.3     1  UNL1        0.2423
     24 C         -30.0650   -1.3770   23.5730 C.3     1  UNL1        0.2292
     25 O         -30.7290   -1.8780   24.7210 O.3     1  UNL1       -0.2162
     26 C         -26.3540    0.5760   25.7770 C.3     1  UNL1        0.2420
     27 F         -25.8600   -0.6810   25.7950 F       1  UNL1       -0.2268
     28 C         -21.3744   -0.4958   29.0085 C.3     1  UNL1        0.0972
     29 C         -27.4887    0.4278   29.1150 C.2     1  UNL1        0.2421
     30 O         -27.6887   -0.7829   28.9275 O.2     1  UNL1       -0.2733
     31 N         -23.2669    1.9487   26.4980 N.3     1  UNL1       -0.0941
     32 C         -24.1492    0.6409   28.2023 C.2     1  UNL1        0.0145
     33 N         -22.4328   -0.5077   29.7104 N.3     1  UNL1       -0.2144
     34 N         -26.3289    1.1771   28.8094 N.am    1  UNL1       -0.2025
     35 O         -21.0121    1.8460   26.2534 O.2     1  UNL1       -0.2896
     36 C         -22.9058    1.2039   27.3998 C.2     1  UNL1        0.1402
     37 C         -23.8483   -0.2253   29.3450 C.3     1  UNL1        0.0995
     38 O         -23.4850    2.4790   25.4137 O.3     1  UNL1       -0.0604
     39 C         -20.5492    0.5051   28.1615 C.3     1  UNL1        0.0896
     40 C         -21.5586    1.2669   27.2214 C.2     1  UNL1        0.1937
     41 C         -28.6257    1.1767   29.7331 C.3     1  UNL1        0.0964
     42 C         -25.3001    1.1565   27.8666 C.3     1  UNL1        0.1238
@<TRIPOS>BOND
     1     1     2    1
     2     2     7    1
     3     3     2    2
     4     4     3    1
     5     4     5    2
     6     5     6    1
     7     6     7    2
     8     8     1    1
     9     8     9    1
    10     8    12    1
    11     9    10    1
    12    10    11    1
    13    12    11    1
    14    13    42    1
    15    14    13    1
    16    14    15    1
    17    15    18    2
    18    16    17    1
    19    16    15    1
    20    19    14    2
    21    20    21    2
    22    20    19    1
    23    21    26    1
    24    22    21    1
    25    23    22    1
    26    24    23    1
    27    24    25    1
    28    26    27    1
    29    26    13    1
    30    28    33    1
    31    29    41    1
    32    30    29    2
    33    31    36    1
    34    32    37    1
    35    34    29    1
    36    35    40    2
    37    36    32    2
    38    37    33    1
    39    37     1    1
    40    38    31    1
    41    39    28    1
    42    40    36    1
    43    40    39    1
    44    42    32    1
    45    42    34    1
