@<TRIPOS>MOLECULE
outputs/IAG933/test6/raw/output_2331_IAG933_linker_design_.xyz
 43 47 0 0 0
SMALL
GASTEIGER

@<TRIPOS>ATOM
      1 C         -24.8550   -1.0120   30.1430 C.3     1  UNL1        0.2031
      2 C         -24.9730   -2.5050   29.7880 C.2     1  UNL1        0.0217
      3 C         -23.9060   -3.1730   29.1460 C.2     1  UNL1       -0.0004
      4 C         -23.9890   -4.5490   28.8530 C.2     1  UNL1       -0.0002
      5 C         -25.1370   -5.2800   29.2050 C.2     1  UNL1       -0.0000
      6 C         -26.2320   -4.6110   29.7840 C.2     1  UNL1       -0.0002
      7 C         -26.1550   -3.2320   30.0650 C.2     1  UNL1       -0.0004
      8 C         -25.3870   -0.6790   31.5710 C.3     1  UNL1        0.1201
      9 C         -25.1890    0.7730   32.0280 C.3     1  UNL1        0.0233
     10 C         -25.3360    0.6840   33.5440 C.3     1  UNL1        0.0204
     11 C         -24.8290   -0.7150   33.9050 C.3     1  UNL1        0.0889
     12 N         -24.7580   -1.4810   32.6460 N.3     1  UNL1       -0.2150
     13 C         -25.6880    1.6140   26.4610 C.2     1  UNL1        0.0473
     14 C         -26.2500    2.9200   26.3950 C.2     1  UNL1        0.0768
     15 C         -25.6420    4.0930   27.1230 C.2     1  UNL1        0.2664
     16 N         -25.6140    5.2520   26.4490 N.am    1  UNL1       -0.1997
     17 C         -25.0260    6.4790   26.9630 C.3     1  UNL1        0.1388
     18 O         -25.1430    3.9660   28.2430 O.2     1  UNL1       -0.2683
     19 C         -27.4380    3.0910   25.6450 C.2     1  UNL1        0.1067
     20 N         -28.0750    2.0890   25.0030 N.2     1  UNL1       -0.2081
     21 C         -27.5430    0.8490   25.0790 C.2     1  UNL1        0.2533
     22 O         -28.1930   -0.2080   24.4770 O.2     1  UNL1       -0.4558
     23 C         -29.4600    0.0050   23.8660 C.3     1  UNL1        0.2426
     24 C         -30.0650   -1.3770   23.5730 C.3     1  UNL1        0.2292
     25 O         -30.7290   -1.8780   24.7210 O.3     1  UNL1       -0.2162
     26 C         -26.3540    0.5760   25.7770 C.2     1  UNL1        0.1934
     27 F         -25.8600   -0.6810   25.7950 F       1  UNL1       -0.1992
     28 C         -29.6602   -0.1658   30.3225 C.2     1  UNL1        0.0036
     29 F         -21.0105    2.1822   27.2653 F       1  UNL1       -0.2017
     30 C         -22.0622    1.5292   27.6237 C.2     1  UNL1        0.1711
     31 C         -29.9201    1.1327   30.6784 C.2     1  UNL1        0.0002
     32 C         -22.9183   -0.2590   28.9488 C.2     1  UNL1        0.1783
     33 C         -29.0752    2.1496   30.3063 C.2     1  UNL1        0.0036
     34 C         -24.6630    1.3579   27.2762 C.2     1  UNL1        0.1127
     35 F         -23.0135    2.4510   25.7046 F       1  UNL1       -0.2015
     36 C         -28.5455   -0.4125   29.5252 C.2     1  UNL1        0.0444
     37 C         -27.9458    1.8830   29.5731 C.2     1  UNL1        0.0444
     38 C         -23.2630    1.8285   26.9379 C.2     1  UNL1        0.1745
     39 C         -27.6337    0.5800   29.1723 C.2     1  UNL1        0.1831
     40 N         -26.5169    0.2959   28.4400 N.pl3   1  UNL1       -0.0107
     41 C         -25.0916    0.6742   28.4680 C.2     1  UNL1        0.3208
     42 C         -21.9095    0.5217   28.5853 C.2     1  UNL1        0.0758
     43 N         -24.3752   -0.1319   29.0845 N.pl3   1  UNL1       -0.1673
@<TRIPOS>BOND
     1     1     2    1
     2     2     7    1
     3     3     2    2
     4     4     3    1
     5     4     5    2
     6     5     6    1
     7     6     7    2
     8     8     1    1
     9     8     9    1
    10     8    12    1
    11     9    10    1
    12    10    11    1
    13    12    11    1
    14    13    34    1
    15    14    13    1
    16    14    15    1
    17    15    18    2
    18    16    17    1
    19    16    15    1
    20    19    14    2
    21    20    21    2
    22    20    19    1
    23    21    26    1
    24    22    21    1
    25    23    22    1
    26    24    23    1
    27    24    25    1
    28    26    27    1
    29    26    13    2
    30    28    31    1
    31    29    30    1
    32    30    42    1
    33    32    43    1
    34    33    31    2
    35    34    41    2
    36    35    38    1
    37    36    28    2
    38    37    33    1
    39    38    34    1
    40    38    30    2
    41    39    36    1
    42    39    37    2
    43    40    41    1
    44    40    39    1
    45    41    43    1
    46    42    32    2
    47    43     1    1
