@<TRIPOS>MOLECULE
outputs/IAG933/test6/raw/output_2332_IAG933_linker_design_.xyz
 42 45 0 0 0
SMALL
GASTEIGER

@<TRIPOS>ATOM
      1 C         -24.8550   -1.0120   30.1430 C.3     1  UNL1        0.1183
      2 C         -24.9730   -2.5050   29.7880 C.2     1  UNL1       -0.0026
      3 C         -23.9060   -3.1730   29.1460 C.2     1  UNL1       -0.0026
      4 C         -23.9890   -4.5490   28.8530 C.2     1  UNL1       -0.0003
      5 C         -25.1370   -5.2800   29.2050 C.2     1  UNL1       -0.0000
      6 C         -26.2320   -4.6110   29.7840 C.2     1  UNL1       -0.0003
      7 C         -26.1550   -3.2320   30.0650 C.2     1  UNL1       -0.0026
      8 C         -25.3870   -0.6790   31.5710 C.3     1  UNL1        0.0955
      9 C         -25.1890    0.7730   32.0280 C.3     1  UNL1        0.0209
     10 C         -25.3360    0.6840   33.5440 C.3     1  UNL1        0.0203
     11 C         -24.8290   -0.7150   33.9050 C.3     1  UNL1        0.0888
     12 N         -24.7580   -1.4810   32.6460 N.3     1  UNL1       -0.2174
     13 C         -25.6880    1.6140   26.4610 C.3     1  UNL1        0.0792
     14 C         -26.2500    2.9200   26.3950 C.2     1  UNL1        0.0553
     15 C         -25.6420    4.0930   27.1230 C.2     1  UNL1        0.2625
     16 N         -25.6140    5.2520   26.4490 N.am    1  UNL1       -0.2000
     17 C         -25.0260    6.4790   26.9630 C.3     1  UNL1        0.1388
     18 O         -25.1430    3.9660   28.2430 O.2     1  UNL1       -0.2687
     19 C         -27.4380    3.0910   25.6450 C.2     1  UNL1        0.1022
     20 N         -28.0750    2.0890   25.0030 N.2     1  UNL1       -0.2119
     21 C         -27.5430    0.8490   25.0790 C.2     1  UNL1        0.2341
     22 O         -28.1930   -0.2080   24.4770 O.2     1  UNL1       -0.4585
     23 C         -29.4600    0.0050   23.8660 C.3     1  UNL1        0.2423
     24 C         -30.0650   -1.3770   23.5730 C.3     1  UNL1        0.2292
     25 O         -30.7290   -1.8780   24.7210 O.3     1  UNL1       -0.2162
     26 C         -26.3540    0.5760   25.7770 C.3     1  UNL1        0.2405
     27 F         -25.8600   -0.6810   25.7950 F       1  UNL1       -0.2269
     28 C         -23.6857    1.1206   27.3114 C.3     1  UNL1        0.0774
     29 F         -21.9695    2.5902   24.6079 F       1  UNL1       -0.1968
     30 C         -25.4724    0.8753   28.8155 C.2     1  UNL1        0.2302
     31 C         -24.9208    1.3322   27.4929 C.3     1  UNL1        0.0919
     32 C         -22.6490    1.5295   26.5236 C.3     1  UNL1        0.1457
     33 N         -24.8330    0.0596   29.1886 N.am    1  UNL1       -0.2497
     34 O         -22.1932   -1.3890   29.7529 O.2     1  UNL1       -0.2302
     35 N         -21.4613    1.7131   27.0123 N.3     1  UNL1       -0.2133
     36 O         -26.4168    1.3696   29.4480 O.2     1  UNL1       -0.2745
     37 C         -20.8978    1.0072   27.8992 C.3     1  UNL1        0.0889
     38 F         -23.5719    1.1628   24.3952 F       1  UNL1       -0.1968
     39 C         -22.8107    1.7946   25.1882 C.3     1  UNL1        0.3345
     40 C         -23.4983    0.1389   28.4561 C.2     1  UNL1        0.1085
     41 C         -20.2843    0.0424   28.5512 C.3     1  UNL1        0.0203
     42 C         -22.6489   -0.5297   29.1130 C.1     1  UNL1        0.1440
@<TRIPOS>BOND
     1     1     2    1
     2     2     7    1
     3     3     2    2
     4     4     3    1
     5     4     5    2
     6     5     6    1
     7     6     7    2
     8     8     1    1
     9     8     9    1
    10     8    12    1
    11     9    10    1
    12    10    11    1
    13    12    11    1
    14    13    14    1
    15    13    31    1
    16    14    15    1
    17    15    18    2
    18    16    17    1
    19    16    15    1
    20    19    14    2
    21    20    21    2
    22    20    19    1
    23    21    26    1
    24    22    21    1
    25    23    22    1
    26    24    23    1
    27    24    25    1
    28    26    27    1
    29    26    13    1
    30    28    32    1
    31    28    31    1
    32    28    40    1
    33    29    39    1
    34    30    33   am
    35    30    36    2
    36    31    30    1
    37    32    39    1
    38    32    35    1
    39    33     1    1
    40    35    37    1
    41    37    41    1
    42    38    39    1
    43    40    42    2
    44    40    33    1
    45    42    34    2
