@<TRIPOS>MOLECULE
outputs/IAG933/test6/raw/output_2333_IAG933_linker_design_.xyz
 45 49 0 0 0
SMALL
GASTEIGER

@<TRIPOS>ATOM
      1 C         -24.8550   -1.0120   30.1430 C.3     1  UNL1        0.0677
      2 C         -24.9730   -2.5050   29.7880 C.2     1  UNL1       -0.0168
      3 C         -23.9060   -3.1730   29.1460 C.2     1  UNL1       -0.0039
      4 C         -23.9890   -4.5490   28.8530 C.2     1  UNL1       -0.0003
      5 C         -25.1370   -5.2800   29.2050 C.2     1  UNL1       -0.0000
      6 C         -26.2320   -4.6110   29.7840 C.2     1  UNL1       -0.0003
      7 C         -26.1550   -3.2320   30.0650 C.2     1  UNL1       -0.0039
      8 C         -25.3870   -0.6790   31.5710 C.3     1  UNL1        0.0811
      9 C         -25.1890    0.7730   32.0280 C.3     1  UNL1        0.0195
     10 C         -25.3360    0.6840   33.5440 C.3     1  UNL1        0.0203
     11 C         -24.8290   -0.7150   33.9050 C.3     1  UNL1        0.0887
     12 N         -24.7580   -1.4810   32.6460 N.3     1  UNL1       -0.2188
     13 C         -25.6880    1.6140   26.4610 C.2     1  UNL1        0.0229
     14 C         -26.2500    2.9200   26.3950 C.2     1  UNL1        0.0730
     15 C         -25.6420    4.0930   27.1230 C.2     1  UNL1        0.2661
     16 N         -25.6140    5.2520   26.4490 N.am    1  UNL1       -0.1997
     17 C         -25.0260    6.4790   26.9630 C.3     1  UNL1        0.1388
     18 O         -25.1430    3.9660   28.2430 O.2     1  UNL1       -0.2683
     19 C         -27.4380    3.0910   25.6450 C.2     1  UNL1        0.1064
     20 N         -28.0750    2.0890   25.0030 N.2     1  UNL1       -0.2081
     21 C         -27.5430    0.8490   25.0790 C.2     1  UNL1        0.2530
     22 O         -28.1930   -0.2080   24.4770 O.2     1  UNL1       -0.4558
     23 C         -29.4600    0.0050   23.8660 C.3     1  UNL1        0.2426
     24 C         -30.0650   -1.3770   23.5730 C.3     1  UNL1        0.2292
     25 O         -30.7290   -1.8780   24.7210 O.3     1  UNL1       -0.2162
     26 C         -26.3540    0.5760   25.7770 C.2     1  UNL1        0.1895
     27 F         -25.8600   -0.6810   25.7950 F       1  UNL1       -0.1996
     28 N         -26.7437    3.6056   30.3861 N.am    1  UNL1       -0.1815
     29 C         -24.3255    0.4585   28.1602 C.2     1  UNL1        0.1237
     30 O         -27.5245   -0.6270   28.6621 O.2     1  UNL1       -0.2686
     31 C         -27.9927    3.2951   29.6490 C.2     1  UNL1        0.0726
     32 C         -28.3461    1.9136   29.2918 C.3     1  UNL1        0.1582
     33 O         -22.9678    0.4790   28.3458 O.2     1  UNL1       -0.4534
     34 C         -26.2823    4.7133   30.6843 C.2     1  UNL1        0.2497
     35 C         -27.1919    5.7794   30.6843 C.3     1  UNL1        0.1132
     36 C         -24.4659    1.2545   27.0840 C.3     1  UNL1        0.0881
     37 C         -23.2727    2.0198   26.6973 C.3     1  UNL1        0.0935
     38 C         -22.3969    1.4534   27.5650 C.3     1  UNL1        0.3276
     39 O         -25.0637    4.7554   30.8535 O.2     1  UNL1       -0.2726
     40 C         -28.7541    4.4189   29.3991 C.2     1  UNL1        0.0099
     41 N         -27.0448    1.4242   29.6896 N.am    1  UNL1       -0.1956
     42 C         -28.3962    5.6211   29.9924 C.2     1  UNL1       -0.0154
     43 C         -26.6721    0.1848   29.0427 C.2     1  UNL1        0.2641
     44 C         -25.2947   -0.1345   29.0821 C.2     1  UNL1        0.0680
     45 F         -21.0637    1.6912   27.5560 F       1  UNL1       -0.1886
@<TRIPOS>BOND
     1     1    44    1
     2     2     7    1
     3     2     1    1
     4     3     2    2
     5     4     3    1
     6     4     5    2
     7     5     6    1
     8     6     7    2
     9     8     1    1
    10     8     9    1
    11     8    12    1
    12     9    10    1
    13    10    11    1
    14    12    11    1
    15    14    13    1
    16    14    15    1
    17    15    18    2
    18    16    17    1
    19    16    15    1
    20    19    14    2
    21    20    21    2
    22    20    19    1
    23    21    26    1
    24    22    21    1
    25    23    22    1
    26    24    23    1
    27    24    25    1
    28    26    27    1
    29    26    13    2
    30    28    34    1
    31    29    33    1
    32    29    44    2
    33    30    43    2
    34    31    28    2
    35    32    31    1
    36    32    41    1
    37    34    39    2
    38    35    34    1
    39    36    13    1
    40    36    29    1
    41    37    36    1
    42    37    38    1
    43    38    45    1
    44    38    33    1
    45    40    31    1
    46    40    42    2
    47    42    35    1
    48    43    44    1
    49    43    41    1
