@<TRIPOS>MOLECULE
No_2335-gen_results/8p0m/2024-11-27-11-27-31/
 33 35 0 0 0
SMALL
GASTEIGER

@<TRIPOS>ATOM
      1 C         -28.0162   -0.8135   28.8779 C.ar    1  UNL1        0.0014
      2 C         -27.0636   -0.1190   28.6079 C.ar    1  UNL1       -0.0075
      3 C         -26.8756    1.1325   28.9134 C.ar    1  UNL1        0.0035
      4 C         -27.9014    1.8066   29.6436 C.ar    1  UNL1        0.0796
      5 C         -29.0458   -0.2316   29.7181 C.ar    1  UNL1        0.0535
      6 C         -28.9402    1.0517   30.0597 C.ar    1  UNL1        0.0111
      7 C         -25.8732   -0.7125   27.8045 C.3     1  UNL1        0.1011
      8 BR        -24.9425   -1.9906   28.4400 Br      1  UNL1       -0.0720
      9 C         -24.9607    0.2791   27.1537 C.ar    1  UNL1       -0.0105
     10 C         -24.9724    0.7309   26.1432 C.ar    1  UNL1       -0.0090
     11 C         -24.0219    1.7287   25.5725 C.ar    1  UNL1       -0.0032
     12 C         -23.0558    2.1559   26.5267 C.ar    1  UNL1       -0.0003
     13 C         -23.0818    1.6660   27.8491 C.ar    1  UNL1       -0.0003
     14 C         -24.0299    0.8010   28.2709 C.ar    1  UNL1       -0.0034
     15 C         -27.7315    3.2477   30.0355 C.2     1  UNL1        0.3877
     16 O         -27.8934    3.7864   30.9260 O.co2   1  UNL1       -0.2406
     17 O         -27.0579    3.8458   29.0022 O.co2   1  UNL1       -0.2406
     18 C         -30.2275   -1.0516   30.0957 C.2     1  UNL1        0.2491
     19 O         -31.0597   -1.1371   29.4941 O.2     1  UNL1       -0.2699
     20 N         -30.0418   -1.7201   31.3305 N.am    1  UNL1       -0.2726
     21 C         -28.9118   -1.6769   32.2737 C.3     1  UNL1        0.1152
     22 C         -31.1779   -2.5329   31.7989 C.3     1  UNL1        0.1152
     23 C         -25.8857    0.3468   25.0372 C.3     1  UNL1        0.0989
     24 N         -27.1991    0.3667   24.9247 N.3     1  UNL1       -0.2690
     25 C         -27.8561   -0.1834   24.0591 C.3     1  UNL1        0.0724
     26 C         -29.2459    0.1973   24.0312 C.3     1  UNL1        0.0194
     27 C         -29.3792    1.1474   25.0727 C.3     1  UNL1        0.0271
     28 C         -28.5919    1.5804   25.8777 C.3     1  UNL1        0.0194
     29 C         -27.5316    1.4409   25.9074 C.3     1  UNL1        0.0724
     30 C         -31.0675    1.3867   25.0975 C.3     1  UNL1        0.1252
     31 N         -31.5419    2.3638   25.7750 N.2     1  UNL1       -0.2735
     32 C         -30.9881    3.2931   26.1121 C.2     1  UNL1        0.0671
     33 C         -29.6990    3.5750   26.7678 C.3     1  UNL1        0.0529
@<TRIPOS>BOND
     1     2     7    1
     2     7     8    1
     3     7     9    1
     4     4    15    1
     5    15    16   ar
     6    15    17   ar
     7     5    18    1
     8    18    19    2
     9    18    20   am
    10    20    21    1
    11    20    22    1
    12    10    23    1
    13    23    24    1
    14    24    25    1
    15    26    27    1
    16    24    29    1
    17    28    29    1
    18    27    30    1
    19    30    31    1
    20    31    32    2
    21    32    33    1
    22    25    26    1
    23    27    28    1
    24     1     2   ar
    25     2     3   ar
    26     3     4   ar
    27     4     6   ar
    28     6     5   ar
    29     5     1   ar
    30     9    10   ar
    31    10    11   ar
    32    11    12   ar
    33    12    13   ar
    34    13    14   ar
    35    14     9   ar
