@<TRIPOS>MOLECULE
No_2336-gen_results/8p0m/2024-11-27-11-27-31/
 21 23 0 0 0
SMALL
GASTEIGER

@<TRIPOS>ATOM
      1 C         -28.0162   -0.8135   28.8779 C.ar    1  UNL1       -0.0042
      2 C         -28.4690   -0.7850   29.8287 C.ar    1  UNL1       -0.0003
      3 C         -27.1356    0.2359   28.5352 C.ar    1  UNL1       -0.0195
      4 C         -26.8745    1.2825   29.3982 C.ar    1  UNL1       -0.0042
      5 C         -28.3613    0.1987   30.9244 C.ar    1  UNL1       -0.0000
      6 C         -27.5277    1.2234   30.6356 C.ar    1  UNL1       -0.0003
      7 C         -26.3987    0.2949   27.2279 C.3     1  UNL1        0.0586
      8 C         -25.0392    0.2356   27.3538 C.3     1  UNL1        0.0249
      9 C         -27.0287    0.3958   26.0087 C.3     1  UNL1        0.1652
     10 C         -26.2725    0.3047   24.8644 C.3     1  UNL1        0.0356
     11 C         -24.3337    0.0777   28.6100 C.2     1  UNL1       -0.0418
     12 C         -22.9736    0.3726   28.5993 C.2     1  UNL1        0.0497
     13 C         -24.8599    0.2814   24.9322 C.3     1  UNL1        0.0032
     14 C         -24.2220    0.2692   26.1281 C.3     1  UNL1        0.0045
     15 C         -22.1042   -0.3966   29.4182 C.3     1  UNL1        0.0328
     16 C         -24.2415   -1.3875   29.1734 C.3     1  UNL1        0.0223
     17 C         -23.0402   -1.4736   29.8552 C.3     1  UNL1        0.0092
     18 F         -28.3238    0.3708   25.9262 F       1  UNL1       -0.2369
     19 C         -22.3631    1.6177   28.0729 C.2     1  UNL1        0.3832
     20 O         -23.0390    2.6621   27.8707 O.co2   1  UNL1       -0.2409
     21 O         -21.1283    1.6122   27.6749 O.co2   1  UNL1       -0.2409
@<TRIPOS>BOND
     1     3     7    1
     2     7     8    1
     3     7     9    1
     4     9    10    1
     5     8    11    1
     6    11    12    2
     7    10    13    1
     8     8    14    1
     9    13    14    1
    10    12    15    1
    11    11    16    1
    12    15    17    1
    13    16    17    1
    14     9    18    1
    15    12    19    1
    16    19    20   ar
    17    19    21   ar
    18     1     2   ar
    19     2     5   ar
    20     5     6   ar
    21     6     4   ar
    22     4     3   ar
    23     3     1   ar
