@<TRIPOS>MOLECULE
outputs/IAG933/test6/raw/output_2337_IAG933_linker_design_.xyz
 43 46 0 0 0
SMALL
GASTEIGER

@<TRIPOS>ATOM
      1 C         -24.8550   -1.0120   30.1430 C.3     1  UNL1        0.1155
      2 C         -24.9730   -2.5050   29.7880 C.2     1  UNL1       -0.0029
      3 C         -23.9060   -3.1730   29.1460 C.2     1  UNL1       -0.0026
      4 C         -23.9890   -4.5490   28.8530 C.2     1  UNL1       -0.0003
      5 C         -25.1370   -5.2800   29.2050 C.2     1  UNL1       -0.0000
      6 C         -26.2320   -4.6110   29.7840 C.2     1  UNL1       -0.0003
      7 C         -26.1550   -3.2320   30.0650 C.2     1  UNL1       -0.0026
      8 C         -25.3870   -0.6790   31.5710 C.3     1  UNL1        0.0952
      9 C         -25.1890    0.7730   32.0280 C.3     1  UNL1        0.0209
     10 C         -25.3360    0.6840   33.5440 C.3     1  UNL1        0.0203
     11 C         -24.8290   -0.7150   33.9050 C.3     1  UNL1        0.0888
     12 N         -24.7580   -1.4810   32.6460 N.3     1  UNL1       -0.2174
     13 C         -25.6880    1.6140   26.4610 C.3     1  UNL1        0.1446
     14 C         -26.2500    2.9200   26.3950 C.2     1  UNL1        0.0731
     15 C         -25.6420    4.0930   27.1230 C.2     1  UNL1        0.2640
     16 N         -25.6140    5.2520   26.4490 N.am    1  UNL1       -0.1999
     17 C         -25.0260    6.4790   26.9630 C.3     1  UNL1        0.1388
     18 O         -25.1430    3.9660   28.2430 O.2     1  UNL1       -0.2686
     19 C         -27.4380    3.0910   25.6450 C.2     1  UNL1        0.1038
     20 N         -28.0750    2.0890   25.0030 N.2     1  UNL1       -0.2118
     21 C         -27.5430    0.8490   25.0790 C.2     1  UNL1        0.2358
     22 O         -28.1930   -0.2080   24.4770 O.2     1  UNL1       -0.4585
     23 C         -29.4600    0.0050   23.8660 C.3     1  UNL1        0.2423
     24 C         -30.0650   -1.3770   23.5730 C.3     1  UNL1        0.2292
     25 O         -30.7290   -1.8780   24.7210 O.3     1  UNL1       -0.2162
     26 C         -26.3540    0.5760   25.7770 C.3     1  UNL1        0.2581
     27 F         -25.8600   -0.6810   25.7950 F       1  UNL1       -0.2251
     28 C         -24.3806    0.5744   28.3257 C.3     1  UNL1        0.1907
     29 C         -27.8063   -0.2138   28.7189 C.3     1  UNL1        0.1209
     30 C         -29.2168    0.3531   28.9153 C.3     1  UNL1        0.1938
     31 C         -22.4318    1.3561   27.4196 C.2     1  UNL1        0.1018
     32 N         -21.7302   -0.1527   29.0374 N.2     1  UNL1       -0.1456
     33 C         -29.7128    1.8114   28.9976 C.3     1  UNL1        0.2152
     34 C         -21.4452    0.7893   28.1732 C.2     1  UNL1        0.1334
     35 O         -30.1783   -0.4913   28.3295 O.3     1  UNL1       -0.2198
     36 C         -22.3626    2.0841   26.3011 C.1     1  UNL1        0.1031
     37 N         -25.3207    0.0219   29.1151 N.am    1  UNL1       -0.2567
     38 C         -26.6670    0.5993   29.0399 C.2     1  UNL1        0.2299
     39 O         -26.8236    1.8079   29.2049 O.2     1  UNL1       -0.2747
     40 C         -23.7193    1.0562   27.7896 C.2     1  UNL1        0.0757
     41 N         -22.3701    2.6647   25.2602 N.1     1  UNL1       -0.1907
     42 O         -30.8283    1.8914   29.8950 O.3     1  UNL1       -0.2176
     43 N         -24.6655    1.2948   27.4666 N.pl3   1  UNL1       -0.2835
@<TRIPOS>BOND
     1     1    37    1
     2     2     7    1
     3     2     1    1
     4     3     2    2
     5     4     3    1
     6     4     5    2
     7     5     6    1
     8     6     7    2
     9     8     1    1
    10     8     9    1
    11     8    12    1
    12     9    10    1
    13    10    11    1
    14    12    11    1
    15    13    43    1
    16    14    13    1
    17    14    15    1
    18    15    18    2
    19    16    17    1
    20    16    15    1
    21    19    14    2
    22    20    21    2
    23    20    19    1
    24    21    26    1
    25    22    21    1
    26    23    22    1
    27    24    23    1
    28    24    25    1
    29    26    27    1
    30    26    13    1
    31    28    37    1
    32    29    30    1
    33    29    38    1
    34    30    35    1
    35    30    33    1
    36    31    40    2
    37    31    34    1
    38    33    42    1
    39    34    32    2
    40    36    31    1
    41    38    37   am
    42    38    39    2
    43    40    28    1
    44    41    36    3
    45    43    40    1
    46    43    28    1
