@<TRIPOS>MOLECULE
No_2338-gen_results/8p0m/2024-11-27-11-27-31/
 11 12 0 0 0
SMALL
GASTEIGER

@<TRIPOS>ATOM
      1 O         -28.1229   -1.3353   28.4874 O.2     1  UNL1       -0.2730
      2 C         -27.0637   -0.8242   28.8687 C.2     1  UNL1        0.2461
      3 C         -25.9464   -1.0396   28.8492 C.3     1  UNL1        0.1128
      4 C         -24.7602   -0.1562   29.1644 C.ar    1  UNL1       -0.0153
      5 C         -23.3890   -0.4551   29.0162 C.ar    1  UNL1       -0.0040
      6 N         -27.2690    0.5956   29.5360 N.am    1  UNL1       -0.2003
      7 C         -26.3695    1.4538   29.8908 C.3     1  UNL1        0.1412
      8 C         -25.0371    1.1584   29.7204 C.ar    1  UNL1       -0.0040
      9 C         -22.4242    0.5076   28.7111 C.ar    1  UNL1       -0.0003
     10 C         -22.8527    1.8560   29.0285 C.ar    1  UNL1       -0.0003
     11 C         -24.0260    2.1449   29.6684 C.ar    1  UNL1       -0.0029
@<TRIPOS>BOND
     1     1     2    2
     2     2     3    1
     3     3     4    1
     4     2     6   am
     5     7     8    1
     6     7     6    1
     7     4     5   ar
     8     5     9   ar
     9     9    10   ar
    10    10    11   ar
    11    11     8   ar
    12     8     4   ar
