@<TRIPOS>MOLECULE
outputs/IAG933/test6/raw/output_234_IAG933_linker_design_.xyz
 43 46 0 0 0
SMALL
GASTEIGER

@<TRIPOS>ATOM
      1 C         -24.8550   -1.0120   30.1430 C.3     1  UNL1        0.0691
      2 C         -24.9730   -2.5050   29.7880 C.2     1  UNL1       -0.0189
      3 C         -23.9060   -3.1730   29.1460 C.2     1  UNL1       -0.0042
      4 C         -23.9890   -4.5490   28.8530 C.2     1  UNL1       -0.0003
      5 C         -25.1370   -5.2800   29.2050 C.2     1  UNL1       -0.0000
      6 C         -26.2320   -4.6110   29.7840 C.2     1  UNL1       -0.0003
      7 C         -26.1550   -3.2320   30.0650 C.2     1  UNL1       -0.0042
      8 C         -25.3870   -0.6790   31.5710 C.3     1  UNL1        0.0790
      9 C         -25.1890    0.7730   32.0280 C.3     1  UNL1        0.0193
     10 C         -25.3360    0.6840   33.5440 C.3     1  UNL1        0.0202
     11 C         -24.8290   -0.7150   33.9050 C.3     1  UNL1        0.0887
     12 N         -24.7580   -1.4810   32.6460 N.3     1  UNL1       -0.2191
     13 C         -25.6880    1.6140   26.4610 C.2     1  UNL1        0.0407
     14 C         -26.2500    2.9200   26.3950 C.2     1  UNL1        0.0748
     15 C         -25.6420    4.0930   27.1230 C.2     1  UNL1        0.2269
     16 N         -25.6140    5.2520   26.4490 N.2     1  UNL1       -0.2353
     17 C         -25.0260    6.4790   26.9630 C.3     1  UNL1        0.1550
     18 O         -25.1430    3.9660   28.2430 O.2     1  UNL1       -0.4351
     19 C         -27.4380    3.0910   25.6450 C.2     1  UNL1        0.1068
     20 N         -28.0750    2.0890   25.0030 N.2     1  UNL1       -0.2081
     21 C         -27.5430    0.8490   25.0790 C.2     1  UNL1        0.2533
     22 O         -28.1930   -0.2080   24.4770 O.2     1  UNL1       -0.4558
     23 C         -29.4600    0.0050   23.8660 C.3     1  UNL1        0.2426
     24 C         -30.0650   -1.3770   23.5730 C.3     1  UNL1        0.2292
     25 O         -30.7290   -1.8780   24.7210 O.3     1  UNL1       -0.2162
     26 C         -26.3540    0.5760   25.7770 C.2     1  UNL1        0.1931
     27 F         -25.8600   -0.6810   25.7950 F       1  UNL1       -0.1992
     28 C         -26.1484    3.5851   29.1373 C.2     1  UNL1        0.1620
     29 O         -23.8470    2.0870   29.4674 O.2     1  UNL1       -0.2482
     30 C         -28.7986    3.4694   29.9248 C.2     1  UNL1        0.0061
     31 C         -20.4771    1.1823   28.2233 C.3     1  UNL1        0.0513
     32 O         -28.9242    0.2512   28.1543 O.2     1  UNL1       -0.2666
     33 N         -29.3529    0.5640   30.3810 N.am    1  UNL1       -0.0837
     34 C         -21.9076    1.3326   27.7735 C.3     1  UNL1        0.2086
     35 C         -26.7247    4.7095   29.7961 C.2     1  UNL1        0.0389
     36 C         -23.9742    0.9589   29.0042 C.2     1  UNL1        0.3373
     37 C         -28.8713    0.9780   29.2463 C.2     1  UNL1        0.2855
     38 O         -22.8634    0.4453   28.2842 O.3     1  UNL1       -0.4473
     39 C         -28.1984    2.2715   29.3943 C.2     1  UNL1        0.0745
     40 N         -26.3116    0.6630   29.1478 N.pl3   1  UNL1       -0.2244
     41 C         -25.0278   -0.0174   28.9173 C.3     1  UNL1        0.1960
     42 C         -28.0984    4.6724   30.1871 C.2     1  UNL1        0.0034
     43 C         -26.7532    2.1307   29.2236 C.2     1  UNL1        0.1048
@<TRIPOS>BOND
     1     1    41    1
     2     2     7    1
     3     2     1    1
     4     3     2    2
     5     4     3    1
     6     4     5    2
     7     5     6    1
     8     6     7    2
     9     8     1    1
    10     8     9    1
    11     8    12    1
    12     9    10    1
    13    10    11    1
    14    12    11    1
    15    14    13    1
    16    14    15    1
    17    15    18    1
    18    16    17    1
    19    16    15    2
    20    18    28    1
    21    19    14    2
    22    20    21    2
    23    20    19    1
    24    21    26    1
    25    22    21    1
    26    23    22    1
    27    24    23    1
    28    24    25    1
    29    26    27    1
    30    26    13    2
    31    28    43    2
    32    28    35    1
    33    30    42    1
    34    32    37    2
    35    34    31    1
    36    34    38    1
    37    35    42    2
    38    36    29    2
    39    37    39    1
    40    37    33    1
    41    38    36    1
    42    39    30    2
    43    40    43    1
    44    41    36    1
    45    41    40    1
    46    43    39    1
