@<TRIPOS>MOLECULE
No_2341-gen_results/8p0m/2024-11-27-11-27-31/
 11 11 0 0 0
SMALL
GASTEIGER

@<TRIPOS>ATOM
      1 C         -28.0162   -0.8135   28.8779 C.ar    1  UNL1        0.0384
      2 C         -28.4690   -0.7850   29.8287 C.ar    1  UNL1        0.1455
      3 C         -26.5042   -0.7777   28.8766 C.ar    1  UNL1        0.0145
      4 C         -25.9150   -0.6580   29.9230 C.ar    1  UNL1        0.0579
      5 C         -27.9537   -0.7071   31.0412 C.ar    1  UNL1        0.0384
      6 C         -26.5877   -0.6326   31.1651 C.ar    1  UNL1        0.0145
      7 CL        -24.1785   -0.5632   30.0193 Cl      1  UNL1       -0.0822
      8 O         -29.9479   -0.8830   29.8005 O.3     1  UNL1       -0.4508
      9 C         -30.6130   -1.7961   30.3933 C.2     1  UNL1        0.1750
     10 C         -30.3594   -2.7115   30.8805 C.2     1  UNL1        0.0148
     11 C         -31.2094   -3.7827   31.4422 C.3     1  UNL1        0.0341
@<TRIPOS>BOND
     1     4     7    1
     2     2     8    1
     3     8     9    1
     4     9    10    2
     5    10    11    1
     6     1     2   ar
     7     2     5   ar
     8     5     6   ar
     9     6     4   ar
    10     4     3   ar
    11     3     1   ar
