@<TRIPOS>MOLECULE
No_2342-gen_results/8p0m/2024-11-27-11-27-31/
 19 20 0 0 0
SMALL
GASTEIGER

@<TRIPOS>ATOM
      1 F         -28.0727   -1.2542   28.5316 F       1  UNL1       -0.1994
      2 C         -27.0607   -0.6291   28.8721 C.ar    1  UNL1        0.1945
      3 C         -26.1528   -1.1557   29.4537 C.ar    1  UNL1        0.1719
      4 C         -24.8778   -0.5788   29.8639 C.ar    1  UNL1        0.0615
      5 C         -24.7426    0.8273   29.4808 C.ar    1  UNL1        0.1431
      6 C         -25.7883    1.3927   28.7628 C.ar    1  UNL1        0.0654
      7 C         -26.9145    0.7309   28.4427 C.ar    1  UNL1        0.1702
      8 F         -23.6958    1.4867   29.8328 F       1  UNL1       -0.2043
      9 F         -27.8532    1.3066   27.7278 F       1  UNL1       -0.2019
     10 F         -26.1634   -2.4609   29.9179 F       1  UNL1       -0.2016
     11 C         -25.5434    2.8530   28.3637 C.3     1  UNL1        0.1845
     12 O         -24.7599    3.1346   27.3776 O.3     1  UNL1       -0.2177
     13 C         -26.2062    3.8823   29.0539 C.3     1  UNL1        0.0834
     14 C         -26.4985    3.9389   30.3271 C.ar    1  UNL1        0.0619
     15 N         -25.8900    3.6414   31.2362 N.ar    1  UNL1       -0.2481
     16 C         -26.2726    3.2981   32.5982 C.ar    1  UNL1        0.0984
     17 C         -27.5205    4.9159   30.7587 C.ar    1  UNL1        0.0148
     18 C         -28.0635    4.8551   32.0541 C.ar    1  UNL1        0.0028
     19 C         -27.2686    4.1649   33.0719 C.ar    1  UNL1        0.0207
@<TRIPOS>BOND
     1     1     2    1
     2     5     8    1
     3     7     9    1
     4     3    10    1
     5     6    11    1
     6    11    12    1
     7    11    13    1
     8    13    14    1
     9     2     3   ar
    10     3     4   ar
    11     4     5   ar
    12     5     6   ar
    13     6     7   ar
    14     7     2   ar
    15    14    15   ar
    16    15    16   ar
    17    16    19   ar
    18    19    18   ar
    19    18    17   ar
    20    17    14   ar
