@<TRIPOS>MOLECULE
No_2343-gen_results/8p0m/2024-11-27-11-27-31/
 16 17 0 0 0
SMALL
GASTEIGER

@<TRIPOS>ATOM
      1 C         -28.0162   -0.8135   28.8779 C.ar    1  UNL1       -0.0003
      2 C         -28.4690   -0.7850   29.8287 C.ar    1  UNL1       -0.0000
      3 C         -27.0871    0.2903   28.6377 C.ar    1  UNL1       -0.0036
      4 C         -26.9102    0.8486   27.4199 C.ar    1  UNL1       -0.0003
      5 C         -27.8863   -0.5049   31.0944 C.ar    1  UNL1       -0.0003
      6 C         -26.9294    0.5930   31.0741 C.ar    1  UNL1       -0.0039
      7 C         -26.5225    0.9550   29.8008 C.ar    1  UNL1       -0.0168
      8 C         -27.6923    1.1530   26.5994 C.ar    1  UNL1       -0.0000
      9 C         -27.3659    1.5015   25.2102 C.ar    1  UNL1       -0.0000
     10 C         -26.0362    1.6011   24.8457 C.ar    1  UNL1       -0.0000
     11 C         -25.4085    0.8581   26.9810 C.ar    1  UNL1       -0.0000
     12 C         -25.0534    1.2547   25.7606 C.ar    1  UNL1       -0.0000
     13 C         -25.4721    1.9436   29.7153 C.3     1  UNL1        0.0655
     14 C         -24.0975    1.5604   29.9218 C.3     1  UNL1        0.0111
     15 C         -25.7652    3.2864   29.2420 C.2     1  UNL1        0.0997
     16 N         -26.4759    4.0763   29.9849 N.2     1  UNL1       -0.1511
@<TRIPOS>BOND
     1     3     4    1
     2     7    13    1
     3    13    14    1
     4    13    15    1
     5    15    16    2
     6     4     8   ar
     7     8     9   ar
     8     9    10   ar
     9    10    12   ar
    10    12    11   ar
    11    11     4   ar
    12     1     2   ar
    13     2     5   ar
    14     5     6   ar
    15     6     7   ar
    16     7     3   ar
    17     3     1   ar
