@<TRIPOS>MOLECULE
outputs/IAG933/test6/raw/output_2345_IAG933_linker_design_.xyz
 42 45 0 0 0
SMALL
GASTEIGER

@<TRIPOS>ATOM
      1 C         -24.8550   -1.0120   30.1430 C.3     1  UNL1        0.0698
      2 C         -24.9730   -2.5050   29.7880 C.2     1  UNL1       -0.0184
      3 C         -23.9060   -3.1730   29.1460 C.2     1  UNL1       -0.0041
      4 C         -23.9890   -4.5490   28.8530 C.2     1  UNL1       -0.0003
      5 C         -25.1370   -5.2800   29.2050 C.2     1  UNL1       -0.0000
      6 C         -26.2320   -4.6110   29.7840 C.2     1  UNL1       -0.0003
      7 C         -26.1550   -3.2320   30.0650 C.2     1  UNL1       -0.0041
      8 C         -25.3870   -0.6790   31.5710 C.3     1  UNL1        0.0795
      9 C         -25.1890    0.7730   32.0280 C.3     1  UNL1        0.0193
     10 C         -25.3360    0.6840   33.5440 C.3     1  UNL1        0.0202
     11 C         -24.8290   -0.7150   33.9050 C.3     1  UNL1        0.0887
     12 N         -24.7580   -1.4810   32.6460 N.3     1  UNL1       -0.2190
     13 C         -25.6880    1.6140   26.4610 C.2     1  UNL1        0.0392
     14 C         -26.2500    2.9200   26.3950 C.2     1  UNL1        0.0766
     15 C         -25.6420    4.0930   27.1230 C.2     1  UNL1        0.2664
     16 N         -25.6140    5.2520   26.4490 N.am    1  UNL1       -0.1997
     17 C         -25.0260    6.4790   26.9630 C.3     1  UNL1        0.1388
     18 O         -25.1430    3.9660   28.2430 O.2     1  UNL1       -0.2683
     19 C         -27.4380    3.0910   25.6450 C.2     1  UNL1        0.1067
     20 N         -28.0750    2.0890   25.0030 N.2     1  UNL1       -0.2081
     21 C         -27.5430    0.8490   25.0790 C.2     1  UNL1        0.2533
     22 O         -28.1930   -0.2080   24.4770 O.2     1  UNL1       -0.4558
     23 C         -29.4600    0.0050   23.8660 C.3     1  UNL1        0.2426
     24 C         -30.0650   -1.3770   23.5730 C.3     1  UNL1        0.2292
     25 O         -30.7290   -1.8780   24.7210 O.3     1  UNL1       -0.2162
     26 C         -26.3540    0.5760   25.7770 C.2     1  UNL1        0.1931
     27 F         -25.8600   -0.6810   25.7950 F       1  UNL1       -0.1992
     28 C         -28.9345    1.0038   29.2971 C.3     1  UNL1        0.0642
     29 C         -27.4382    1.0688   28.9731 C.3     1  UNL1        0.1451
     30 C         -22.9020    0.4565   28.7019 C.ar    1  UNL1        0.1176
     31 C         -25.3119   -0.0226   29.1078 C.3     1  UNL1        0.1445
     32 C         -24.3173    0.6171   28.3524 C.ar    1  UNL1        0.0292
     33 C         -23.2070    1.7801   26.5219 C.ar    1  UNL1        0.0880
     34 C         -31.4238    0.2796   27.2716 C.3     1  UNL1        0.3289
     35 O         -31.5734    1.6775   27.6825 O.3     1  UNL1       -0.1841
     36 CL        -22.8687    2.4556   24.9965 Cl      1  UNL1       -0.0751
     37 O         -29.9752   -0.2808   27.5064 O.3     1  UNL1       -0.3246
     38 C         -24.4398    1.3621   27.1095 C.ar    1  UNL1        0.0193
     39 O         -26.7083   -0.0242   28.6743 O.3     1  UNL1       -0.3513
     40 S         -21.9031    1.2982   27.5930 S.2     1  UNL1       -0.0578
     41 C         -29.3879   -0.3897   28.8468 C.3     1  UNL1        0.1476
     42 N         -22.2969   -0.3217   29.6935 N.pl3   1  UNL1       -0.1212
@<TRIPOS>BOND
     1     1    31    1
     2     2     7    1
     3     2     1    1
     4     3     2    2
     5     4     3    1
     6     4     5    2
     7     5     6    1
     8     6     7    2
     9     8     1    1
    10     8     9    1
    11     8    12    1
    12     9    10    1
    13    10    11    1
    14    12    11    1
    15    13    38    1
    16    14    13    1
    17    14    15    1
    18    15    18    2
    19    16    17    1
    20    16    15    1
    21    19    14    2
    22    20    21    2
    23    20    19    1
    24    21    26    1
    25    22    21    1
    26    23    22    1
    27    24    23    1
    28    24    25    1
    29    26    27    1
    30    26    13    2
    31    29    28    1
    32    30    42    1
    33    31    39    1
    34    32    30   ar
    35    32    31    1
    36    33    38   ar
    37    33    40   ar
    38    34    37    1
    39    34    35    1
    40    36    33    1
    41    37    41    1
    42    38    32   ar
    43    39    29    1
    44    40    30   ar
    45    41    28    1
