@<TRIPOS>MOLECULE
outputs/IAG933/test6/raw/output_2350_IAG933_linker_design_.xyz
 46 50 0 0 0
SMALL
GASTEIGER

@<TRIPOS>ATOM
      1 C         -24.8550   -1.0120   30.1430 C.3     1  UNL1        0.0987
      2 C         -24.9730   -2.5050   29.7880 C.2     1  UNL1       -0.0063
      3 C         -23.9060   -3.1730   29.1460 C.2     1  UNL1       -0.0029
      4 C         -23.9890   -4.5490   28.8530 C.2     1  UNL1       -0.0003
      5 C         -25.1370   -5.2800   29.2050 C.2     1  UNL1       -0.0000
      6 C         -26.2320   -4.6110   29.7840 C.2     1  UNL1       -0.0003
      7 C         -26.1550   -3.2320   30.0650 C.2     1  UNL1       -0.0029
      8 C         -25.3870   -0.6790   31.5710 C.3     1  UNL1        0.0916
      9 C         -25.1890    0.7730   32.0280 C.3     1  UNL1        0.0206
     10 C         -25.3360    0.6840   33.5440 C.3     1  UNL1        0.0203
     11 C         -24.8290   -0.7150   33.9050 C.3     1  UNL1        0.0888
     12 N         -24.7580   -1.4810   32.6460 N.3     1  UNL1       -0.2178
     13 C         -25.6880    1.6140   26.4610 C.3     1  UNL1        0.1305
     14 C         -26.2500    2.9200   26.3950 C.2     1  UNL1        0.0697
     15 C         -25.6420    4.0930   27.1230 C.2     1  UNL1        0.2637
     16 N         -25.6140    5.2520   26.4490 N.am    1  UNL1       -0.2000
     17 C         -25.0260    6.4790   26.9630 C.3     1  UNL1        0.1388
     18 O         -25.1430    3.9660   28.2430 O.2     1  UNL1       -0.2686
     19 C         -27.4380    3.0910   25.6450 C.2     1  UNL1        0.1035
     20 N         -28.0750    2.0890   25.0030 N.2     1  UNL1       -0.2118
     21 C         -27.5430    0.8490   25.0790 C.2     1  UNL1        0.2355
     22 O         -28.1930   -0.2080   24.4770 O.2     1  UNL1       -0.4585
     23 C         -29.4600    0.0050   23.8660 C.3     1  UNL1        0.2423
     24 C         -30.0650   -1.3770   23.5730 C.3     1  UNL1        0.2292
     25 O         -30.7290   -1.8780   24.7210 O.3     1  UNL1       -0.2162
     26 C         -26.3540    0.5760   25.7770 C.3     1  UNL1        0.2547
     27 F         -25.8600   -0.6810   25.7950 F       1  UNL1       -0.2254
     28 C         -23.4276    1.4955   27.1524 C.3     1  UNL1        0.2006
     29 O         -28.8145    5.2573   29.6219 O.2     1  UNL1       -0.2748
     30 C         -28.1014    1.6864   29.0384 C.3     1  UNL1        0.0336
     31 C         -23.0910    0.1534   29.0498 C.3     1  UNL1        0.2126
     32 N         -24.8545    1.2844   27.3775 N.3     1  UNL1       -0.2377
     33 C         -28.2485    3.0549   29.5961 C.3     1  UNL1        0.0897
     34 C         -31.5005    5.0478   28.9805 C.3     1  UNL1        0.1152
     35 N         -30.4374    4.0691   28.6554 N.am    1  UNL1       -0.2737
     36 C         -26.7278    0.9419   29.0807 C.3     1  UNL1        0.0377
     37 CL        -22.8845    2.3793   25.7373 Cl      1  UNL1       -0.0887
     38 C         -25.5408    0.4226   28.1661 C.3     1  UNL1        0.1218
     39 C         -22.4829    0.9366   27.9571 C.2     1  UNL1        0.2132
     40 C         -30.1694    1.8029   27.6506 C.2     1  UNL1       -0.0093
     41 O         -21.2413    1.0953   27.7687 O.2     1  UNL1       -0.2903
     42 N         -24.5484   -0.0235   29.1447 N.3     1  UNL1       -0.2373
     43 C         -29.1449    1.1128   28.3027 C.2     1  UNL1       -0.0287
     44 C         -30.6571    3.1112   27.6617 C.3     1  UNL1        0.1196
     45 C         -29.1687    4.1631   29.3051 C.2     1  UNL1        0.2263
     46 N         -22.2267   -0.2232   30.0177 N.3     1  UNL1       -0.1066
@<TRIPOS>BOND
     1     1     2    1
     2     2     7    1
     3     3     2    2
     4     4     3    1
     5     4     5    2
     6     5     6    1
     7     6     7    2
     8     8     1    1
     9     8     9    1
    10     8    12    1
    11     9    10    1
    12    10    11    1
    13    12    11    1
    14    13    14    1
    15    14    15    1
    16    15    18    2
    17    16    17    1
    18    16    15    1
    19    19    14    2
    20    20    21    2
    21    20    19    1
    22    21    26    1
    23    22    21    1
    24    23    22    1
    25    24    23    1
    26    24    25    1
    27    26    27    1
    28    26    13    1
    29    28    37    1
    30    28    32    1
    31    28    39    1
    32    30    36    1
    33    30    33    1
    34    31    42    1
    35    31    46    1
    36    32    13    1
    37    32    38    1
    38    35    34    1
    39    35    45   am
    40    38    36    1
    41    38    42    1
    42    39    31    1
    43    40    44    1
    44    40    43    2
    45    41    39    2
    46    42     1    1
    47    43    30    1
    48    44    35    1
    49    45    33    1
    50    45    29    2
