@<TRIPOS>MOLECULE
outputs/IAG933/test6/raw/output_2353_IAG933_linker_design_.xyz
 47 51 0 0 0
SMALL
GASTEIGER

@<TRIPOS>ATOM
      1 C         -24.8550   -1.0120   30.1430 C.3     1  UNL1        0.0437
      2 C         -24.9730   -2.5050   29.7880 C.2     1  UNL1       -0.0208
      3 C         -23.9060   -3.1730   29.1460 C.2     1  UNL1       -0.0042
      4 C         -23.9890   -4.5490   28.8530 C.2     1  UNL1       -0.0003
      5 C         -25.1370   -5.2800   29.2050 C.2     1  UNL1       -0.0000
      6 C         -26.2320   -4.6110   29.7840 C.2     1  UNL1       -0.0003
      7 C         -26.1550   -3.2320   30.0650 C.2     1  UNL1       -0.0042
      8 C         -25.3870   -0.6790   31.5710 C.3     1  UNL1        0.0776
      9 C         -25.1890    0.7730   32.0280 C.3     1  UNL1        0.0268
     10 C         -25.3360    0.6840   33.5440 C.3     1  UNL1        0.0207
     11 C         -24.8290   -0.7150   33.9050 C.3     1  UNL1        0.0887
     12 N         -24.7580   -1.4810   32.6460 N.3     1  UNL1       -0.2191
     13 C         -25.6880    1.6140   26.4610 C.3     1  UNL1        0.0946
     14 C         -26.2500    2.9200   26.3950 C.2     1  UNL1        0.0590
     15 C         -25.6420    4.0930   27.1230 C.2     1  UNL1        0.2628
     16 N         -25.6140    5.2520   26.4490 N.am    1  UNL1       -0.2000
     17 C         -25.0260    6.4790   26.9630 C.3     1  UNL1        0.1388
     18 O         -25.1430    3.9660   28.2430 O.2     1  UNL1       -0.2686
     19 C         -27.4380    3.0910   25.6450 C.2     1  UNL1        0.1025
     20 N         -28.0750    2.0890   25.0030 N.2     1  UNL1       -0.2118
     21 C         -27.5430    0.8490   25.0790 C.2     1  UNL1        0.2344
     22 O         -28.1930   -0.2080   24.4770 O.2     1  UNL1       -0.4585
     23 C         -29.4600    0.0050   23.8660 C.3     1  UNL1        0.2423
     24 C         -30.0650   -1.3770   23.5730 C.3     1  UNL1        0.2292
     25 O         -30.7290   -1.8780   24.7210 O.3     1  UNL1       -0.2162
     26 C         -26.3540    0.5760   25.7770 C.3     1  UNL1        0.2441
     27 F         -25.8600   -0.6810   25.7950 F       1  UNL1       -0.2265
     28 C         -26.8655    7.2088   32.0630 C.2     1  UNL1       -0.0003
     29 C         -25.4816    5.1589   32.3374 C.2     1  UNL1       -0.0046
     30 C         -23.9432    2.5826   30.9426 C.2     1  UNL1        0.2455
     31 C         -26.5586    4.4083   31.7603 C.2     1  UNL1       -0.0256
     32 C         -23.0271    1.7133   28.7581 C.2     1  UNL1        0.0754
     33 O         -23.4911    3.6196   31.2327 O.2     1  UNL1       -0.2730
     34 N         -23.1500    1.7469   30.1266 N.am    1  UNL1       -0.1791
     35 C         -23.3593    1.7880   25.8860 C.2     1  UNL1        0.1639
     36 C         -26.4918    2.9451   31.4874 C.3     1  UNL1        0.0352
     37 C         -25.2206    2.1471   31.4644 C.3     1  UNL1        0.0843
     38 C         -27.7435    5.0684   31.3762 C.2     1  UNL1       -0.0258
     39 C         -22.0302    1.9386   26.4577 C.2     1  UNL1        0.1684
     40 C         -28.8961    4.3082   30.8639 C.3     1  UNL1        0.0307
     41 C         -21.9078    1.9690   27.8956 C.2     1  UNL1        0.0485
     42 C         -27.8635    6.4574   31.4589 C.2     1  UNL1       -0.0046
     43 C         -25.6782    6.5612   32.4856 C.2     1  UNL1       -0.0003
     44 F         -23.5001    1.8410   24.5664 F       1  UNL1       -0.2021
     45 C         -24.4475    1.6011   26.7987 C.2     1  UNL1        0.0160
     46 C         -24.2593    1.4519   28.1613 C.2     1  UNL1        0.0151
     47 F         -20.9773    2.0149   25.6131 F       1  UNL1       -0.2018
@<TRIPOS>BOND
     1     2     7    1
     2     2     1    1
     3     3     2    2
     4     4     3    1
     5     4     5    2
     6     5     6    1
     7     6     7    2
     8     8     1    1
     9     8     9    1
    10     8    12    1
    11     9    37    1
    12     9    10    1
    13    10    11    1
    14    12    11    1
    15    13    45    1
    16    14    13    1
    17    14    15    1
    18    15    18    2
    19    16    17    1
    20    16    15    1
    21    19    14    2
    22    20    21    2
    23    20    19    1
    24    21    26    1
    25    22    21    1
    26    23    22    1
    27    24    23    1
    28    24    25    1
    29    26    27    1
    30    26    13    1
    31    28    43    1
    32    29    43    2
    33    30    33    2
    34    30    37    1
    35    31    29    1
    36    32    34    1
    37    34    30    1
    38    35    39    2
    39    35    45    1
    40    36    31    1
    41    37    36    1
    42    38    42    1
    43    38    31    2
    44    39    41    1
    45    40    38    1
    46    41    32    2
    47    42    28    2
    48    44    35    1
    49    45    46    2
    50    46    32    1
    51    47    39    1
