@<TRIPOS>MOLECULE
outputs/IAG933/test6/raw/output_2354_IAG933_linker_design_.xyz
 38 42 0 0 0
SMALL
GASTEIGER

@<TRIPOS>ATOM
      1 C         -24.8550   -1.0120   30.1430 C.3     1  UNL1        0.0786
      2 C         -24.9730   -2.5050   29.7880 C.2     1  UNL1       -0.0155
      3 C         -23.9060   -3.1730   29.1460 C.2     1  UNL1       -0.0039
      4 C         -23.9890   -4.5490   28.8530 C.2     1  UNL1       -0.0003
      5 C         -25.1370   -5.2800   29.2050 C.2     1  UNL1       -0.0000
      6 C         -26.2320   -4.6110   29.7840 C.2     1  UNL1       -0.0003
      7 C         -26.1550   -3.2320   30.0650 C.2     1  UNL1       -0.0039
      8 C         -25.3870   -0.6790   31.5710 C.3     1  UNL1        0.0824
      9 C         -25.1890    0.7730   32.0280 C.3     1  UNL1        0.0196
     10 C         -25.3360    0.6840   33.5440 C.3     1  UNL1        0.0203
     11 C         -24.8290   -0.7150   33.9050 C.3     1  UNL1        0.0887
     12 N         -24.7580   -1.4810   32.6460 N.3     1  UNL1       -0.2187
     13 C         -25.6880    1.6140   26.4610 C.3     1  UNL1        0.1629
     14 C         -26.2500    2.9200   26.3950 C.2     1  UNL1        0.0759
     15 C         -25.6420    4.0930   27.1230 C.2     1  UNL1        0.2642
     16 N         -25.6140    5.2520   26.4490 N.am    1  UNL1       -0.1999
     17 C         -25.0260    6.4790   26.9630 C.3     1  UNL1        0.1388
     18 O         -25.1430    3.9660   28.2430 O.2     1  UNL1       -0.2686
     19 C         -27.4380    3.0910   25.6450 C.2     1  UNL1        0.1040
     20 N         -28.0750    2.0890   25.0030 N.2     1  UNL1       -0.2117
     21 C         -27.5430    0.8490   25.0790 C.2     1  UNL1        0.2361
     22 O         -28.1930   -0.2080   24.4770 O.2     1  UNL1       -0.4585
     23 C         -29.4600    0.0050   23.8660 C.3     1  UNL1        0.2423
     24 C         -30.0650   -1.3770   23.5730 C.3     1  UNL1        0.2292
     25 O         -30.7290   -1.8780   24.7210 O.3     1  UNL1       -0.2162
     26 C         -26.3540    0.5760   25.7770 C.3     1  UNL1        0.2609
     27 F         -25.8600   -0.6810   25.7950 F       1  UNL1       -0.2248
     28 N         -24.4482    0.2483   28.4667 N.2     1  UNL1       -0.2291
     29 C         -23.8536    0.8845   27.5357 C.ar    1  UNL1        0.1859
     30 O         -23.2481    2.1493   24.6512 O.2     1  UNL1       -0.2226
     31 N         -24.2815    1.5561   26.6764 N.ar    1  UNL1       -0.2416
     32 C         -21.7031    0.6768   28.4513 C.2     1  UNL1        0.1788
     33 O         -21.9972    1.9455   26.4497 O.2     1  UNL1       -0.4028
     34 F         -20.3657    0.8475   28.3123 F       1  UNL1       -0.2008
     35 C         -22.3635   -0.1259   29.5257 C.2     1  UNL1        0.0480
     36 C         -23.1474    2.0381   25.8348 C.ar    1  UNL1        0.4235
     37 C         -23.8188   -0.2500   29.4173 C.2     1  UNL1        0.0681
     38 C         -22.4645    1.1818   27.4541 C.ar    1  UNL1        0.2114
@<TRIPOS>BOND
     1     1    37    1
     2     2     7    1
     3     2     1    1
     4     3     2    2
     5     4     3    1
     6     4     5    2
     7     5     6    1
     8     6     7    2
     9     8     1    1
    10     8     9    1
    11     8    12    1
    12     9    10    1
    13    10    11    1
    14    12    11    1
    15    13    31    1
    16    14    13    1
    17    14    15    1
    18    15    18    2
    19    16    17    1
    20    16    15    1
    21    19    14    2
    22    20    21    2
    23    20    19    1
    24    21    26    1
    25    22    21    1
    26    23    22    1
    27    24    23    1
    28    24    25    1
    29    26    27    1
    30    26    13    1
    31    28    37    1
    32    29    28    2
    33    30    36    2
    34    31    29   ar
    35    32    35    1
    36    33    38   ar
    37    34    32    1
    38    36    33   ar
    39    36    31   ar
    40    37    35    2
    41    38    29   ar
    42    38    32    2
