@<TRIPOS>MOLECULE
outputs/IAG933/test6/raw/output_2359_IAG933_linker_design_.xyz
 43 47 0 0 0
SMALL
GASTEIGER

@<TRIPOS>ATOM
      1 C         -24.8550   -1.0120   30.1430 C.3     1  UNL1        0.0573
      2 C         -24.9730   -2.5050   29.7880 C.2     1  UNL1       -0.0195
      3 C         -23.9060   -3.1730   29.1460 C.2     1  UNL1       -0.0042
      4 C         -23.9890   -4.5490   28.8530 C.2     1  UNL1       -0.0003
      5 C         -25.1370   -5.2800   29.2050 C.2     1  UNL1       -0.0000
      6 C         -26.2320   -4.6110   29.7840 C.2     1  UNL1       -0.0003
      7 C         -26.1550   -3.2320   30.0650 C.2     1  UNL1       -0.0042
      8 C         -25.3870   -0.6790   31.5710 C.3     1  UNL1        0.0870
      9 C         -25.1890    0.7730   32.0280 C.3     1  UNL1        0.0945
     10 C         -25.3360    0.6840   33.5440 C.3     1  UNL1        0.0293
     11 C         -24.8290   -0.7150   33.9050 C.3     1  UNL1        0.0892
     12 N         -24.7580   -1.4810   32.6460 N.3     1  UNL1       -0.2186
     13 C         -25.6880    1.6140   26.4610 C.3     1  UNL1        0.0919
     14 C         -26.2500    2.9200   26.3950 C.2     1  UNL1        0.0589
     15 C         -25.6420    4.0930   27.1230 C.2     1  UNL1        0.2628
     16 N         -25.6140    5.2520   26.4490 N.am    1  UNL1       -0.2000
     17 C         -25.0260    6.4790   26.9630 C.3     1  UNL1        0.1388
     18 O         -25.1430    3.9660   28.2430 O.2     1  UNL1       -0.2686
     19 C         -27.4380    3.0910   25.6450 C.2     1  UNL1        0.1025
     20 N         -28.0750    2.0890   25.0030 N.2     1  UNL1       -0.2118
     21 C         -27.5430    0.8490   25.0790 C.2     1  UNL1        0.2344
     22 O         -28.1930   -0.2080   24.4770 O.2     1  UNL1       -0.4585
     23 C         -29.4600    0.0050   23.8660 C.3     1  UNL1        0.2423
     24 C         -30.0650   -1.3770   23.5730 C.3     1  UNL1        0.2292
     25 O         -30.7290   -1.8780   24.7210 O.3     1  UNL1       -0.2162
     26 C         -26.3540    0.5760   25.7770 C.3     1  UNL1        0.2440
     27 F         -25.8600   -0.6810   25.7950 F       1  UNL1       -0.2265
     28 C         -22.1439    2.1672   25.5513 C.3     1  UNL1        0.2316
     29 C         -24.8434    1.8318   30.8868 C.2     1  UNL1        0.2266
     30 C         -23.4616    1.9057   25.7344 C.2     1  UNL1        0.0166
     31 C         -27.3643    0.4453   28.8386 C.3     1  UNL1        0.2035
     32 O         -24.3048    2.8204   31.1762 O.2     1  UNL1       -0.2748
     33 O         -28.7304   -0.1526   28.9676 O.3     1  UNL1       -0.2185
     34 C         -24.5816    0.1853   29.2564 C.3     1  UNL1        0.0852
     35 C         -26.7615    1.7067   29.3928 C.3     1  UNL1        0.1288
     36 O         -29.4902    0.8992   29.4966 O.3     1  UNL1       -0.2175
     37 C         -28.7623    2.1124   29.3915 C.3     1  UNL1        0.2175
     38 O         -21.2491    2.0438   26.5345 O.2     1  UNL1       -0.4679
     39 N         -25.2091    1.5439   29.6200 N.am    1  UNL1       -0.2777
     40 C         -22.8473    1.1543   28.0798 C.2     1  UNL1        0.0128
     41 C         -23.9997    1.4923   26.8235 C.2     1  UNL1       -0.0167
     42 C         -21.5531    1.4766   27.6960 C.2     1  UNL1        0.1681
     43 C         -23.0570    0.4876   29.4098 C.3     1  UNL1        0.0494
@<TRIPOS>BOND
     1     1     2    1
     2     1     8    1
     3     2     7    1
     4     3     2    2
     5     4     3    1
     6     4     5    2
     7     5     6    1
     8     6     7    2
     9     8     9    1
    10     8    12    1
    11     9    10    1
    12    10    11    1
    13    12    11    1
    14    13    41    1
    15    14    13    1
    16    14    15    1
    17    15    18    2
    18    16    17    1
    19    16    15    1
    20    19    14    2
    21    20    21    2
    22    20    19    1
    23    21    26    1
    24    22    21    1
    25    23    22    1
    26    24    23    1
    27    24    25    1
    28    26    27    1
    29    26    13    1
    30    28    30    1
    31    28    38    1
    32    29    32    2
    33    29     9    1
    34    30    41    2
    35    31    33    1
    36    31    35    1
    37    33    36    1
    38    34    43    1
    39    34    39    1
    40    34     1    1
    41    35    39    1
    42    37    36    1
    43    38    42    1
    44    39    29   am
    45    40    43    1
    46    41    40    1
    47    42    40    2
