@<TRIPOS>MOLECULE
No_2363-gen_results/8p0m/2024-11-27-11-27-31/
 35 37 0 0 0
SMALL
GASTEIGER

@<TRIPOS>ATOM
      1 C         -28.0162   -0.8135   28.8779 C.ar    1  UNL1        0.0432
      2 C         -27.0636   -0.1189   28.6079 C.ar    1  UNL1        0.0788
      3 C         -25.7647   -0.3897   29.0360 C.ar    1  UNL1       -0.0154
      4 C         -25.5296   -1.5302   29.9014 C.ar    1  UNL1       -0.0223
      5 C         -24.3236   -1.9076   30.4324 C.3     1  UNL1        0.0308
      6 C         -27.9274   -1.9227   29.7902 C.ar    1  UNL1        0.1408
      7 C         -26.6914   -2.2806   30.2948 C.ar    1  UNL1        0.0324
      8 C         -23.6374   -0.9128   31.2435 C.3     1  UNL1        0.0301
      9 O         -28.9938   -2.6977   30.1488 O.3     1  UNL1       -0.4520
     10 C         -23.5751    0.4253   30.8213 C.2     1  UNL1       -0.0323
     11 C         -30.0981   -2.1357   30.6574 C.3     1  UNL1        0.3578
     12 C         -30.5697   -2.8756   31.7153 C.3     1  UNL1        0.4555
     13 F         -31.5802   -2.4581   32.1335 F       1  UNL1       -0.1649
     14 F         -29.6530   -2.7885   32.7423 F       1  UNL1       -0.1649
     15 F         -30.6551   -4.1709   31.4260 F       1  UNL1       -0.1649
     16 N         -31.0523   -2.0327   29.5553 N.pl3   1  UNL1       -0.1907
     17 C         -27.1703    1.0336   27.6815 C.2     1  UNL1        0.3875
     18 C         -23.9108    0.7203   29.6073 C.2     1  UNL1       -0.0245
     19 C         -23.1735    2.0389   29.2503 C.3     1  UNL1        0.1135
     20 C         -24.8932    0.2356   28.7832 C.3     1  UNL1        0.0495
     21 N         -23.0483    2.2711   27.8410 N.pl3   1  UNL1       -0.3021
     22 O         -26.6420    1.1245   26.6563 O.co2   1  UNL1       -0.2406
     23 O         -28.2843    1.8522   27.9707 O.co2   1  UNL1       -0.2406
     24 C         -23.9626    2.9771   27.1919 C.ar    1  UNL1        0.0481
     25 C         -24.7728    3.9756   27.7723 C.ar    1  UNL1        0.0145
     26 C         -23.8363    3.0806   25.7497 C.ar    1  UNL1        0.0145
     27 C         -25.6916    4.7516   27.0268 C.ar    1  UNL1        0.0013
     28 C         -25.6133    4.6317   25.6462 C.ar    1  UNL1        0.0001
     29 C         -24.7730    3.7872   25.0395 C.ar    1  UNL1        0.0013
     30 C         -21.9861    1.5866   27.1928 C.3     1  UNL1        0.1125
     31 C         -31.3974   -0.7838   29.0283 C.2     1  UNL1        0.0840
     32 C         -32.3024   -0.8708   27.9521 C.2     1  UNL1        0.0172
     33 C         -32.5073    0.2846   27.2435 C.2     1  UNL1       -0.0032
     34 C         -33.2229    0.3372   26.0726 C.2     1  UNL1       -0.0257
     35 C         -33.7545   -0.9120   25.6328 C.3     1  UNL1        0.0307
@<TRIPOS>BOND
     1     4     5    1
     2     5     8    1
     3     6     9    1
     4     8    10    1
     5     9    11    1
     6    11    12    1
     7    12    13    1
     8    12    14    1
     9    12    15    1
    10    11    16    1
    11     2    17    1
    12    10    18    2
    13    18    19    1
    14     3    20    1
    15    18    20    1
    16    19    21    1
    17    17    22   ar
    18    17    23   ar
    19    21    24    1
    20    21    30    1
    21    16    31    1
    22    31    32    2
    23    32    33    1
    24    33    34    2
    25    34    35    1
    26    24    25   ar
    27    25    27   ar
    28    27    28   ar
    29    28    29   ar
    30    29    26   ar
    31    26    24   ar
    32     1     2   ar
    33     2     3   ar
    34     3     4   ar
    35     4     7   ar
    36     7     6   ar
    37     6     1   ar
