@<TRIPOS>MOLECULE
No_2364-gen_results/8p0m/2024-11-27-11-27-31/
 7 7 0 0 0
SMALL
GASTEIGER

@<TRIPOS>ATOM
      1 C         -28.0162   -0.8135   28.8779 C.ar    1  UNL1        0.0296
      2 C         -27.0636   -0.1189   28.6079 C.ar    1  UNL1        0.1401
      3 F         -25.8837   -0.5253   28.7834 F       1  UNL1       -0.2042
      4 C         -27.0354    1.2934   29.2017 C.ar    1  UNL1        0.0296
      5 C         -29.3374   -0.1781   29.0254 C.ar    1  UNL1        0.0023
      6 C         -28.3198    2.0084   28.9656 C.ar    1  UNL1        0.0023
      7 C         -29.4714    1.1571   29.1454 C.ar    1  UNL1        0.0001
@<TRIPOS>BOND
     1     2     3    1
     2     1     2   ar
     3     2     4   ar
     4     4     6   ar
     5     6     7   ar
     6     7     5   ar
     7     5     1   ar
