@<TRIPOS>MOLECULE
No_2366-gen_results/8p0m/2024-11-27-11-27-31/
 21 23 0 0 0
SMALL
GASTEIGER

@<TRIPOS>ATOM
      1 C         -28.0162   -0.8135   28.8779 C.ar    1  UNL1        0.0079
      2 C         -27.0636   -0.1189   28.6079 C.ar    1  UNL1        0.0380
      3 C         -26.8756    1.1325   28.9134 C.ar    1  UNL1       -0.0093
      4 C         -25.6883    1.9515   28.5672 C.3     1  UNL1        0.0678
      5 C         -24.6394    1.2834   27.8753 C.3     1  UNL1        0.1751
      6 C         -24.8068   -0.0513   27.6040 C.1     1  UNL1       -0.0752
      7 C         -25.9019   -0.7670   27.9511 C.1     1  UNL1       -0.0642
      8 C         -29.2153   -0.1057   29.1515 C.ar    1  UNL1        0.0006
      9 C         -29.1861    1.2214   29.4463 C.ar    1  UNL1       -0.0003
     10 C         -28.0291    1.9304   29.1871 C.ar    1  UNL1       -0.0033
     11 C         -23.3576    1.9005   27.5777 C.2     1  UNL1        0.3769
     12 O         -22.6047    2.2692   28.2856 O.co2   1  UNL1       -0.2446
     13 O         -23.2564    2.2565   26.2512 O.co2   1  UNL1       -0.2446
     14 C         -25.5085    3.3870   28.8955 C.2     1  UNL1       -0.0205
     15 C         -25.9498    4.3230   28.1094 C.2     1  UNL1       -0.0042
     16 C         -25.8142    5.6958   28.4573 C.ar    1  UNL1       -0.0003
     17 C         -25.8188    6.7379   27.5123 C.ar    1  UNL1       -0.0000
     18 C         -25.5426    8.0576   27.8758 C.ar    1  UNL1       -0.0000
     19 C         -25.1313    8.4155   29.1747 C.ar    1  UNL1       -0.0000
     20 C         -25.1252    7.3527   30.0871 C.ar    1  UNL1       -0.0000
     21 C         -25.3854    6.0599   29.7636 C.ar    1  UNL1       -0.0000
@<TRIPOS>BOND
     1     3     4    1
     2     4     5    1
     3     5     6    1
     4     2     7    1
     5     6     7    3
     6     5    11    1
     7    11    12   ar
     8    11    13   ar
     9     4    14    1
    10    14    15    2
    11    15    16    1
    12     1     2   ar
    13     2     3   ar
    14     3    10   ar
    15    10     9   ar
    16     9     8   ar
    17     8     1   ar
    18    16    17   ar
    19    17    18   ar
    20    18    19   ar
    21    19    20   ar
    22    20    21   ar
    23    21    16   ar
