@<TRIPOS>MOLECULE
outputs/IAG933/test6/raw/output_2367_IAG933_linker_design_.xyz
 41 45 0 0 0
SMALL
GASTEIGER

@<TRIPOS>ATOM
      1 C         -24.8550   -1.0120   30.1430 C.3     1  UNL1        0.2052
      2 C         -24.9730   -2.5050   29.7880 C.2     1  UNL1        0.0186
      3 C         -23.9060   -3.1730   29.1460 C.2     1  UNL1       -0.0008
      4 C         -23.9890   -4.5490   28.8530 C.2     1  UNL1       -0.0002
      5 C         -25.1370   -5.2800   29.2050 C.2     1  UNL1       -0.0000
      6 C         -26.2320   -4.6110   29.7840 C.2     1  UNL1       -0.0002
      7 C         -26.1550   -3.2320   30.0650 C.2     1  UNL1       -0.0008
      8 C         -25.3870   -0.6790   31.5710 C.3     1  UNL1        0.1170
      9 C         -25.1890    0.7730   32.0280 C.3     1  UNL1        0.0229
     10 C         -25.3360    0.6840   33.5440 C.3     1  UNL1        0.0204
     11 C         -24.8290   -0.7150   33.9050 C.3     1  UNL1        0.0888
     12 N         -24.7580   -1.4810   32.6460 N.3     1  UNL1       -0.2154
     13 C         -25.6880    1.6140   26.4610 C.2     1  UNL1        0.0289
     14 C         -26.2500    2.9200   26.3950 C.2     1  UNL1        0.0710
     15 C         -25.6420    4.0930   27.1230 C.2     1  UNL1        0.2228
     16 N         -25.6140    5.2520   26.4490 N.2     1  UNL1       -0.2356
     17 C         -25.0260    6.4790   26.9630 C.3     1  UNL1        0.1550
     18 O         -25.1430    3.9660   28.2430 O.2     1  UNL1       -0.4458
     19 C         -27.4380    3.0910   25.6450 C.2     1  UNL1        0.1065
     20 N         -28.0750    2.0890   25.0030 N.2     1  UNL1       -0.2081
     21 C         -27.5430    0.8490   25.0790 C.2     1  UNL1        0.2530
     22 O         -28.1930   -0.2080   24.4770 O.2     1  UNL1       -0.4558
     23 C         -29.4600    0.0050   23.8660 C.3     1  UNL1        0.2426
     24 C         -30.0650   -1.3770   23.5730 C.3     1  UNL1        0.2292
     25 O         -30.7290   -1.8780   24.7210 O.3     1  UNL1       -0.2162
     26 C         -26.3540    0.5760   25.7770 C.2     1  UNL1        0.1897
     27 F         -25.8600   -0.6810   25.7950 F       1  UNL1       -0.1996
     28 C         -24.7022    4.6230   32.8180 C.3     1  UNL1        0.0738
     29 N         -25.9073    2.5480   29.9437 N.3     1  UNL1       -0.1715
     30 C         -24.8788    2.5374   28.8120 C.3     1  UNL1        0.2555
     31 N         -22.8922   -0.0099   28.9685 N.2     1  UNL1       -0.2116
     32 C         -26.2939    3.6091   30.9982 C.3     1  UNL1        0.1564
     33 C         -24.3619    1.5255   27.4964 C.3     1  UNL1        0.1486
     34 C         -21.9444    1.3758   27.3473 C.2     1  UNL1        0.1377
     35 O         -25.1170    5.6137   30.6469 O.2     1  UNL1       -0.2945
     36 C         -21.8638    0.6922   28.4940 C.2     1  UNL1        0.1268
     37 O         -25.2724   -0.1159   29.0786 O.2     1  UNL1       -0.4606
     38 C         -23.1209    1.6974   26.4995 C.3     1  UNL1        0.0761
     39 F         -20.9380    2.0242   26.8725 F       1  UNL1       -0.2072
     40 C         -25.3462    4.6660   31.3783 C.2     1  UNL1        0.1687
     41 C         -24.1509    0.3036   28.3890 C.2     1  UNL1        0.2087
@<TRIPOS>BOND
     1     1    37    1
     2     2     7    1
     3     2     1    1
     4     3     2    2
     5     4     3    1
     6     4     5    2
     7     5     6    1
     8     6     7    2
     9     8     1    1
    10     8     9    1
    11     8    12    1
    12     9    10    1
    13    10    11    1
    14    12    11    1
    15    13    33    1
    16    14    13    1
    17    14    15    1
    18    15    18    1
    19    16    17    1
    20    16    15    2
    21    18    30    1
    22    19    14    2
    23    20    21    2
    24    20    19    1
    25    21    26    1
    26    22    21    1
    27    23    22    1
    28    24    23    1
    29    24    25    1
    30    26    27    1
    31    26    13    2
    32    29    32    1
    33    30    29    1
    34    32    40    1
    35    33    38    1
    36    33    41    1
    37    33    30    1
    38    34    36    2
    39    35    40    2
    40    36    31    1
    41    38    34    1
    42    39    34    1
    43    40    28    1
    44    41    31    2
    45    41    37    1
