@<TRIPOS>MOLECULE
outputs/IAG933/test6/raw/output_2368_IAG933_linker_design_.xyz
 39 42 0 0 0
SMALL
GASTEIGER

@<TRIPOS>ATOM
      1 C         -24.8550   -1.0120   30.1430 C.3     1  UNL1        0.0606
      2 C         -24.9730   -2.5050   29.7880 C.2     1  UNL1       -0.0194
      3 C         -23.9060   -3.1730   29.1460 C.2     1  UNL1       -0.0042
      4 C         -23.9890   -4.5490   28.8530 C.2     1  UNL1       -0.0003
      5 C         -25.1370   -5.2800   29.2050 C.2     1  UNL1       -0.0000
      6 C         -26.2320   -4.6110   29.7840 C.2     1  UNL1       -0.0003
      7 C         -26.1550   -3.2320   30.0650 C.2     1  UNL1       -0.0042
      8 C         -25.3870   -0.6790   31.5710 C.3     1  UNL1        0.0785
      9 C         -25.1890    0.7730   32.0280 C.3     1  UNL1        0.0193
     10 C         -25.3360    0.6840   33.5440 C.3     1  UNL1        0.0202
     11 C         -24.8290   -0.7150   33.9050 C.3     1  UNL1        0.0887
     12 N         -24.7580   -1.4810   32.6460 N.3     1  UNL1       -0.2191
     13 C         -25.6880    1.6140   26.4610 C.2     1  UNL1        0.0377
     14 C         -26.2500    2.9200   26.3950 C.2     1  UNL1        0.0743
     15 C         -25.6420    4.0930   27.1230 C.2     1  UNL1        0.2662
     16 N         -25.6140    5.2520   26.4490 N.am    1  UNL1       -0.1997
     17 C         -25.0260    6.4790   26.9630 C.3     1  UNL1        0.1388
     18 O         -25.1430    3.9660   28.2430 O.2     1  UNL1       -0.2683
     19 C         -27.4380    3.0910   25.6450 C.2     1  UNL1        0.1065
     20 N         -28.0750    2.0890   25.0030 N.2     1  UNL1       -0.2081
     21 C         -27.5430    0.8490   25.0790 C.2     1  UNL1        0.2530
     22 O         -28.1930   -0.2080   24.4770 O.2     1  UNL1       -0.4558
     23 C         -29.4600    0.0050   23.8660 C.3     1  UNL1        0.2426
     24 C         -30.0650   -1.3770   23.5730 C.3     1  UNL1        0.2292
     25 O         -30.7290   -1.8780   24.7210 O.3     1  UNL1       -0.2162
     26 C         -26.3540    0.5760   25.7770 C.2     1  UNL1        0.1908
     27 F         -25.8600   -0.6810   25.7950 F       1  UNL1       -0.1995
     28 O         -22.9475    2.2590   25.8858 O.2     1  UNL1       -0.4716
     29 C         -23.4907    1.7002   24.6457 C.3     1  UNL1        0.2522
     30 C         -24.2395    0.1090   29.3218 C.3     1  UNL1        0.1302
     31 C         -22.7642    0.2467   29.0697 C.2     1  UNL1        0.2177
     32 O         -27.1999    0.3674   29.1719 O.3     1  UNL1       -0.2005
     33 C         -22.3342    1.0049   27.9462 C.2     1  UNL1        0.2070
     34 C         -26.3731    0.9113   29.1093 C.3     1  UNL1        0.2598
     35 C         -23.3061    1.6110   27.0869 C.2     1  UNL1        0.1650
     36 O         -21.9944   -0.2139   29.9633 O.2     1  UNL1       -0.2874
     37 F         -21.0485    1.1947   27.7672 F       1  UNL1       -0.1982
     38 C         -24.6052    1.4094   27.4403 C.3     1  UNL1        0.1448
     39 N         -25.0105    1.2823   28.8547 N.3     1  UNL1       -0.2302
@<TRIPOS>BOND
     1     1     2    1
     2     2     7    1
     3     3     2    2
     4     4     3    1
     5     4     5    2
     6     5     6    1
     7     6     7    2
     8     8     1    1
     9     8     9    1
    10     8    12    1
    11     9    10    1
    12    10    11    1
    13    12    11    1
    14    14    13    1
    15    14    15    1
    16    15    18    2
    17    16    17    1
    18    16    15    1
    19    19    14    2
    20    20    21    2
    21    20    19    1
    22    21    26    1
    23    22    21    1
    24    23    22    1
    25    24    23    1
    26    24    25    1
    27    26    27    1
    28    26    13    2
    29    28    35    1
    30    29    28    1
    31    30     1    1
    32    31    30    1
    33    31    36    2
    34    33    31    1
    35    34    32    1
    36    35    38    1
    37    35    33    2
    38    37    33    1
    39    38    13    1
    40    38    39    1
    41    39    34    1
    42    39    30    1
