@<TRIPOS>MOLECULE
outputs/IAG933/test6/raw/output_237_IAG933_linker_design_.xyz
 43 48 0 0 0
SMALL
GASTEIGER

@<TRIPOS>ATOM
      1 C         -24.8550   -1.0120   30.1430 C.3     1  UNL1        0.1015
      2 C         -24.9730   -2.5050   29.7880 C.2     1  UNL1       -0.0135
      3 C         -23.9060   -3.1730   29.1460 C.2     1  UNL1       -0.0038
      4 C         -23.9890   -4.5490   28.8530 C.2     1  UNL1       -0.0003
      5 C         -25.1370   -5.2800   29.2050 C.2     1  UNL1       -0.0000
      6 C         -26.2320   -4.6110   29.7840 C.2     1  UNL1       -0.0003
      7 C         -26.1550   -3.2320   30.0650 C.2     1  UNL1       -0.0038
      8 C         -25.3870   -0.6790   31.5710 C.3     1  UNL1        0.0844
      9 C         -25.1890    0.7730   32.0280 C.3     1  UNL1        0.0197
     10 C         -25.3360    0.6840   33.5440 C.3     1  UNL1        0.0203
     11 C         -24.8290   -0.7150   33.9050 C.3     1  UNL1        0.0887
     12 N         -24.7580   -1.4810   32.6460 N.3     1  UNL1       -0.2187
     13 C         -25.6880    1.6140   26.4610 C.2     1  UNL1        0.0194
     14 C         -26.2500    2.9200   26.3950 C.2     1  UNL1        0.0729
     15 C         -25.6420    4.0930   27.1230 C.2     1  UNL1        0.2661
     16 N         -25.6140    5.2520   26.4490 N.am    1  UNL1       -0.1997
     17 C         -25.0260    6.4790   26.9630 C.3     1  UNL1        0.1388
     18 O         -25.1430    3.9660   28.2430 O.2     1  UNL1       -0.2683
     19 C         -27.4380    3.0910   25.6450 C.2     1  UNL1        0.1064
     20 N         -28.0750    2.0890   25.0030 N.2     1  UNL1       -0.2081
     21 C         -27.5430    0.8490   25.0790 C.2     1  UNL1        0.2530
     22 O         -28.1930   -0.2080   24.4770 O.2     1  UNL1       -0.4558
     23 C         -29.4600    0.0050   23.8660 C.3     1  UNL1        0.2426
     24 C         -30.0650   -1.3770   23.5730 C.3     1  UNL1        0.2292
     25 O         -30.7290   -1.8780   24.7210 O.3     1  UNL1       -0.2162
     26 C         -26.3540    0.5760   25.7770 C.2     1  UNL1        0.1894
     27 F         -25.8600   -0.6810   25.7950 F       1  UNL1       -0.1996
     28 N         -28.2413   -1.0392   29.3349 N.2     1  UNL1       -0.0659
     29 C         -28.7857   -0.4517   31.8914 C.3     1  UNL1        0.0052
     30 C         -28.5919    0.9689   30.7594 C.3     1  UNL1        0.0124
     31 C         -28.7281    2.1718   29.8122 C.3     1  UNL1        0.0128
     32 C         -27.4057    0.0235   29.1734 C.2     1  UNL1        0.3357
     33 C         -29.6440   -1.5319   31.1555 C.3     1  UNL1        0.0579
     34 N         -26.3450   -0.2519   28.3627 N.pl3   1  UNL1       -0.0149
     35 C         -22.5380    0.6024   28.4141 C.3     1  UNL1        0.0256
     36 C         -29.7097   -1.1880   29.6460 C.3     1  UNL1        0.2629
     37 C         -25.0017   -0.2468   28.8178 C.2     1  UNL1        0.1579
     38 C         -27.5052    1.2827   29.7230 C.3     1  UNL1        0.1094
     39 C         -23.0666    2.5828   25.3617 C.3     1  UNL1        0.0007
     40 C         -24.0892    0.4634   28.1208 C.2     1  UNL1       -0.0034
     41 C         -24.3174    1.3081   27.1276 C.3     1  UNL1        0.0462
     42 C         -23.2169    2.3258   26.8858 C.3     1  UNL1        0.0083
     43 C         -21.9365    1.6324   27.3898 C.3     1  UNL1        0.0051
@<TRIPOS>BOND
     1     1    37    1
     2     2     7    1
     3     2     1    1
     4     3     2    2
     5     4     3    1
     6     4     5    2
     7     5     6    1
     8     6     7    2
     9     8     1    1
    10     8     9    1
    11     8    12    1
    12     9    10    1
    13    10    11    1
    14    12    11    1
    15    14    13    1
    16    14    15    1
    17    15    18    2
    18    16    17    1
    19    16    15    1
    20    19    14    2
    21    20    21    2
    22    20    19    1
    23    21    26    1
    24    22    21    1
    25    23    22    1
    26    24    23    1
    27    24    25    1
    28    26    27    1
    29    26    13    2
    30    28    36    1
    31    30    31    1
    32    30    29    1
    33    32    28    2
    34    32    38    1
    35    33    29    1
    36    34    37    1
    37    34    32    1
    38    36    33    1
    39    38    31    1
    40    38    30    1
    41    40    35    1
    42    40    37    2
    43    41    13    1
    44    41    40    1
    45    42    39    1
    46    42    41    1
    47    42    43    1
    48    43    35    1
