@<TRIPOS>MOLECULE
No_2370-gen_results/8p0m/2024-11-27-11-27-31/
 18 19 0 0 0
SMALL
GASTEIGER

@<TRIPOS>ATOM
      1 C         -28.0162   -0.8135   28.8779 C.2     1  UNL1       -0.0470
      2 C         -28.4690   -0.7850   29.8287 C.2     1  UNL1       -0.0119
      3 C         -28.1960    0.3478   28.0550 C.3     1  UNL1        0.0217
      4 C         -27.4421    0.5100   26.7946 C.3     1  UNL1        0.0040
      5 C         -26.1689   -0.0794   26.6787 C.3     1  UNL1        0.0006
      6 C         -25.7312   -0.9607   27.6875 C.3     1  UNL1        0.0043
      7 C         -26.5043   -1.2222   28.7582 C.3     1  UNL1        0.0217
      8 C         -28.4210   -2.0451   30.7337 C.3     1  UNL1        0.1608
      9 C         -28.6416   -3.0482   30.3342 C.3     1  UNL1        0.3382
     10 F         -29.6090   -3.7308   30.9523 F       1  UNL1       -0.1965
     11 F         -27.5280   -4.0388   30.4010 F       1  UNL1       -0.1965
     12 N         -29.1286   -1.7570   32.0369 N.3     1  UNL1       -0.2079
     13 C         -27.7883    1.4769   25.7525 C.3     1  UNL1        0.0003
     14 C         -29.3917   -0.6104   32.4477 C.3     1  UNL1        0.1080
     15 C         -29.0774    1.5023   25.4520 C.3     1  UNL1        0.0000
     16 C         -27.3555    2.8824   26.2445 C.3     1  UNL1        0.0000
     17 C         -27.0059    0.8995   24.6272 C.3     1  UNL1        0.0000
     18 C         -25.6595    0.1084   25.3730 C.3     1  UNL1        0.0000
@<TRIPOS>BOND
     1     1     2    2
     2     1     3    1
     3     3     4    1
     4     4     5    1
     5     5     6    1
     6     1     7    1
     7     6     7    1
     8     2     8    1
     9     8     9    1
    10     9    10    1
    11     9    11    1
    12     8    12    1
    13     4    13    1
    14    12    14    1
    15    13    15    1
    16    13    16    1
    17    13    17    1
    18     5    18    1
    19    17    18    1
