@<TRIPOS>MOLECULE
outputs/IAG933/test6/raw/output_2371_IAG933_linker_design_.xyz
 41 45 0 0 0
SMALL
GASTEIGER

@<TRIPOS>ATOM
      1 C         -24.8550   -1.0120   30.1430 C.3     1  UNL1        0.1139
      2 C         -24.9730   -2.5050   29.7880 C.2     1  UNL1       -0.0029
      3 C         -23.9060   -3.1730   29.1460 C.2     1  UNL1       -0.0026
      4 C         -23.9890   -4.5490   28.8530 C.2     1  UNL1       -0.0003
      5 C         -25.1370   -5.2800   29.2050 C.2     1  UNL1       -0.0000
      6 C         -26.2320   -4.6110   29.7840 C.2     1  UNL1       -0.0003
      7 C         -26.1550   -3.2320   30.0650 C.2     1  UNL1       -0.0026
      8 C         -25.3870   -0.6790   31.5710 C.3     1  UNL1        0.0951
      9 C         -25.1890    0.7730   32.0280 C.3     1  UNL1        0.0209
     10 C         -25.3360    0.6840   33.5440 C.3     1  UNL1        0.0203
     11 C         -24.8290   -0.7150   33.9050 C.3     1  UNL1        0.0888
     12 N         -24.7580   -1.4810   32.6460 N.3     1  UNL1       -0.2174
     13 C         -25.6880    1.6140   26.4610 C.2     1  UNL1        0.0282
     14 C         -26.2500    2.9200   26.3950 C.2     1  UNL1        0.0733
     15 C         -25.6420    4.0930   27.1230 C.2     1  UNL1        0.2661
     16 N         -25.6140    5.2520   26.4490 N.am    1  UNL1       -0.1997
     17 C         -25.0260    6.4790   26.9630 C.3     1  UNL1        0.1388
     18 O         -25.1430    3.9660   28.2430 O.2     1  UNL1       -0.2683
     19 C         -27.4380    3.0910   25.6450 C.2     1  UNL1        0.1064
     20 N         -28.0750    2.0890   25.0030 N.2     1  UNL1       -0.2081
     21 C         -27.5430    0.8490   25.0790 C.2     1  UNL1        0.2530
     22 O         -28.1930   -0.2080   24.4770 O.2     1  UNL1       -0.4558
     23 C         -29.4600    0.0050   23.8660 C.3     1  UNL1        0.2426
     24 C         -30.0650   -1.3770   23.5730 C.3     1  UNL1        0.2292
     25 O         -30.7290   -1.8780   24.7210 O.3     1  UNL1       -0.2162
     26 C         -26.3540    0.5760   25.7770 C.2     1  UNL1        0.1899
     27 F         -25.8600   -0.6810   25.7950 F       1  UNL1       -0.1996
     28 C         -23.5588    0.5453   29.5025 C.3     1  UNL1        0.1297
     29 O         -26.5960   -0.2692   28.2069 O.2     1  UNL1       -0.2742
     30 C         -25.3894    0.1421   28.3967 C.2     1  UNL1        0.2336
     31 C         -23.2274    1.3254   27.4094 C.2     1  UNL1        0.0300
     32 C         -24.7032    1.1124   27.3781 C.3     1  UNL1        0.1246
     33 F         -23.2829    1.0930   24.7722 F       1  UNL1       -0.1809
     34 C         -22.8298    2.3406   24.8637 C.3     1  UNL1        0.4030
     35 C         -22.9198    0.6970   28.6346 C.3     1  UNL1        0.1807
     36 N         -24.6340   -0.1391   29.3073 N.am    1  UNL1       -0.2726
     37 O         -21.7532    2.1551   25.4832 O.2     1  UNL1       -0.4480
     38 C         -21.9939    1.7964   26.7166 C.2     1  UNL1        0.1346
     39 N         -20.6848    0.7859   28.0737 N.3     1  UNL1       -0.0751
     40 O         -21.6968    0.0523   28.5481 O.3     1  UNL1       -0.2624
     41 C         -20.7441    1.7469   27.3873 C.3     1  UNL1        0.1843
@<TRIPOS>BOND
     1     1     2    1
     2     2     7    1
     3     3     2    2
     4     4     3    1
     5     4     5    2
     6     5     6    1
     7     6     7    2
     8     8     1    1
     9     8     9    1
    10     8    12    1
    11     9    10    1
    12    10    11    1
    13    12    11    1
    14    14    13    1
    15    14    15    1
    16    15    18    2
    17    16    17    1
    18    16    15    1
    19    19    14    2
    20    20    21    2
    21    20    19    1
    22    21    26    1
    23    22    21    1
    24    23    22    1
    25    24    23    1
    26    24    25    1
    27    26    27    1
    28    26    13    2
    29    29    30    2
    30    30    36   am
    31    31    35    1
    32    32    13    1
    33    32    31    1
    34    32    30    1
    35    33    34    1
    36    34    37    1
    37    35    28    1
    38    36    28    1
    39    36     1    1
    40    37    38    1
    41    38    41    1
    42    38    31    2
    43    39    40    1
    44    40    35    1
    45    41    39    1
