@<TRIPOS>MOLECULE
No_2372-gen_results/8p0m/2024-11-27-11-27-31/
 13 14 0 0 0
SMALL
GASTEIGER

@<TRIPOS>ATOM
      1 C         -28.0162   -0.8135   28.8779 C.ar    1  UNL1       -0.0039
      2 C         -27.0636   -0.1189   28.6079 C.ar    1  UNL1       -0.0178
      3 C         -26.9287    1.1713   29.0083 C.ar    1  UNL1       -0.0039
      4 C         -27.9560    1.7411   29.7840 C.ar    1  UNL1       -0.0003
      5 C         -29.0569   -0.3271   29.7466 C.ar    1  UNL1       -0.0003
      6 C         -28.9828    0.9722   30.1516 C.ar    1  UNL1       -0.0000
      7 C         -25.8907   -0.6263   27.7857 C.3     1  UNL1        0.0526
      8 C         -24.7183   -1.0610   28.6129 C.ar    1  UNL1       -0.0178
      9 C         -24.6426   -2.2493   29.0885 C.ar    1  UNL1       -0.0039
     10 C         -23.6411   -0.1372   28.7804 C.ar    1  UNL1       -0.0039
     11 C         -22.4762   -0.6276   29.4929 C.ar    1  UNL1       -0.0003
     12 C         -23.4469   -2.7483   29.7207 C.ar    1  UNL1       -0.0003
     13 C         -22.3877   -1.8647   29.9153 C.ar    1  UNL1       -0.0000
@<TRIPOS>BOND
     1     2     7    1
     2     7     8    1
     3     1     2   ar
     4     2     3   ar
     5     3     4   ar
     6     4     6   ar
     7     6     5   ar
     8     5     1   ar
     9     8     9   ar
    10     9    12   ar
    11    12    13   ar
    12    13    11   ar
    13    11    10   ar
    14    10     8   ar
