@<TRIPOS>MOLECULE
No_2373-gen_results/8p0m/2024-11-27-11-27-31/
 11 12 0 0 0
SMALL
GASTEIGER

@<TRIPOS>ATOM
      1 O         -28.1229   -1.3353   28.4874 O.2     1  UNL1       -0.2730
      2 C         -27.4806   -0.4044   28.7094 C.2     1  UNL1        0.2461
      3 N         -27.2411    0.3910   29.5098 N.am    1  UNL1       -0.2003
      4 C         -26.4066   -0.1069   27.4496 C.3     1  UNL1        0.1128
      5 C         -25.4358    0.8473   27.6341 C.ar    1  UNL1       -0.0153
      6 C         -24.3776    1.0448   26.7250 C.ar    1  UNL1       -0.0040
      7 C         -26.3503    1.4042   29.8115 C.3     1  UNL1        0.1412
      8 C         -25.3640    1.6490   28.8653 C.ar    1  UNL1       -0.0040
      9 C         -23.2774    1.9031   27.0428 C.ar    1  UNL1       -0.0003
     10 C         -23.2584    2.5600   28.2902 C.ar    1  UNL1       -0.0003
     11 C         -24.2596    2.4515   29.1375 C.ar    1  UNL1       -0.0029
@<TRIPOS>BOND
     1     1     2    2
     2     2     3   am
     3     2     4    1
     4     4     5    1
     5     7     8    1
     6     3     7    1
     7     5     6   ar
     8     6     9   ar
     9     9    10   ar
    10    10    11   ar
    11    11     8   ar
    12     8     5   ar
