@<TRIPOS>MOLECULE
No_2374-gen_results/8p0m/2024-11-27-11-27-31/
 19 19 0 0 0
SMALL
GASTEIGER

@<TRIPOS>ATOM
      1 C         -28.0162   -0.8135   28.8779 C.ar    1  UNL1       -0.0025
      2 C         -27.0636   -0.1189   28.6079 C.ar    1  UNL1       -0.0006
      3 C         -26.9716    0.7139   27.5060 C.ar    1  UNL1       -0.0025
      4 C         -28.1053    0.7744   26.6421 C.ar    1  UNL1        0.0010
      5 C         -29.2008    0.1044   27.0527 C.ar    1  UNL1        0.0153
      6 C         -29.2096   -0.6029   28.1853 C.ar    1  UNL1        0.0010
      7 C         -30.3749    0.2232   26.1670 C.2     1  UNL1        0.0809
      8 N         -30.2997    0.0795   24.9312 N.2     1  UNL1       -0.1527
      9 C         -31.5284   -0.6982   26.6677 C.3     1  UNL1        0.0540
     10 C         -25.6917   -0.2066   29.4190 C.3     1  UNL1        0.1409
     11 N         -24.5891   -0.0745   28.9261 N.pl3   1  UNL1       -0.2069
     12 C         -23.8615    0.7956   28.6653 C.2     1  UNL1        0.2081
     13 C         -22.7069    1.1753   28.8641 C.2     1  UNL1        0.0465
     14 C         -21.9161    2.1765   28.0896 C.2     1  UNL1        0.0047
     15 C         -22.5294    2.5783   26.9241 C.2     1  UNL1        0.0450
     16 F         -23.9552    1.3253   27.1183 F       1  UNL1       -0.1863
     17 C         -23.4807    2.2250   26.0420 C.3     1  UNL1        0.3409
     18 F         -23.9748    2.4596   25.1145 F       1  UNL1       -0.1933
     19 F         -23.1833    1.0400   25.6014 F       1  UNL1       -0.1933
@<TRIPOS>BOND
     1     5     7    1
     2     7     8    2
     3     7     9    1
     4     2    10    1
     5    10    11    1
     6    11    12    1
     7    12    13    2
     8    13    14    1
     9    14    15    2
    10    12    16    1
    11    15    17    1
    12    17    18    1
    13    17    19    1
    14     1     2   ar
    15     2     3   ar
    16     3     4   ar
    17     4     5   ar
    18     5     6   ar
    19     6     1   ar
