@<TRIPOS>MOLECULE
outputs/IAG933/test6/raw/output_2376_IAG933_linker_design_.xyz
 47 51 0 0 0
SMALL
GASTEIGER

@<TRIPOS>ATOM
      1 C         -24.8550   -1.0120   30.1430 C.3     1  UNL1        0.0451
      2 C         -24.9730   -2.5050   29.7880 C.2     1  UNL1       -0.0207
      3 C         -23.9060   -3.1730   29.1460 C.2     1  UNL1       -0.0042
      4 C         -23.9890   -4.5490   28.8530 C.2     1  UNL1       -0.0003
      5 C         -25.1370   -5.2800   29.2050 C.2     1  UNL1       -0.0000
      6 C         -26.2320   -4.6110   29.7840 C.2     1  UNL1       -0.0003
      7 C         -26.1550   -3.2320   30.0650 C.2     1  UNL1       -0.0042
      8 C         -25.3870   -0.6790   31.5710 C.3     1  UNL1        0.0772
      9 C         -25.1890    0.7730   32.0280 C.3     1  UNL1        0.0192
     10 C         -25.3360    0.6840   33.5440 C.3     1  UNL1        0.0202
     11 C         -24.8290   -0.7150   33.9050 C.3     1  UNL1        0.0887
     12 N         -24.7580   -1.4810   32.6460 N.3     1  UNL1       -0.2191
     13 C         -25.6880    1.6140   26.4610 C.3     1  UNL1        0.1853
     14 C         -26.2500    2.9200   26.3950 C.2     1  UNL1        0.0820
     15 C         -25.6420    4.0930   27.1230 C.2     1  UNL1        0.2647
     16 N         -25.6140    5.2520   26.4490 N.am    1  UNL1       -0.1999
     17 C         -25.0260    6.4790   26.9630 C.3     1  UNL1        0.1388
     18 O         -25.1430    3.9660   28.2430 O.2     1  UNL1       -0.2686
     19 C         -27.4380    3.0910   25.6450 C.2     1  UNL1        0.1045
     20 N         -28.0750    2.0890   25.0030 N.2     1  UNL1       -0.2117
     21 C         -27.5430    0.8490   25.0790 C.2     1  UNL1        0.2367
     22 O         -28.1930   -0.2080   24.4770 O.2     1  UNL1       -0.4586
     23 C         -29.4600    0.0050   23.8660 C.3     1  UNL1        0.2388
     24 C         -30.0650   -1.3770   23.5730 C.3     1  UNL1        0.1893
     25 O         -30.7290   -1.8780   24.7210 O.3     1  UNL1       -0.3497
     26 C         -26.3540    0.5760   25.7770 C.3     1  UNL1        0.2670
     27 F         -25.8600   -0.6810   25.7950 F       1  UNL1       -0.2242
     28 C         -30.2855    2.8898   27.4859 C.3     1  UNL1        0.0003
     29 C         -24.7693    0.1481   28.1216 C.3     1  UNL1        0.1767
     30 C         -29.5911   -1.3053   28.5507 C.3     1  UNL1        0.1356
     31 C         -29.6564    1.0802   29.1641 C.3     1  UNL1        0.0203
     32 C         -23.1318    0.3832   28.4857 C.2     1  UNL1        0.1778
     33 C         -27.1746    0.2720   29.2595 C.2     1  UNL1       -0.0294
     34 C         -21.0127    1.4609   27.4992 C.3     1  UNL1        0.0083
     35 O         -22.5148   -0.0821   29.4546 O.2     1  UNL1       -0.2935
     36 O         -25.1666    1.4678   27.7230 O.3     1  UNL1       -0.3430
     37 C         -31.6196    0.1928   27.8821 C.3     1  UNL1        0.0056
     38 O         -30.3116   -1.9570   29.6728 O.3     1  UNL1       -0.3494
     39 C         -22.5713    1.4917   27.4327 C.3     1  UNL1        0.0671
     40 C         -31.3562    0.5569   29.2861 C.3     1  UNL1        0.0040
     41 C         -25.8138   -0.1197   29.1866 C.3     1  UNL1        0.0612
     42 C         -29.7943   -3.0179   30.5655 C.3     1  UNL1        0.1744
     43 C         -29.1957    2.3244   28.3735 C.3     1  UNL1        0.0041
     44 C         -30.4125   -0.6608   27.3714 C.3     1  UNL1        0.0607
     45 C         -28.6876   -0.1762   29.0864 C.2     1  UNL1       -0.0220
     46 C         -30.7478   -1.6599   26.1045 C.3     1  UNL1        0.1450
     47 C         -32.2349   -0.2431   30.3267 C.3     1  UNL1        0.0003
@<TRIPOS>BOND
     1     1     2    1
     2     2     7    1
     3     3     2    2
     4     4     3    1
     5     4     5    2
     6     5     6    1
     7     6     7    2
     8     8     1    1
     9     8     9    1
    10     8    12    1
    11     9    10    1
    12    10    11    1
    13    12    11    1
    14    13    14    1
    15    13    36    1
    16    14    15    1
    17    15    18    2
    18    16    17    1
    19    16    15    1
    20    19    14    2
    21    20    21    2
    22    20    19    1
    23    21    26    1
    24    22    21    1
    25    23    22    1
    26    24    23    1
    27    24    25    1
    28    25    46    1
    29    26    27    1
    30    26    13    1
    31    28    43    1
    32    29    32    1
    33    29    41    1
    34    30    45    1
    35    30    38    1
    36    31    43    1
    37    31    40    1
    38    32    35    2
    39    36    29    1
    40    37    40    1
    41    38    42    1
    42    39    34    1
    43    39    32    1
    44    40    47    1
    45    41    33    1
    46    41     1    1
    47    44    46    1
    48    44    37    1
    49    44    30    1
    50    45    31    1
    51    45    33    2
