@<TRIPOS>MOLECULE
No_2379-gen_results/8p0m/2024-11-27-11-27-31/
 32 35 0 0 0
SMALL
GASTEIGER

@<TRIPOS>ATOM
      1 C         -28.0162   -0.8135   28.8779 C.ar    1  UNL1        0.0372
      2 C         -28.4690   -0.7850   29.8287 C.ar    1  UNL1        0.1453
      3 C         -26.5455   -0.8762   28.8500 C.ar    1  UNL1       -0.0008
      4 C         -25.8041   -1.0324   30.0571 C.ar    1  UNL1       -0.0176
      5 C         -27.9437   -0.9869   31.2075 C.ar    1  UNL1        0.0372
      6 C         -26.5825   -1.0386   31.2231 C.ar    1  UNL1       -0.0008
      7 O         -29.9267   -0.7257   29.8772 O.3     1  UNL1       -0.4535
      8 C         -30.5050   -0.0237   28.9624 C.ar    1  UNL1        0.1453
      9 C         -31.3773   -0.3992   28.1172 C.ar    1  UNL1        0.0377
     10 C         -31.9394    0.3227   27.0412 C.ar    1  UNL1        0.0099
     11 C         -31.4912    1.6577   26.9464 C.ar    1  UNL1        0.0783
     12 C         -30.0152    1.3636   28.7408 C.ar    1  UNL1        0.0377
     13 C         -30.5425    2.1519   27.8151 C.ar    1  UNL1        0.0099
     14 C         -24.3782   -1.1203   30.0680 C.3     1  UNL1        0.0526
     15 C         -23.6250   -1.0037   29.0103 C.ar    1  UNL1       -0.0178
     16 C         -22.1630   -0.8775   29.1062 C.ar    1  UNL1       -0.0039
     17 C         -21.4616   -0.3448   28.0581 C.ar    1  UNL1       -0.0003
     18 C         -22.1675    0.6845   27.2726 C.ar    1  UNL1       -0.0000
     19 C         -23.6014    0.7553   27.3153 C.ar    1  UNL1       -0.0006
     20 C         -24.1942   -0.8381   27.7370 C.ar    1  UNL1       -0.0039
     21 C         -24.3686    1.4694   26.3228 C.2     1  UNL1       -0.0042
     22 C         -25.5626    1.1592   26.0332 C.2     1  UNL1       -0.0214
     23 C         -26.5782    1.5835   25.6266 C.3     1  UNL1        0.0523
     24 C         -27.5811    0.9504   24.8284 C.ar    1  UNL1       -0.0178
     25 C         -28.8821    1.4013   24.5808 C.ar    1  UNL1       -0.0039
     26 C         -29.8354    0.6322   23.9821 C.ar    1  UNL1       -0.0003
     27 C         -29.4740   -0.7269   23.7691 C.ar    1  UNL1       -0.0000
     28 C         -28.2281   -1.2164   24.0334 C.ar    1  UNL1       -0.0003
     29 C         -27.2848   -0.4362   24.6231 C.ar    1  UNL1       -0.0039
     30 P         -32.2612    2.7145   25.7267 P.3     1  UNL1        0.4207
     31 O         -32.7718    1.9240   24.6202 O.2     1  UNL1       -0.2564
     32 O         -31.1467    3.6826   25.3285 O.2     1  UNL1       -0.2564
@<TRIPOS>BOND
     1     2     7    1
     2     7     8    1
     3     4    14    1
     4    19    21    1
     5    21    22    2
     6    22    23    1
     7    11    30    1
     8    30    31    2
     9    30    32    2
    10    23    24    1
    11    14    15    1
    12    15    16   ar
    13    16    17   ar
    14    17    18   ar
    15    18    19   ar
    16    19    20   ar
    17    20    15   ar
    18    24    25   ar
    19    25    26   ar
    20    26    27   ar
    21    27    28   ar
    22    28    29   ar
    23    29    24   ar
    24     1     2   ar
    25     2     5   ar
    26     5     6   ar
    27     6     4   ar
    28     4     3   ar
    29     3     1   ar
    30     8     9   ar
    31     9    10   ar
    32    10    11   ar
    33    11    13   ar
    34    13    12   ar
    35    12     8   ar
