@<TRIPOS>MOLECULE
outputs/IAG933/test6/raw/output_2380_IAG933_linker_design_.xyz
 40 43 0 0 0
SMALL
GASTEIGER

@<TRIPOS>ATOM
      1 C         -24.8550   -1.0120   30.1430 C.3     1  UNL1        0.1852
      2 C         -24.9730   -2.5050   29.7880 C.2     1  UNL1        0.0139
      3 C         -23.9060   -3.1730   29.1460 C.2     1  UNL1       -0.0012
      4 C         -23.9890   -4.5490   28.8530 C.2     1  UNL1       -0.0002
      5 C         -25.1370   -5.2800   29.2050 C.2     1  UNL1       -0.0000
      6 C         -26.2320   -4.6110   29.7840 C.2     1  UNL1       -0.0002
      7 C         -26.1550   -3.2320   30.0650 C.2     1  UNL1       -0.0012
      8 C         -25.3870   -0.6790   31.5710 C.3     1  UNL1        0.1122
      9 C         -25.1890    0.7730   32.0280 C.3     1  UNL1        0.0225
     10 C         -25.3360    0.6840   33.5440 C.3     1  UNL1        0.0204
     11 C         -24.8290   -0.7150   33.9050 C.3     1  UNL1        0.0888
     12 N         -24.7580   -1.4810   32.6460 N.3     1  UNL1       -0.2159
     13 C         -25.6880    1.6140   26.4610 C.2     1  UNL1        0.0535
     14 C         -26.2500    2.9200   26.3950 C.2     1  UNL1        0.0757
     15 C         -25.6420    4.0930   27.1230 C.2     1  UNL1        0.2662
     16 N         -25.6140    5.2520   26.4490 N.am    1  UNL1       -0.1997
     17 C         -25.0260    6.4790   26.9630 C.3     1  UNL1        0.1388
     18 O         -25.1430    3.9660   28.2430 O.2     1  UNL1       -0.2683
     19 C         -27.4380    3.0910   25.6450 C.2     1  UNL1        0.1065
     20 N         -28.0750    2.0890   25.0030 N.2     1  UNL1       -0.2081
     21 C         -27.5430    0.8490   25.0790 C.2     1  UNL1        0.2531
     22 O         -28.1930   -0.2080   24.4770 O.2     1  UNL1       -0.4558
     23 C         -29.4600    0.0050   23.8660 C.3     1  UNL1        0.2426
     24 C         -30.0650   -1.3770   23.5730 C.3     1  UNL1        0.2292
     25 O         -30.7290   -1.8780   24.7210 O.3     1  UNL1       -0.2162
     26 C         -26.3540    0.5760   25.7770 C.2     1  UNL1        0.1922
     27 F         -25.8600   -0.6810   25.7950 F       1  UNL1       -0.1995
     28 C         -23.8741    0.7039   28.5099 C.cat   1  UNL1        0.3967
     29 C         -22.2423    1.4764   27.2793 C.2     1  UNL1        0.3385
     30 C         -28.8394    4.2934   30.5286 C.1     1  UNL1        0.0001
     31 O         -22.7873    2.6734   25.4364 O.3     1  UNL1        0.0312
     32 C         -24.5357    1.4998   27.1041 C.3     1  UNL1        0.2050
     33 C         -26.3306    1.3624   29.2636 C.1     1  UNL1        0.0920
     34 O         -21.7662    2.1088   26.2011 O.2     1  UNL1       -0.2671
     35 N         -25.1133    0.1388   29.2417 N.pl3   1  UNL1       -0.1306
     36 N         -23.5866    1.2639   27.4838 N.pl3   1  UNL1       -0.1373
     37 C         -27.1864    2.4727   29.5849 C.1     1  UNL1        0.0234
     38 C         -21.6109    0.8393   28.3500 C.2     1  UNL1        0.2664
     39 C         -28.0283    3.4185   30.0842 C.1     1  UNL1        0.0019
     40 N         -22.6318    0.3277   29.1441 N.2     1  UNL1       -0.0645
@<TRIPOS>BOND
     1     1    35    1
     2     2     7    1
     3     2     1    1
     4     3     2    2
     5     4     3    1
     6     4     5    2
     7     5     6    1
     8     6     7    2
     9     8     1    1
    10     8     9    1
    11     8    12    1
    12     9    10    1
    13    10    11    1
    14    12    11    1
    15    13    32    1
    16    14    13    1
    17    14    15    1
    18    15    18    2
    19    16    17    1
    20    16    15    1
    21    19    14    2
    22    20    21    2
    23    20    19    1
    24    21    26    1
    25    22    21    1
    26    23    22    1
    27    24    23    1
    28    24    25    1
    29    26    27    1
    30    26    13    2
    31    28    40    2
    32    28    35    1
    33    29    36    1
    34    29    38    2
    35    31    34    1
    36    32    36    1
    37    33    37    3
    38    34    29    1
    39    35    33    1
    40    36    28    1
    41    37    39    1
    42    38    40    1
    43    39    30    3
