@<TRIPOS>MOLECULE
No_2382-gen_results/8p0m/2024-11-27-11-27-31/
 10 11 0 0 0
SMALL
GASTEIGER

@<TRIPOS>ATOM
      1 O         -28.1229   -1.3353   28.4874 O.2     1  UNL1       -0.2491
      2 C         -27.4806   -0.4044   28.7094 C.2     1  UNL1        0.3405
      3 N         -26.4599   -0.1104   28.0051 N.am    1  UNL1       -0.1710
      4 C         -25.8102    0.6598   28.0792 C.3     1  UNL1        0.1709
      5 C         -25.8032    1.6173   29.1338 C.3     1  UNL1        0.0599
      6 N         -27.7918    0.3736   29.9159 N.am    1  UNL1       -0.1871
      7 C         -26.9012    1.4172   30.0625 C.3     1  UNL1        0.1200
      8 N         -24.6681    1.1771   27.3531 N.3     1  UNL1       -0.1986
      9 C         -24.1226    2.1928   27.9524 C.3     1  UNL1        0.0907
     10 C         -24.7978    2.5482   29.0577 C.3     1  UNL1        0.0238
@<TRIPOS>BOND
     1     1     2    2
     2     2     3   am
     3     3     4    1
     4     4     5    1
     5     2     6   am
     6     4     8    1
     7     8     9    1
     8     5    10    1
     9     9    10    1
    10     5     7    1
    11     7     6    1
