@<TRIPOS>MOLECULE
outputs/IAG933/test6/raw/output_2386_IAG933_linker_design_.xyz
 44 48 0 0 0
SMALL
GASTEIGER

@<TRIPOS>ATOM
      1 C         -24.8550   -1.0120   30.1430 C.3     1  UNL1        0.1113
      2 C         -24.9730   -2.5050   29.7880 C.2     1  UNL1       -0.0030
      3 C         -23.9060   -3.1730   29.1460 C.2     1  UNL1       -0.0026
      4 C         -23.9890   -4.5490   28.8530 C.2     1  UNL1       -0.0003
      5 C         -25.1370   -5.2800   29.2050 C.2     1  UNL1       -0.0000
      6 C         -26.2320   -4.6110   29.7840 C.2     1  UNL1       -0.0003
      7 C         -26.1550   -3.2320   30.0650 C.2     1  UNL1       -0.0026
      8 C         -25.3870   -0.6790   31.5710 C.3     1  UNL1        0.0950
      9 C         -25.1890    0.7730   32.0280 C.3     1  UNL1        0.0209
     10 C         -25.3360    0.6840   33.5440 C.3     1  UNL1        0.0203
     11 C         -24.8290   -0.7150   33.9050 C.3     1  UNL1        0.0888
     12 N         -24.7580   -1.4810   32.6460 N.3     1  UNL1       -0.2174
     13 C         -25.6880    1.6140   26.4610 C.3     1  UNL1        0.0963
     14 C         -26.2500    2.9200   26.3950 C.2     1  UNL1        0.0590
     15 C         -25.6420    4.0930   27.1230 C.2     1  UNL1        0.2628
     16 N         -25.6140    5.2520   26.4490 N.am    1  UNL1       -0.2000
     17 C         -25.0260    6.4790   26.9630 C.3     1  UNL1        0.1388
     18 O         -25.1430    3.9660   28.2430 O.2     1  UNL1       -0.2686
     19 C         -27.4380    3.0910   25.6450 C.2     1  UNL1        0.1025
     20 N         -28.0750    2.0890   25.0030 N.2     1  UNL1       -0.2118
     21 C         -27.5430    0.8490   25.0790 C.2     1  UNL1        0.2344
     22 O         -28.1930   -0.2080   24.4770 O.2     1  UNL1       -0.4585
     23 C         -29.4600    0.0050   23.8660 C.3     1  UNL1        0.2423
     24 C         -30.0650   -1.3770   23.5730 C.3     1  UNL1        0.2292
     25 O         -30.7290   -1.8780   24.7210 O.3     1  UNL1       -0.2162
     26 C         -26.3540    0.5760   25.7770 C.3     1  UNL1        0.2441
     27 F         -25.8600   -0.6810   25.7950 F       1  UNL1       -0.2265
     28 C         -30.1904    3.0726   28.2178 C.2     1  UNL1        0.0138
     29 C         -24.7855    1.1981   27.5095 C.2     1  UNL1        0.0325
     30 C         -23.0245    0.1720   29.1775 C.3     1  UNL1        0.1166
     31 C         -29.6061    0.7600   28.1887 C.2     1  UNL1       -0.0042
     32 C         -21.0495    1.2606   27.9330 C.3     1  UNL1        0.0314
     33 C         -29.2249    2.0606   28.4457 C.2     1  UNL1       -0.0205
     34 C         -31.4510    2.7780   27.6666 C.2     1  UNL1        0.0888
     35 C         -26.7784    0.9306   29.0882 C.3     1  UNL1        0.0455
     36 N         -24.4038   -0.0445   29.2904 N.pl3   1  UNL1       -0.3037
     37 C         -31.7217    1.4669   27.3439 C.2     1  UNL1        0.0180
     38 C         -23.4070    1.4948   27.2418 C.2     1  UNL1        0.1867
     39 C         -30.7982    0.4412   27.6395 C.2     1  UNL1        0.0011
     40 C         -25.3023    0.6444   28.5933 C.2     1  UNL1        0.0250
     41 N         -32.3717    3.8036   27.4945 N.pl3   1  UNL1       -0.1281
     42 O         -22.9587    2.3028   26.2828 O.2     1  UNL1       -0.2875
     43 C         -22.5390    0.9598   28.2079 C.2     1  UNL1        0.0144
     44 C         -27.7585    2.2122   28.8477 C.3     1  UNL1        0.0324
@<TRIPOS>BOND
     1     1     2    1
     2     2     7    1
     3     3     2    2
     4     4     3    1
     5     4     5    2
     6     5     6    1
     7     6     7    2
     8     8     1    1
     9     8     9    1
    10     8    12    1
    11     9    10    1
    12    10    11    1
    13    12    11    1
    14    13    29    1
    15    14    13    1
    16    14    15    1
    17    15    18    2
    18    16    17    1
    19    16    15    1
    20    19    14    2
    21    20    21    2
    22    20    19    1
    23    21    26    1
    24    22    21    1
    25    23    22    1
    26    24    23    1
    27    24    25    1
    28    26    27    1
    29    26    13    1
    30    28    33    1
    31    29    40    2
    32    30    36    1
    33    31    33    2
    34    32    43    1
    35    33    44    1
    36    34    28    2
    37    36     1    1
    38    37    39    2
    39    37    34    1
    40    38    29    1
    41    38    43    2
    42    39    31    1
    43    40    35    1
    44    40    36    1
    45    41    34    1
    46    42    38    1
    47    43    30    1
    48    44    35    1
