@<TRIPOS>MOLECULE
No_2387-gen_results/8p0m/2024-11-27-11-27-31/
 24 27 0 0 0
SMALL
GASTEIGER

@<TRIPOS>ATOM
      1 C         -28.0162   -0.8135   28.8779 C.ar    1  UNL1        0.0114
      2 C         -27.0636   -0.1189   28.6079 C.ar    1  UNL1        0.0009
      3 C         -25.7923   -0.4302   29.0761 C.ar    1  UNL1        0.0014
      4 C         -24.5456    0.3494   28.8225 C.ar    1  UNL1        0.0167
      5 C         -23.2409    0.0217   29.3323 C.ar    1  UNL1        0.0014
      6 C         -27.8820   -1.8995   29.8633 C.ar    1  UNL1        0.0577
      7 C         -26.6526   -2.3142   30.3138 C.ar    1  UNL1        0.0114
      8 C         -25.5153   -1.5607   29.9787 C.ar    1  UNL1        0.0009
      9 C         -22.1588    0.7866   28.9507 C.ar    1  UNL1        0.0032
     10 C         -22.1309    1.7439   27.9818 C.ar    1  UNL1        0.0383
     11 C         -24.5165    1.3706   27.7930 C.ar    1  UNL1        0.0887
     12 C         -23.3378    2.0353   27.4273 C.ar    1  UNL1        0.1543
     13 CL        -29.2374   -2.8463   30.3431 Cl      1  UNL1       -0.0822
     14 O         -23.4660    2.9820   26.4698 O.3     1  UNL1       -0.4536
     15 C         -24.7527    2.9609   25.8668 C.3     1  UNL1        0.3097
     16 N         -25.5446    1.7365   27.0266 N.pl3   1  UNL1       -0.2460
     17 C         -26.5749    1.7787   26.3263 C.2     1  UNL1        0.0683
     18 C         -27.1904    1.7692   25.4902 C.2     1  UNL1        0.0162
     19 C         -28.5550    1.3855   25.1367 C.ar    1  UNL1        0.0013
     20 C         -29.3153    1.1033   26.2292 C.ar    1  UNL1        0.0000
     21 C         -30.6137    0.6398   26.0260 C.ar    1  UNL1        0.0000
     22 C         -31.0224    0.3795   24.7411 C.ar    1  UNL1        0.0000
     23 C         -30.2474    0.6070   23.6230 C.ar    1  UNL1        0.0000
     24 C         -28.9845    1.1107   23.8554 C.ar    1  UNL1        0.0000
@<TRIPOS>BOND
     1     3     4    1
     2     6    13    1
     3    12    14    1
     4    14    15    1
     5    11    16    1
     6    15    16    1
     7    16    17    1
     8    17    18    2
     9    18    19    1
    10     1     2   ar
    11     2     3   ar
    12     3     8   ar
    13     8     7   ar
    14     7     6   ar
    15     6     1   ar
    16    19    20   ar
    17    20    21   ar
    18    21    22   ar
    19    22    23   ar
    20    23    24   ar
    21    24    19   ar
    22     4     5   ar
    23     5     9   ar
    24     9    10   ar
    25    10    12   ar
    26    12    11   ar
    27    11     4   ar
