@<TRIPOS>MOLECULE
No_2388-gen_results/8p0m/2024-11-27-11-27-31/
 14 15 0 0 0
SMALL
GASTEIGER

@<TRIPOS>ATOM
      1 C         -28.0162   -0.8135   28.8779 C.ar    1  UNL1        0.1012
      2 C         -27.0636   -0.1189   28.6079 C.ar    1  UNL1        0.0193
      3 C         -26.9716    0.7139   27.5060 C.ar    1  UNL1        0.0055
      4 C         -25.8206    1.4910   27.1160 C.ar    1  UNL1        0.0067
      5 C         -24.6562    1.4242   27.9180 C.ar    1  UNL1        0.0798
      6 C         -24.6847    0.5901   29.0659 C.ar    1  UNL1        0.0066
      7 C         -25.8099   -0.1265   29.3338 C.ar    1  UNL1        0.0018
      8 N         -29.1935   -0.1896   29.0164 N.ar    1  UNL1       -0.2165
      9 C         -23.4634    2.1759   27.6079 C.2     1  UNL1        0.3878
     10 O         -22.3529    1.8769   28.1375 O.co2   1  UNL1       -0.2406
     11 O         -23.4602    2.9302   26.5464 O.co2   1  UNL1       -0.2406
     12 C         -29.4882    0.7633   28.3684 C.ar    1  UNL1        0.2223
     13 F         -30.6307    1.2927   28.3143 F       1  UNL1       -0.1832
     14 C         -28.6134    1.5054   27.4158 C.ar    1  UNL1        0.0497
@<TRIPOS>BOND
     1     5     9    1
     2     9    10   ar
     3     9    11   ar
     4    12    13    1
     5     3     4   ar
     6     4     5   ar
     7     5     6   ar
     8     6     7   ar
     9     7     2   ar
    10     1     2   ar
    11     2     3   ar
    12     3    14   ar
    13    14    12   ar
    14    12     8   ar
    15     8     1   ar
