@<TRIPOS>MOLECULE
outputs/IAG933/test6/raw/output_2390_IAG933_linker_design_.xyz
 41 44 0 0 0
SMALL
GASTEIGER

@<TRIPOS>ATOM
      1 C         -24.8550   -1.0120   30.1430 C.3     1  UNL1        0.0438
      2 C         -24.9730   -2.5050   29.7880 C.2     1  UNL1       -0.0208
      3 C         -23.9060   -3.1730   29.1460 C.2     1  UNL1       -0.0042
      4 C         -23.9890   -4.5490   28.8530 C.2     1  UNL1       -0.0003
      5 C         -25.1370   -5.2800   29.2050 C.2     1  UNL1       -0.0000
      6 C         -26.2320   -4.6110   29.7840 C.2     1  UNL1       -0.0003
      7 C         -26.1550   -3.2320   30.0650 C.2     1  UNL1       -0.0042
      8 C         -25.3870   -0.6790   31.5710 C.3     1  UNL1        0.0796
      9 C         -25.1890    0.7730   32.0280 C.3     1  UNL1        0.0481
     10 C         -25.3360    0.6840   33.5440 C.3     1  UNL1        0.0227
     11 C         -24.8290   -0.7150   33.9050 C.3     1  UNL1        0.0888
     12 N         -24.7580   -1.4810   32.6460 N.3     1  UNL1       -0.2190
     13 C         -25.6880    1.6140   26.4610 C.2     1  UNL1        0.1085
     14 C         -26.2500    2.9200   26.3950 C.2     1  UNL1        0.0918
     15 C         -25.6420    4.0930   27.1230 C.2     1  UNL1        0.2677
     16 N         -25.6140    5.2520   26.4490 N.am    1  UNL1       -0.1997
     17 C         -25.0260    6.4790   26.9630 C.3     1  UNL1        0.1388
     18 O         -25.1430    3.9660   28.2430 O.2     1  UNL1       -0.2683
     19 C         -27.4380    3.0910   25.6450 C.2     1  UNL1        0.1080
     20 N         -28.0750    2.0890   25.0030 N.2     1  UNL1       -0.2080
     21 C         -27.5430    0.8490   25.0790 C.2     1  UNL1        0.2546
     22 O         -28.1930   -0.2080   24.4770 O.2     1  UNL1       -0.4558
     23 C         -29.4600    0.0050   23.8660 C.3     1  UNL1        0.2426
     24 C         -30.0650   -1.3770   23.5730 C.3     1  UNL1        0.2292
     25 O         -30.7290   -1.8780   24.7210 O.3     1  UNL1       -0.2162
     26 C         -26.3540    0.5760   25.7770 C.2     1  UNL1        0.2082
     27 F         -25.8600   -0.6810   25.7950 F       1  UNL1       -0.1978
     28 C         -25.2339    3.4736   31.5884 C.3     1  UNL1        0.2574
     29 C         -23.1598    1.0315   29.4314 C.3     1  UNL1        0.1731
     30 C         -23.5659    1.4904   26.9302 C.2     1  UNL1        0.1095
     31 C         -24.5940    2.0361   31.3528 C.3     1  UNL1        0.1563
     32 N         -25.3768    5.8018   32.4225 N.am    1  UNL1       -0.0855
     33 O         -24.2061    4.2601   33.5693 O.2     1  UNL1       -0.2688
     34 C         -22.7045    1.3492   27.9762 C.2     1  UNL1        0.0632
     35 C         -21.4678    1.6642   27.4425 C.2     1  UNL1        0.1792
     36 O         -24.2888    1.8375   29.8775 O.3     1  UNL1       -0.3482
     37 O         -26.5969    3.2969   31.9668 O.3     1  UNL1       -0.2105
     38 C         -22.9947    1.8714   25.7378 C.2     1  UNL1        0.1958
     39 C         -24.9224    4.4883   32.6022 C.2     1  UNL1        0.2937
     40 O         -21.5756    1.9949   26.0189 O.2     1  UNL1       -0.4462
     41 N         -24.5720    1.3486   27.1171 N.pl3   1  UNL1       -0.2068
@<TRIPOS>BOND
     1     2     7    1
     2     2     1    1
     3     3     2    2
     4     4     3    1
     5     4     5    2
     6     5     6    1
     7     6     7    2
     8     8     1    1
     9     8     9    1
    10     8    12    1
    11     9    31    1
    12     9    10    1
    13    10    11    1
    14    12    11    1
    15    13    41    1
    16    14    13    1
    17    14    15    1
    18    15    18    2
    19    16    17    1
    20    16    15    1
    21    19    14    2
    22    20    21    2
    23    20    19    1
    24    21    26    1
    25    22    21    1
    26    23    22    1
    27    24    23    1
    28    24    25    1
    29    26    27    1
    30    26    13    2
    31    28    37    1
    32    28    39    1
    33    29    36    1
    34    30    41    1
    35    30    34    1
    36    31    36    1
    37    31    28    1
    38    32    39    1
    39    34    29    1
    40    35    34    2
    41    38    40    1
    42    38    30    2
    43    39    33    2
    44    40    35    1
