@<TRIPOS>MOLECULE
outputs/IAG933/test6/raw/output_2392_IAG933_linker_design_.xyz
 43 45 0 0 0
SMALL
GASTEIGER

@<TRIPOS>ATOM
      1 C         -24.8550   -1.0120   30.1430 C.3     1  UNL1        0.0652
      2 C         -24.9730   -2.5050   29.7880 C.2     1  UNL1       -0.0192
      3 C         -23.9060   -3.1730   29.1460 C.2     1  UNL1       -0.0042
      4 C         -23.9890   -4.5490   28.8530 C.2     1  UNL1       -0.0003
      5 C         -25.1370   -5.2800   29.2050 C.2     1  UNL1       -0.0000
      6 C         -26.2320   -4.6110   29.7840 C.2     1  UNL1       -0.0003
      7 C         -26.1550   -3.2320   30.0650 C.2     1  UNL1       -0.0042
      8 C         -25.3870   -0.6790   31.5710 C.3     1  UNL1        0.0787
      9 C         -25.1890    0.7730   32.0280 C.3     1  UNL1        0.0193
     10 C         -25.3360    0.6840   33.5440 C.3     1  UNL1        0.0202
     11 C         -24.8290   -0.7150   33.9050 C.3     1  UNL1        0.0887
     12 N         -24.7580   -1.4810   32.6460 N.3     1  UNL1       -0.2191
     13 C         -25.6880    1.6140   26.4610 C.3     1  UNL1        0.0715
     14 C         -26.2500    2.9200   26.3950 C.2     1  UNL1        0.0548
     15 C         -25.6420    4.0930   27.1230 C.2     1  UNL1        0.2624
     16 N         -25.6140    5.2520   26.4490 N.am    1  UNL1       -0.2000
     17 C         -25.0260    6.4790   26.9630 C.3     1  UNL1        0.1388
     18 O         -25.1430    3.9660   28.2430 O.2     1  UNL1       -0.2687
     19 C         -27.4380    3.0910   25.6450 C.2     1  UNL1        0.1021
     20 N         -28.0750    2.0890   25.0030 N.2     1  UNL1       -0.2119
     21 C         -27.5430    0.8490   25.0790 C.2     1  UNL1        0.2341
     22 O         -28.1930   -0.2080   24.4770 O.2     1  UNL1       -0.4585
     23 C         -29.4600    0.0050   23.8660 C.3     1  UNL1        0.2423
     24 C         -30.0650   -1.3770   23.5730 C.3     1  UNL1        0.2292
     25 O         -30.7290   -1.8780   24.7210 O.3     1  UNL1       -0.2162
     26 C         -26.3540    0.5760   25.7770 C.3     1  UNL1        0.2400
     27 F         -25.8600   -0.6810   25.7950 F       1  UNL1       -0.2269
     28 N         -27.5064    6.3777   30.2971 N.am    1  UNL1       -0.0878
     29 C         -24.1715    1.4628   26.6967 C.3     1  UNL1        0.0252
     30 C         -28.4613    3.3689   29.0300 C.3     1  UNL1        0.0571
     31 O         -27.8239    1.2012   30.2935 O.3     1  UNL1       -0.4475
     32 O         -26.9380    4.4310   31.3789 O.2     1  UNL1       -0.2717
     33 C         -23.7260    1.2742   28.1884 C.3     1  UNL1        0.0738
     34 C         -27.2435    0.1548   29.4937 C.2     1  UNL1        0.3333
     35 C         -21.4741    1.7448   26.6397 C.3     1  UNL1        0.0000
     36 C         -22.5346    0.4145   28.6767 C.3     1  UNL1        0.0174
     37 O         -27.9974   -0.6479   29.0163 O.2     1  UNL1       -0.2485
     38 C         -25.6841   -0.1270   29.1822 C.3     1  UNL1        0.1767
     39 C         -21.3327    1.1027   28.0355 C.3     1  UNL1        0.0014
     40 C         -28.8829    4.3938   30.0658 C.3     1  UNL1        0.0924
     41 C         -27.6847    5.1155   30.6612 C.2     1  UNL1        0.2609
     42 C         -28.8451    1.9296   29.5908 C.3     1  UNL1        0.2090
     43 N         -24.9762    1.1754   28.9829 N.3     1  UNL1       -0.2096
@<TRIPOS>BOND
     1     1    38    1
     2     2     7    1
     3     2     1    1
     4     3     2    2
     5     4     3    1
     6     4     5    2
     7     5     6    1
     8     6     7    2
     9     8     1    1
    10     8     9    1
    11     8    12    1
    12     9    10    1
    13    10    11    1
    14    12    11    1
    15    13    29    1
    16    14    13    1
    17    14    15    1
    18    15    18    2
    19    16    17    1
    20    16    15    1
    21    19    14    2
    22    20    21    2
    23    20    19    1
    24    21    26    1
    25    22    21    1
    26    23    22    1
    27    24    23    1
    28    24    25    1
    29    26    27    1
    30    26    13    1
    31    28    41    1
    32    30    42    1
    33    30    40    1
    34    33    29    1
    35    33    36    1
    36    33    43    1
    37    34    31    1
    38    35    39    1
    39    37    34    2
    40    38    43    1
    41    38    34    1
    42    39    36    1
    43    40    41    1
    44    41    32    2
    45    42    31    1
