@<TRIPOS>MOLECULE
outputs/IAG933/test6/raw/output_2393_IAG933_linker_design_.xyz
 44 48 0 0 0
SMALL
GASTEIGER

@<TRIPOS>ATOM
      1 C         -24.8550   -1.0120   30.1430 C.3     1  UNL1        0.0757
      2 C         -24.9730   -2.5050   29.7880 C.2     1  UNL1       -0.0158
      3 C         -23.9060   -3.1730   29.1460 C.2     1  UNL1       -0.0039
      4 C         -23.9890   -4.5490   28.8530 C.2     1  UNL1       -0.0003
      5 C         -25.1370   -5.2800   29.2050 C.2     1  UNL1       -0.0000
      6 C         -26.2320   -4.6110   29.7840 C.2     1  UNL1       -0.0003
      7 C         -26.1550   -3.2320   30.0650 C.2     1  UNL1       -0.0039
      8 C         -25.3870   -0.6790   31.5710 C.3     1  UNL1        0.0822
      9 C         -25.1890    0.7730   32.0280 C.3     1  UNL1        0.0196
     10 C         -25.3360    0.6840   33.5440 C.3     1  UNL1        0.0203
     11 C         -24.8290   -0.7150   33.9050 C.3     1  UNL1        0.0887
     12 N         -24.7580   -1.4810   32.6460 N.3     1  UNL1       -0.2188
     13 C         -25.6880    1.6140   26.4610 C.2     1  UNL1        0.0391
     14 C         -26.2500    2.9200   26.3950 C.2     1  UNL1        0.0766
     15 C         -25.6420    4.0930   27.1230 C.2     1  UNL1        0.2664
     16 N         -25.6140    5.2520   26.4490 N.am    1  UNL1       -0.1997
     17 C         -25.0260    6.4790   26.9630 C.3     1  UNL1        0.1388
     18 O         -25.1430    3.9660   28.2430 O.2     1  UNL1       -0.2683
     19 C         -27.4380    3.0910   25.6450 C.2     1  UNL1        0.1067
     20 N         -28.0750    2.0890   25.0030 N.2     1  UNL1       -0.2081
     21 C         -27.5430    0.8490   25.0790 C.2     1  UNL1        0.2533
     22 O         -28.1930   -0.2080   24.4770 O.2     1  UNL1       -0.4558
     23 C         -29.4600    0.0050   23.8660 C.3     1  UNL1        0.2426
     24 C         -30.0650   -1.3770   23.5730 C.3     1  UNL1        0.2292
     25 O         -30.7290   -1.8780   24.7210 O.3     1  UNL1       -0.2162
     26 C         -26.3540    0.5760   25.7770 C.2     1  UNL1        0.1931
     27 F         -25.8600   -0.6810   25.7950 F       1  UNL1       -0.1992
     28 C         -24.3018    1.3335   26.9342 C.2     1  UNL1        0.0185
     29 C         -23.0294    1.7556   26.3924 C.2     1  UNL1        0.0874
     30 C         -24.0564    0.5845   28.1395 C.2     1  UNL1        0.0418
     31 C         -28.5314    0.7228   29.0685 C.2     1  UNL1       -0.0007
     32 C         -28.3341    1.6872   31.3283 C.2     1  UNL1       -0.0003
     33 F         -20.7407    1.4954   27.5236 F       1  UNL1       -0.2009
     34 C         -28.3179    2.9961   30.7231 C.2     1  UNL1       -0.0000
     35 CL        -22.9127    2.4121   24.8397 Cl      1  UNL1       -0.0798
     36 C         -28.8438    2.0207   28.5142 C.2     1  UNL1       -0.0026
     37 C         -28.5978    3.1542   29.3210 C.2     1  UNL1       -0.0003
     38 F         -22.1023    0.0359   29.4068 F       1  UNL1       -0.2017
     39 C         -27.4505   -0.0051   28.3723 C.3     1  UNL1        0.1381
     40 C         -22.0394    1.3633   27.3353 C.2     1  UNL1        0.1779
     41 C         -25.0517   -0.0104   28.8644 C.2     1  UNL1        0.0507
     42 C         -28.4924    0.5173   30.4941 C.2     1  UNL1       -0.0026
     43 C         -22.6986    0.6183   28.3818 C.2     1  UNL1        0.1691
     44 N         -26.2152    0.2262   28.5151 N.pl3   1  UNL1       -0.2367
@<TRIPOS>BOND
     1     1    41    1
     2     2     7    1
     3     2     1    1
     4     3     2    2
     5     4     3    1
     6     4     5    2
     7     5     6    1
     8     6     7    2
     9     8     1    1
    10     8     9    1
    11     8    12    1
    12     9    10    1
    13    10    11    1
    14    12    11    1
    15    13    28    1
    16    14    13    1
    17    14    15    1
    18    15    18    2
    19    16    17    1
    20    16    15    1
    21    19    14    2
    22    20    21    2
    23    20    19    1
    24    21    26    1
    25    22    21    1
    26    23    22    1
    27    24    23    1
    28    24    25    1
    29    26    27    1
    30    26    13    2
    31    28    30    1
    32    29    28    2
    33    29    40    1
    34    30    43    1
    35    30    41    2
    36    31    42    1
    37    34    32    1
    38    35    29    1
    39    36    31    2
    40    36    37    1
    41    37    34    2
    42    39    44    1
    43    39    31    1
    44    40    33    1
    45    40    43    2
    46    42    32    2
    47    43    38    1
    48    44    41    1
