@<TRIPOS>MOLECULE
outputs/IAG933/test6/raw/output_2394_IAG933_linker_design_.xyz
 40 43 0 0 0
SMALL
GASTEIGER

@<TRIPOS>ATOM
      1 C         -24.8550   -1.0120   30.1430 C.3     1  UNL1        0.1444
      2 C         -24.9730   -2.5050   29.7880 C.2     1  UNL1        0.0013
      3 C         -23.9060   -3.1730   29.1460 C.2     1  UNL1       -0.0024
      4 C         -23.9890   -4.5490   28.8530 C.2     1  UNL1       -0.0003
      5 C         -25.1370   -5.2800   29.2050 C.2     1  UNL1       -0.0000
      6 C         -26.2320   -4.6110   29.7840 C.2     1  UNL1       -0.0003
      7 C         -26.1550   -3.2320   30.0650 C.2     1  UNL1       -0.0024
      8 C         -25.3870   -0.6790   31.5710 C.3     1  UNL1        0.0994
      9 C         -25.1890    0.7730   32.0280 C.3     1  UNL1        0.0212
     10 C         -25.3360    0.6840   33.5440 C.3     1  UNL1        0.0203
     11 C         -24.8290   -0.7150   33.9050 C.3     1  UNL1        0.0888
     12 N         -24.7580   -1.4810   32.6460 N.3     1  UNL1       -0.2171
     13 C         -25.6880    1.6140   26.4610 C.3     1  UNL1        0.1097
     14 C         -26.2500    2.9200   26.3950 C.2     1  UNL1        0.0604
     15 C         -25.6420    4.0930   27.1230 C.2     1  UNL1        0.2628
     16 N         -25.6140    5.2520   26.4490 N.am    1  UNL1       -0.2000
     17 C         -25.0260    6.4790   26.9630 C.3     1  UNL1        0.1388
     18 O         -25.1430    3.9660   28.2430 O.2     1  UNL1       -0.2686
     19 C         -27.4380    3.0910   25.6450 C.2     1  UNL1        0.1025
     20 N         -28.0750    2.0890   25.0030 N.2     1  UNL1       -0.2118
     21 C         -27.5430    0.8490   25.0790 C.2     1  UNL1        0.2345
     22 O         -28.1930   -0.2080   24.4770 O.2     1  UNL1       -0.4585
     23 C         -29.4600    0.0050   23.8660 C.3     1  UNL1        0.2423
     24 C         -30.0650   -1.3770   23.5730 C.3     1  UNL1        0.2292
     25 O         -30.7290   -1.8780   24.7210 O.3     1  UNL1       -0.2162
     26 C         -26.3540    0.5760   25.7770 C.3     1  UNL1        0.2455
     27 F         -25.8600   -0.6810   25.7950 F       1  UNL1       -0.2265
     28 C         -26.8549    1.2697   29.1951 C.3     1  UNL1        0.1606
     29 C         -27.6710    0.0123   29.2923 C.3     1  UNL1        0.2082
     30 O         -27.9150   -0.4737   27.9873 O.3     1  UNL1       -0.2182
     31 C         -24.8833    1.2185   27.5334 C.ar    1  UNL1        0.0641
     32 O         -22.5392    0.6513   30.0334 O.2     1  UNL1       -0.2658
     33 C         -22.2733    1.3235   27.1157 C.3     1  UNL1        0.2152
     34 N         -24.5294   -0.0626   29.1579 N.ar    1  UNL1       -0.2331
     35 C         -23.4887    0.5568   29.1723 C.ar    1  UNL1        0.2747
     36 N         -25.5028    0.7072   28.6549 N.ar    1  UNL1       -0.2687
     37 C         -23.5643    1.1289   27.8571 C.ar    1  UNL1        0.0815
     38 O         -21.0922    1.6260   27.6826 O.3     1  UNL1       -0.2150
     39 C         -22.3807    1.4282   25.6379 C.3     1  UNL1        0.2306
     40 F         -23.4022    2.3202   25.3291 F       1  UNL1       -0.2311
@<TRIPOS>BOND
     1     1     2    1
     2     2     7    1
     3     3     2    2
     4     4     3    1
     5     4     5    2
     6     5     6    1
     7     6     7    2
     8     8     1    1
     9     8     9    1
    10     8    12    1
    11     9    10    1
    12    10    11    1
    13    12    11    1
    14    13    31    1
    15    14    13    1
    16    14    15    1
    17    15    18    2
    18    16    17    1
    19    16    15    1
    20    19    14    2
    21    20    21    2
    22    20    19    1
    23    21    26    1
    24    22    21    1
    25    23    22    1
    26    24    23    1
    27    24    25    1
    28    26    27    1
    29    26    13    1
    30    28    29    1
    31    30    29    1
    32    31    37   ar
    33    31    36   ar
    34    33    38    1
    35    33    37    1
    36    34    35   ar
    37    34     1    1
    38    35    32    2
    39    36    34   ar
    40    36    28    1
    41    37    35   ar
    42    39    33    1
    43    40    39    1
