@<TRIPOS>MOLECULE
No_2397-gen_results/8p0m/2024-11-27-11-27-31/
 35 39 0 0 0
SMALL
GASTEIGER

@<TRIPOS>ATOM
      1 C         -28.0162   -0.8135   28.8779 C.ar    1  UNL1        0.0369
      2 C         -27.0636   -0.1189   28.6079 C.ar    1  UNL1        0.0028
      3 C         -25.7647   -0.3897   29.0360 C.ar    1  UNL1       -0.0038
      4 C         -24.5516    0.4058   28.7646 C.ar    1  UNL1       -0.0225
      5 C         -23.2300    0.1178   29.2575 C.ar    1  UNL1       -0.0043
      6 C         -23.0942   -1.1309   29.8730 C.ar    1  UNL1       -0.0003
      7 C         -27.7980   -1.9341   29.8560 C.ar    1  UNL1        0.1393
      8 C         -26.5420   -2.3269   30.2580 C.ar    1  UNL1        0.0369
      9 C         -25.4514   -1.5516   29.9079 C.ar    1  UNL1        0.0027
     10 C         -24.1562   -1.9097   30.2809 C.ar    1  UNL1        0.0001
     11 C         -24.6450    1.6582   27.9464 C.3     1  UNL1        0.0229
     12 C         -24.8958    2.7559   28.5615 C.3     1  UNL1        0.0148
     13 C         -25.7918    3.5939   28.0297 C.3     1  UNL1        0.0921
     14 C         -25.9449    3.5871   26.6052 C.3     1  UNL1        0.0732
     15 C         -24.6850    1.5903   26.5474 C.3     1  UNL1        0.0058
     16 C         -25.4717    2.4969   25.8996 C.3     1  UNL1        0.0173
     17 O         -28.9126   -2.6736   30.1820 O.3     1  UNL1       -0.4656
     18 C         -28.7858   -3.9658   30.5535 C.3     1  UNL1        0.2896
     19 C         -30.1189   -4.6824   30.3299 C.2     1  UNL1        0.2703
     20 O         -30.6577   -4.7083   29.2999 O.2     1  UNL1       -0.2708
     21 N         -30.5426   -5.5162   31.3934 N.am    1  UNL1       -0.2730
     22 C         -29.9274   -5.5576   32.7419 C.3     1  UNL1        0.1150
     23 C         -26.1209    4.9073   28.7076 C.2     1  UNL1        0.2274
     24 O         -26.4405    4.9833   29.7440 O.2     1  UNL1       -0.2748
     25 N         -26.0325    6.1028   27.9475 N.am    1  UNL1       -0.2668
     26 C         -26.3186    7.3980   28.5300 C.3     1  UNL1        0.0946
     27 C         -26.3877    8.3548   27.6959 C.3     1  UNL1        0.0217
     28 C         -25.9023    8.2971   26.3821 C.3     1  UNL1        0.0050
     29 C         -25.3738    7.0620   25.9433 C.3     1  UNL1        0.0381
     30 C         -25.4698    6.0113   26.6953 C.3     1  UNL1        0.1493
     31 N         -25.4371    4.8068   26.0872 N.3     1  UNL1       -0.2019
     32 C         -31.3142   -6.6704   31.0131 C.3     1  UNL1        0.1150
     33 C         -27.5114    3.5231   26.3616 C.3     1  UNL1        0.0426
     34 C         -28.1205    2.9878   25.3716 C.2     1  UNL1       -0.0247
     35 C         -29.1341    2.5899   25.4970 C.2     1  UNL1       -0.0049
@<TRIPOS>BOND
     1     4    11    1
     2    11    12    1
     3    13    14    1
     4    11    15    1
     5    14    16    1
     6     7    17    1
     7    17    18    1
     8    18    19    1
     9    19    20    2
    10    19    21   am
    11    21    22    1
    12    13    23    1
    13    23    24    2
    14    23    25   am
    15    25    26    1
    16    27    28    1
    17    25    30    1
    18    29    30    1
    19    14    31    1
    20    30    31    1
    21    21    32    1
    22    14    33    1
    23    33    34    1
    24    34    35    2
    25    26    27    1
    26    28    29    1
    27    13    12    1
    28    15    16    1
    29     1     2   ar
    30     2     3   ar
    31     9     8   ar
    32     8     7   ar
    33     7     1   ar
    34     3     4   ar
    35     4     5   ar
    36     5     6   ar
    37     6    10   ar
    38    10     9   ar
    39     9     3   ar
