@<TRIPOS>MOLECULE
outputs/IAG933/test6/raw/output_2399_IAG933_linker_design_.xyz
 43 48 0 0 0
SMALL
GASTEIGER

@<TRIPOS>ATOM
      1 C         -24.8550   -1.0120   30.1430 C.3     1  UNL1        0.0578
      2 C         -24.9730   -2.5050   29.7880 C.2     1  UNL1       -0.0197
      3 C         -23.9060   -3.1730   29.1460 C.2     1  UNL1       -0.0042
      4 C         -23.9890   -4.5490   28.8530 C.2     1  UNL1       -0.0003
      5 C         -25.1370   -5.2800   29.2050 C.2     1  UNL1       -0.0000
      6 C         -26.2320   -4.6110   29.7840 C.2     1  UNL1       -0.0003
      7 C         -26.1550   -3.2320   30.0650 C.2     1  UNL1       -0.0042
      8 C         -25.3870   -0.6790   31.5710 C.3     1  UNL1        0.0796
      9 C         -25.1890    0.7730   32.0280 C.3     1  UNL1        0.0364
     10 C         -25.3360    0.6840   33.5440 C.3     1  UNL1        0.0217
     11 C         -24.8290   -0.7150   33.9050 C.3     1  UNL1        0.0888
     12 N         -24.7580   -1.4810   32.6460 N.3     1  UNL1       -0.2190
     13 C         -25.6880    1.6140   26.4610 C.3     1  UNL1        0.1473
     14 C         -26.2500    2.9200   26.3950 C.2     1  UNL1        0.0734
     15 C         -25.6420    4.0930   27.1230 C.2     1  UNL1        0.2640
     16 N         -25.6140    5.2520   26.4490 N.am    1  UNL1       -0.1999
     17 C         -25.0260    6.4790   26.9630 C.3     1  UNL1        0.1388
     18 O         -25.1430    3.9660   28.2430 O.2     1  UNL1       -0.2686
     19 C         -27.4380    3.0910   25.6450 C.2     1  UNL1        0.1038
     20 N         -28.0750    2.0890   25.0030 N.2     1  UNL1       -0.2118
     21 C         -27.5430    0.8490   25.0790 C.2     1  UNL1        0.2359
     22 O         -28.1930   -0.2080   24.4770 O.2     1  UNL1       -0.4585
     23 C         -29.4600    0.0050   23.8660 C.3     1  UNL1        0.2423
     24 C         -30.0650   -1.3770   23.5730 C.3     1  UNL1        0.2292
     25 O         -30.7290   -1.8780   24.7210 O.3     1  UNL1       -0.2162
     26 C         -26.3540    0.5760   25.7770 C.3     1  UNL1        0.2583
     27 F         -25.8600   -0.6810   25.7950 F       1  UNL1       -0.2250
     28 C         -25.5510    1.6450   30.7737 C.3     1  UNL1        0.1080
     29 C         -23.3936    1.7052   26.3325 C.2     1  UNL1        0.0689
     30 C         -25.2157   -0.1156   29.1371 C.3     1  UNL1        0.1190
     31 C         -21.1700    1.9201   27.0690 C.2     1  UNL1        0.0046
     32 C         -26.1302    3.0169   30.8789 C.3     1  UNL1        0.1289
     33 N         -24.4634    1.4437   26.6661 N.pl3   1  UNL1       -0.2766
     34 C         -21.6748    1.5240   28.2681 C.2     1  UNL1        0.0408
     35 O         -27.7197    2.3499   29.1264 O.2     1  UNL1       -0.2501
     36 C         -28.0255    5.0435   31.3991 C.3     1  UNL1        0.2556
     37 O         -23.6334    1.1699   29.7346 O.2     1  UNL1       -0.4001
     38 N         -25.0353    1.2786   29.6119 N.3     1  UNL1       -0.1213
     39 C         -23.6264    1.3568   27.3775 C.2     1  UNL1        0.1026
     40 O         -28.4746    3.8674   30.6608 O.3     1  UNL1       -0.4444
     41 C         -23.0110    1.3168   28.4637 C.2     1  UNL1        0.1799
     42 C         -21.9626    2.0700   26.0670 C.2     1  UNL1        0.0163
     43 C         -27.4828    3.1142   30.1092 C.2     1  UNL1        0.3186
@<TRIPOS>BOND
     1     1     2    1
     2     1     8    1
     3     2     7    1
     4     3     2    2
     5     4     3    1
     6     4     5    2
     7     5     6    1
     8     6     7    2
     9     8     9    1
    10     8    12    1
    11     9    10    1
    12    10    11    1
    13    12    11    1
    14    13    33    1
    15    14    13    1
    16    14    15    1
    17    15    18    2
    18    16    17    1
    19    16    15    1
    20    19    14    2
    21    20    21    2
    22    20    19    1
    23    21    26    1
    24    22    21    1
    25    23    22    1
    26    24    23    1
    27    24    25    1
    28    26    27    1
    29    26    13    1
    30    28    32    1
    31    28     9    1
    32    29    33    1
    33    29    39    1
    34    30    38    1
    35    30     1    1
    36    31    34    2
    37    33    39    1
    38    34    41    1
    39    35    43    2
    40    38    37    1
    41    38    28    1
    42    39    41    2
    43    40    36    1
    44    41    37    1
    45    42    29    2
    46    42    31    1
    47    43    40    1
    48    43    32    1
