@<TRIPOS>MOLECULE
No_24-gen_results/8p0m/2024-11-27-11-27-31/
 25 28 0 0 0
SMALL
GASTEIGER

@<TRIPOS>ATOM
      1 C         -28.0162   -0.8135   28.8779 C.ar    1  UNL1        0.0067
      2 C         -27.0636   -0.1189   28.6079 C.ar    1  UNL1        0.0276
      3 C         -25.7647   -0.3897   29.0360 C.ar    1  UNL1        0.1401
      4 C         -25.5296   -1.5302   29.9014 C.ar    1  UNL1        0.0298
      5 C         -26.6888   -2.2893   30.1810 C.ar    1  UNL1        0.0068
      6 C         -27.8727   -1.9508   29.7373 C.ar    1  UNL1        0.0537
      7 F         -24.6993    0.3604   28.7753 F       1  UNL1       -0.2042
      8 C         -29.0333   -2.8145   30.1506 C.2     1  UNL1        0.2490
      9 N         -30.2066   -2.2497   30.2766 N.am    1  UNL1       -0.2761
     10 O         -28.8362   -3.9256   30.7097 O.2     1  UNL1       -0.2699
     11 C         -31.3776   -2.9970   30.6772 C.3     1  UNL1        0.0937
     12 C         -32.3633   -2.5414   30.8459 C.3     1  UNL1        0.0216
     13 C         -32.4468   -1.1490   30.9733 C.3     1  UNL1        0.0035
     14 C         -31.3904   -0.3017   30.6112 C.3     1  UNL1        0.0216
     15 C         -30.2605   -0.8415   30.3566 C.3     1  UNL1        0.0937
     16 C         -27.1600    1.1138   27.6897 C.ar    1  UNL1        0.0022
     17 C         -27.5614    2.2098   28.2178 C.ar    1  UNL1        0.0001
     18 C         -26.9927    0.8564   26.3241 C.ar    1  UNL1        0.0001
     19 C         -27.7979    3.3510   27.3503 C.ar    1  UNL1        0.0000
     20 C         -26.5695   -0.4079   25.7974 C.ar    1  UNL1        0.0000
     21 C         -27.5102    3.2067   25.9780 C.ar    1  UNL1        0.0000
     22 C         -27.0875    1.9703   25.4534 C.ar    1  UNL1        0.0000
     23 C         -26.0729   -0.3463   24.5730 C.ar    1  UNL1        0.0000
     24 C         -26.2372    0.7209   23.7746 C.ar    1  UNL1        0.0000
     25 C         -26.7552    1.8192   24.1608 C.ar    1  UNL1        0.0000
@<TRIPOS>BOND
     1     3     7    1
     2     6     8    1
     3     8     9   am
     4     8    10    2
     5     9    11    1
     6    12    13    1
     7     9    15    1
     8    14    15    1
     9     2    16    1
    10    11    12    1
    11    13    14    1
    12     1     2   ar
    13     2     3   ar
    14     3     4   ar
    15     4     5   ar
    16     5     6   ar
    17     6     1   ar
    18    18    20   ar
    19    20    23   ar
    20    23    24   ar
    21    24    25   ar
    22    25    22   ar
    23    16    17   ar
    24    17    19   ar
    25    19    21   ar
    26    21    22   ar
    27    22    18   ar
    28    18    16   ar
