@<TRIPOS>MOLECULE
outputs/IAG933/test6/raw/output_2400_IAG933_linker_design_.xyz
 41 44 0 0 0
SMALL
GASTEIGER

@<TRIPOS>ATOM
      1 C         -24.8550   -1.0120   30.1430 C.3     1  UNL1        0.1155
      2 C         -24.9730   -2.5050   29.7880 C.2     1  UNL1       -0.0027
      3 C         -23.9060   -3.1730   29.1460 C.2     1  UNL1       -0.0026
      4 C         -23.9890   -4.5490   28.8530 C.2     1  UNL1       -0.0003
      5 C         -25.1370   -5.2800   29.2050 C.2     1  UNL1       -0.0000
      6 C         -26.2320   -4.6110   29.7840 C.2     1  UNL1       -0.0003
      7 C         -26.1550   -3.2320   30.0650 C.2     1  UNL1       -0.0026
      8 C         -25.3870   -0.6790   31.5710 C.3     1  UNL1        0.0954
      9 C         -25.1890    0.7730   32.0280 C.3     1  UNL1        0.0209
     10 C         -25.3360    0.6840   33.5440 C.3     1  UNL1        0.0203
     11 C         -24.8290   -0.7150   33.9050 C.3     1  UNL1        0.0888
     12 N         -24.7580   -1.4810   32.6460 N.3     1  UNL1       -0.2174
     13 C         -25.6880    1.6140   26.4610 C.2     1  UNL1        0.0393
     14 C         -26.2500    2.9200   26.3950 C.2     1  UNL1        0.0766
     15 C         -25.6420    4.0930   27.1230 C.2     1  UNL1        0.2664
     16 N         -25.6140    5.2520   26.4490 N.am    1  UNL1       -0.1997
     17 C         -25.0260    6.4790   26.9630 C.3     1  UNL1        0.1388
     18 O         -25.1430    3.9660   28.2430 O.2     1  UNL1       -0.2683
     19 C         -27.4380    3.0910   25.6450 C.2     1  UNL1        0.1067
     20 N         -28.0750    2.0890   25.0030 N.2     1  UNL1       -0.2081
     21 C         -27.5430    0.8490   25.0790 C.2     1  UNL1        0.2533
     22 O         -28.1930   -0.2080   24.4770 O.2     1  UNL1       -0.4558
     23 C         -29.4600    0.0050   23.8660 C.3     1  UNL1        0.2426
     24 C         -30.0650   -1.3770   23.5730 C.3     1  UNL1        0.2292
     25 O         -30.7290   -1.8780   24.7210 O.3     1  UNL1       -0.2162
     26 C         -26.3540    0.5760   25.7770 C.2     1  UNL1        0.1931
     27 F         -25.8600   -0.6810   25.7950 F       1  UNL1       -0.1992
     28 O         -29.5669    0.5316   27.7853 O.2     1  UNL1       -0.4556
     29 C         -23.1190    0.3677   28.9108 C.2     1  UNL1       -0.0066
     30 P         -29.6324   -0.4839   29.1254 P.3     1  UNL1        0.1409
     31 C         -21.7405    0.5385   28.6725 C.3     1  UNL1        0.0533
     32 C         -26.7841   -0.4500   28.6130 C.2     1  UNL1        0.0685
     33 C         -27.9500   -0.6271   29.6359 C.2     1  UNL1        0.0475
     34 C         -24.4091    1.3883   27.1283 C.2     1  UNL1        0.0158
     35 O         -30.2461   -1.6975   28.2188 O.3     1  UNL1       -0.3541
     36 C         -21.9542    1.8990   26.6475 C.2     1  UNL1       -0.0042
     37 C         -23.3147    1.8892   26.3847 C.2     1  UNL1        0.0010
     38 C         -21.2114    1.3502   27.6717 C.2     1  UNL1       -0.0214
     39 N         -25.3134   -0.1473   29.0226 N.pl3   1  UNL1       -0.2823
     40 O         -30.3765   -0.3453   30.3963 O.3     1  UNL1       -0.3541
     41 C         -24.2871    0.6377   28.3089 C.2     1  UNL1        0.0479
@<TRIPOS>BOND
     1     1    39    1
     2     2     7    1
     3     2     1    1
     4     3     2    2
     5     4     3    1
     6     4     5    2
     7     5     6    1
     8     6     7    2
     9     8     1    1
    10     8     9    1
    11     8    12    1
    12     9    10    1
    13    10    11    1
    14    12    11    1
    15    13    34    1
    16    14    13    1
    17    14    15    1
    18    15    18    2
    19    16    17    1
    20    16    15    1
    21    19    14    2
    22    20    21    2
    23    20    19    1
    24    21    26    1
    25    22    21    1
    26    23    22    1
    27    24    23    1
    28    24    25    1
    29    26    27    1
    30    26    13    2
    31    28    30    2
    32    30    33    1
    33    30    40    1
    34    31    29    1
    35    32    39    1
    36    32    33    2
    37    34    41    1
    38    35    30    1
    39    36    38    2
    40    37    36    1
    41    37    34    2
    42    38    31    1
    43    41    29    2
    44    41    39    1
