@<TRIPOS>MOLECULE
outputs/IAG933/test6/raw/output_2402_IAG933_linker_design_.xyz
 42 45 0 0 0
SMALL
GASTEIGER

@<TRIPOS>ATOM
      1 C         -24.8550   -1.0120   30.1430 C.3     1  UNL1        0.0451
      2 C         -24.9730   -2.5050   29.7880 C.2     1  UNL1       -0.0207
      3 C         -23.9060   -3.1730   29.1460 C.2     1  UNL1       -0.0042
      4 C         -23.9890   -4.5490   28.8530 C.2     1  UNL1       -0.0003
      5 C         -25.1370   -5.2800   29.2050 C.2     1  UNL1       -0.0000
      6 C         -26.2320   -4.6110   29.7840 C.2     1  UNL1       -0.0003
      7 C         -26.1550   -3.2320   30.0650 C.2     1  UNL1       -0.0042
      8 C         -25.3870   -0.6790   31.5710 C.3     1  UNL1        0.0932
      9 C         -25.1890    0.7730   32.0280 C.3     1  UNL1        0.0953
     10 C         -25.3360    0.6840   33.5440 C.3     1  UNL1        0.0378
     11 C         -24.8290   -0.7150   33.9050 C.3     1  UNL1        0.0902
     12 N         -24.7580   -1.4810   32.6460 N.3     1  UNL1       -0.2177
     13 C         -25.6880    1.6140   26.4610 C.2     1  UNL1        0.0180
     14 C         -26.2500    2.9200   26.3950 C.2     1  UNL1        0.0726
     15 C         -25.6420    4.0930   27.1230 C.2     1  UNL1        0.2661
     16 N         -25.6140    5.2520   26.4490 N.am    1  UNL1       -0.1997
     17 C         -25.0260    6.4790   26.9630 C.3     1  UNL1        0.1388
     18 O         -25.1430    3.9660   28.2430 O.2     1  UNL1       -0.2683
     19 C         -27.4380    3.0910   25.6450 C.2     1  UNL1        0.1064
     20 N         -28.0750    2.0890   25.0030 N.2     1  UNL1       -0.2081
     21 C         -27.5430    0.8490   25.0790 C.2     1  UNL1        0.2530
     22 O         -28.1930   -0.2080   24.4770 O.2     1  UNL1       -0.4558
     23 C         -29.4600    0.0050   23.8660 C.3     1  UNL1        0.2426
     24 C         -30.0650   -1.3770   23.5730 C.3     1  UNL1        0.2292
     25 O         -30.7290   -1.8780   24.7210 O.3     1  UNL1       -0.2162
     26 C         -26.3540    0.5760   25.7770 C.2     1  UNL1        0.1892
     27 F         -25.8600   -0.6810   25.7950 F       1  UNL1       -0.1996
     28 C         -23.8370    1.3461   28.7545 C.3     1  UNL1        0.1533
     29 C         -25.2697    2.7007   30.8647 C.3     1  UNL1        0.3236
     30 C         -24.3125    1.4251   27.1725 C.3     1  UNL1        0.0548
     31 O         -22.1302    0.3815   28.6610 O.3     1  UNL1       -0.2205
     32 O         -24.2120    2.1726   30.0150 O.3     1  UNL1       -0.3163
     33 C         -28.1789    3.3727   29.7085 C.3     1  UNL1        0.0347
     34 C         -23.1668    2.6332   25.1395 C.3     1  UNL1        0.0005
     35 C         -21.6739    1.7342   27.0759 C.3     1  UNL1        0.0358
     36 O         -25.5924    3.9560   30.9928 O.3     1  UNL1       -0.2876
     37 C         -23.0451    1.5506   26.2559 C.3     1  UNL1        0.0092
     38 C         -25.9558    5.1504   31.6880 C.3     1  UNL1        0.2968
     39 C         -28.1311    4.4158   30.8444 C.3     1  UNL1        0.1450
     40 O         -27.2851    5.4876   31.2596 O.3     1  UNL1       -0.3267
     41 C         -22.3662    1.5821   28.5197 C.3     1  UNL1        0.1794
     42 N         -25.9430    1.7964   31.3690 N.3     1  UNL1       -0.1645
@<TRIPOS>BOND
     1     2     7    1
     2     2     1    1
     3     3     2    2
     4     4     3    1
     5     4     5    2
     6     5     6    1
     7     6     7    2
     8     8     1    1
     9     8     9    1
    10     8    12    1
    11     9    42    1
    12     9    10    1
    13    10    11    1
    14    12    11    1
    15    14    13    1
    16    14    15    1
    17    15    18    2
    18    16    17    1
    19    16    15    1
    20    19    14    2
    21    20    21    2
    22    20    19    1
    23    21    26    1
    24    22    21    1
    25    23    22    1
    26    24    23    1
    27    24    25    1
    28    26    27    1
    29    26    13    2
    30    28    32    1
    31    29    32    1
    32    29    36    1
    33    29    42    1
    34    30    13    1
    35    30    28    1
    36    33    39    1
    37    35    41    1
    38    36    38    1
    39    37    34    1
    40    37    35    1
    41    37    30    1
    42    39    40    1
    43    40    38    1
    44    41    31    1
    45    41    28    1
