@<TRIPOS>MOLECULE
outputs/IAG933/test6/raw/output_2405_IAG933_linker_design_.xyz
 45 50 0 0 0
SMALL
GASTEIGER

@<TRIPOS>ATOM
      1 C         -24.8550   -1.0120   30.1430 C.3     1  UNL1        0.0447
      2 C         -24.9730   -2.5050   29.7880 C.2     1  UNL1       -0.0209
      3 C         -23.9060   -3.1730   29.1460 C.2     1  UNL1       -0.0042
      4 C         -23.9890   -4.5490   28.8530 C.2     1  UNL1       -0.0003
      5 C         -25.1370   -5.2800   29.2050 C.2     1  UNL1       -0.0000
      6 C         -26.2320   -4.6110   29.7840 C.2     1  UNL1       -0.0003
      7 C         -26.1550   -3.2320   30.0650 C.2     1  UNL1       -0.0042
      8 C         -25.3870   -0.6790   31.5710 C.3     1  UNL1        0.0770
      9 C         -25.1890    0.7730   32.0280 C.3     1  UNL1        0.0192
     10 C         -25.3360    0.6840   33.5440 C.3     1  UNL1        0.0202
     11 C         -24.8290   -0.7150   33.9050 C.3     1  UNL1        0.0887
     12 N         -24.7580   -1.4810   32.6460 N.3     1  UNL1       -0.2191
     13 C         -25.6880    1.6140   26.4610 C.3     1  UNL1        0.1445
     14 C         -26.2500    2.9200   26.3950 C.2     1  UNL1        0.0614
     15 C         -25.6420    4.0930   27.1230 C.2     1  UNL1        0.2627
     16 N         -25.6140    5.2520   26.4490 N.am    1  UNL1       -0.2000
     17 C         -25.0260    6.4790   26.9630 C.3     1  UNL1        0.1388
     18 O         -25.1430    3.9660   28.2430 O.2     1  UNL1       -0.2687
     19 C         -27.4380    3.0910   25.6450 C.2     1  UNL1        0.1024
     20 N         -28.0750    2.0890   25.0030 N.2     1  UNL1       -0.2119
     21 C         -27.5430    0.8490   25.0790 C.2     1  UNL1        0.2343
     22 O         -28.1930   -0.2080   24.4770 O.2     1  UNL1       -0.4585
     23 C         -29.4600    0.0050   23.8660 C.3     1  UNL1        0.2423
     24 C         -30.0650   -1.3770   23.5730 C.3     1  UNL1        0.2292
     25 O         -30.7290   -1.8780   24.7210 O.3     1  UNL1       -0.2162
     26 C         -26.3540    0.5760   25.7770 C.3     1  UNL1        0.2466
     27 F         -25.8600   -0.6810   25.7950 F       1  UNL1       -0.2266
     28 C         -21.4115    0.1314   28.7438 C.3     1  UNL1        0.0903
     29 F         -21.5062    2.1916   25.8909 F       1  UNL1       -0.2358
     30 C         -21.2884    1.8875   27.1962 C.3     1  UNL1        0.1770
     31 C         -19.9723    1.5600   27.5749 C.3     1  UNL1        0.0382
     32 O         -24.2859   -0.1301   27.4298 O.3     1  UNL1       -0.2203
     33 N         -21.3618   -0.9869   29.4416 N.3     1  UNL1       -0.2178
     34 C         -23.9473    1.3329   29.7162 C.3     1  UNL1        0.1810
     35 F         -23.6232    0.8858   25.3188 F       1  UNL1       -0.1884
     36 C         -23.3921    1.8268   28.4842 C.3     1  UNL1        0.1121
     37 C         -24.1432   -0.0893   28.3696 C.3     1  UNL1        0.1864
     38 O         -23.7782    3.0607   25.4957 O.3     1  UNL1       -0.1721
     39 N         -23.4979    1.8609   27.2967 N.3     1  UNL1       -0.2197
     40 C         -22.1775   -0.7337   29.9303 C.3     1  UNL1        0.0942
     41 C         -22.1611    1.3149   27.9614 C.3     1  UNL1        0.1105
     42 F         -23.3455    2.0359   30.7360 F       1  UNL1       -0.2356
     43 C         -20.1308    0.2088   28.2531 C.3     1  UNL1        0.0217
     44 C         -23.7111   -0.1379   29.6321 C.3     1  UNL1        0.0832
     45 C         -24.2534    1.8755   26.0815 C.3     1  UNL1        0.3142
@<TRIPOS>BOND
     1     1     2    1
     2     2     7    1
     3     3     2    2
     4     4     3    1
     5     4     5    2
     6     5     6    1
     7     6     7    2
     8     8     1    1
     9     8     9    1
    10     8    12    1
    11     9    10    1
    12    10    11    1
    13    12    11    1
    14    13    45    1
    15    14    13    1
    16    14    15    1
    17    15    18    2
    18    16    17    1
    19    16    15    1
    20    19    14    2
    21    20    21    2
    22    20    19    1
    23    21    26    1
    24    22    21    1
    25    23    22    1
    26    24    23    1
    27    24    25    1
    28    26    27    1
    29    26    13    1
    30    28    43    1
    31    28    33    1
    32    30    29    1
    33    30    31    1
    34    30    41    1
    35    31    43    1
    36    32    37    1
    37    33    40    1
    38    34    42    1
    39    36    39    1
    40    36    34    1
    41    38    45    1
    42    41    39    1
    43    41    36    1
    44    41    28    1
    45    44    37    1
    46    44    34    1
    47    44    40    1
    48    44     1    1
    49    45    35    1
    50    45    39    1
