@<TRIPOS>MOLECULE
No_2406-gen_results/8p0m/2024-11-27-11-27-31/
 24 25 0 0 0
SMALL
GASTEIGER

@<TRIPOS>ATOM
      1 C         -28.0162   -0.8135   28.8779 C.ar    1  UNL1        0.0088
      2 C         -28.4690   -0.7850   29.8287 C.ar    1  UNL1        0.0798
      3 C         -26.5455   -0.8762   28.8500 C.ar    1  UNL1        0.0274
      4 C         -25.8041   -1.0324   30.0571 C.ar    1  UNL1       -0.0020
      5 C         -27.9437   -0.9869   31.2075 C.ar    1  UNL1        0.0066
      6 C         -26.5825   -1.0386   31.2231 C.ar    1  UNL1       -0.0000
      7 C         -24.3810   -1.1082   30.0855 C.ar    1  UNL1       -0.0243
      8 C         -23.6421   -1.1177   29.0487 C.ar    1  UNL1       -0.0065
      9 C         -22.1825   -0.9779   29.1035 C.3     1  UNL1        0.1149
     10 C         -23.9807   -2.1285   31.1201 C.3     1  UNL1        0.0307
     11 C         -30.0860   -0.6455   29.8698 C.2     1  UNL1        0.3878
     12 O         -30.6030    0.3033   30.5136 O.co2   1  UNL1       -0.2406
     13 O         -30.7227   -1.4407   29.1825 O.co2   1  UNL1       -0.2406
     14 C         -24.1675   -0.6318   27.7687 C.ar    1  UNL1        0.0265
     15 C         -25.7026   -0.6828   27.6628 C.ar    1  UNL1        0.1398
     16 F         -26.1959   -0.3112   26.5480 F       1  UNL1       -0.2042
     17 N         -21.2594   -0.0632   29.3909 N.3     1  UNL1       -0.2094
     18 C         -21.7157    1.2370   29.1616 C.3     1  UNL1        0.1363
     19 C         -21.4090    1.8045   27.7724 C.3     1  UNL1        0.2243
     20 O         -22.4891    2.1429   27.0792 O.2     1  UNL1       -0.4712
     21 C         -22.5430    2.1886   25.7287 C.2     1  UNL1        0.1677
     22 C         -23.8654    2.2709   25.1965 C.2     1  UNL1        0.0138
     23 C         -24.8459    1.7610   26.0019 C.3     1  UNL1        0.0293
     24 C         -24.9326    1.8168   27.2726 C.3     1  UNL1        0.0051
@<TRIPOS>BOND
     1     8     9    1
     2     7    10    1
     3     2    11    1
     4    11    12   ar
     5    11    13   ar
     6    15    16    1
     7     9    17    1
     8    17    18    1
     9    18    19    1
    10    19    20    1
    11    20    21    1
    12    21    22    2
    13    22    23    1
    14    23    24    1
    15     1     2   ar
    16     2     5   ar
    17     5     6   ar
    18     6     4   ar
    19     3     1   ar
    20     3     4   ar
    21     4     7   ar
    22     7     8   ar
    23     8    14   ar
    24    14    15   ar
    25    15     3   ar
