@<TRIPOS>MOLECULE
No_2407-gen_results/8p0m/2024-11-27-11-27-31/
 6 6 0 0 0
SMALL
GASTEIGER

@<TRIPOS>ATOM
      1 C         -28.0162   -0.8135   28.8779 C.ar    1  UNL1        0.0000
      2 C         -27.0636   -0.1189   28.6079 C.ar    1  UNL1        0.0000
      3 C         -25.7647   -0.3897   29.0360 C.ar    1  UNL1        0.0000
      4 C         -25.5296   -1.5302   29.9014 C.ar    1  UNL1        0.0000
      5 C         -26.7072   -2.2996   30.1792 C.ar    1  UNL1        0.0000
      6 C         -27.8807   -1.9509   29.7430 C.ar    1  UNL1        0.0000
@<TRIPOS>BOND
     1     1     2   ar
     2     2     3   ar
     3     3     4   ar
     4     4     5   ar
     5     5     6   ar
     6     6     1   ar
