@<TRIPOS>MOLECULE
outputs/IAG933/test6/raw/output_241_IAG933_linker_design_.xyz
 44 47 0 0 0
SMALL
GASTEIGER

@<TRIPOS>ATOM
      1 C         -24.8550   -1.0120   30.1430 C.3     1  UNL1        0.0660
      2 C         -24.9730   -2.5050   29.7880 C.2     1  UNL1       -0.0188
      3 C         -23.9060   -3.1730   29.1460 C.2     1  UNL1       -0.0042
      4 C         -23.9890   -4.5490   28.8530 C.2     1  UNL1       -0.0003
      5 C         -25.1370   -5.2800   29.2050 C.2     1  UNL1       -0.0000
      6 C         -26.2320   -4.6110   29.7840 C.2     1  UNL1       -0.0003
      7 C         -26.1550   -3.2320   30.0650 C.2     1  UNL1       -0.0042
      8 C         -25.3870   -0.6790   31.5710 C.3     1  UNL1        0.0792
      9 C         -25.1890    0.7730   32.0280 C.3     1  UNL1        0.0193
     10 C         -25.3360    0.6840   33.5440 C.3     1  UNL1        0.0202
     11 C         -24.8290   -0.7150   33.9050 C.3     1  UNL1        0.0887
     12 N         -24.7580   -1.4810   32.6460 N.3     1  UNL1       -0.2190
     13 C         -25.6880    1.6140   26.4610 C.2     1  UNL1        0.0355
     14 C         -26.2500    2.9200   26.3950 C.2     1  UNL1        0.0763
     15 C         -25.6420    4.0930   27.1230 C.2     1  UNL1        0.2664
     16 N         -25.6140    5.2520   26.4490 N.am    1  UNL1       -0.1997
     17 C         -25.0260    6.4790   26.9630 C.3     1  UNL1        0.1388
     18 O         -25.1430    3.9660   28.2430 O.2     1  UNL1       -0.2683
     19 C         -27.4380    3.0910   25.6450 C.2     1  UNL1        0.1067
     20 N         -28.0750    2.0890   25.0030 N.2     1  UNL1       -0.2081
     21 C         -27.5430    0.8490   25.0790 C.2     1  UNL1        0.2533
     22 O         -28.1930   -0.2080   24.4770 O.2     1  UNL1       -0.4558
     23 C         -29.4600    0.0050   23.8660 C.3     1  UNL1        0.2426
     24 C         -30.0650   -1.3770   23.5730 C.3     1  UNL1        0.2292
     25 O         -30.7290   -1.8780   24.7210 O.3     1  UNL1       -0.2162
     26 C         -26.3540    0.5760   25.7770 C.2     1  UNL1        0.1928
     27 F         -25.8600   -0.6810   25.7950 F       1  UNL1       -0.1992
     28 C         -29.1736    0.7925   28.9470 C.2     1  UNL1        0.3255
     29 C         -30.3518    0.3771   29.7518 C.3     1  UNL1        0.1563
     30 O         -28.5280   -0.3062   28.1816 O.3     1  UNL1       -0.4185
     31 CL        -22.7346    2.4456   24.9196 Cl      1  UNL1       -0.0758
     32 C         -31.5332    1.2758   30.1801 C.3     1  UNL1        0.0196
     33 O         -26.5243    0.5602   29.0208 O.3     1  UNL1       -0.3175
     34 C         -23.1206    1.8563   26.5175 C.2     1  UNL1        0.0791
     35 C         -30.9475   -1.6171   31.1306 C.3     1  UNL1        0.0728
     36 C         -25.2229   -0.0782   28.9046 C.3     1  UNL1        0.1292
     37 C         -30.7974   -0.9194   29.7891 C.2     1  UNL1        0.1613
     38 O         -30.9942   -1.6419   28.7793 O.2     1  UNL1       -0.2955
     39 O         -28.5051    1.9529   29.4622 O.2     1  UNL1       -0.2496
     40 C         -24.3138    1.4308   27.0658 C.2     1  UNL1       -0.0004
     41 C         -24.2079    1.0066   28.5637 C.3     1  UNL1        0.0625
     42 C         -27.4294   -0.5681   29.0540 C.3     1  UNL1        0.3628
     43 C         -22.7064    0.8248   28.7995 C.3     1  UNL1        0.0698
     44 S         -21.8120    1.6028   27.4479 S.3     1  UNL1       -0.1023
@<TRIPOS>BOND
     1     1    36    1
     2     2     7    1
     3     2     1    1
     4     3     2    2
     5     4     3    1
     6     4     5    2
     7     5     6    1
     8     6     7    2
     9     8     1    1
    10     8     9    1
    11     8    12    1
    12     9    10    1
    13    10    11    1
    14    12    11    1
    15    13    40    1
    16    14    13    1
    17    14    15    1
    18    15    18    2
    19    16    17    1
    20    16    15    1
    21    19    14    2
    22    20    21    2
    23    20    19    1
    24    21    26    1
    25    22    21    1
    26    23    22    1
    27    24    23    1
    28    24    25    1
    29    26    27    1
    30    26    13    2
    31    28    39    2
    32    28    29    1
    33    29    37    1
    34    29    32    1
    35    30    28    1
    36    30    42    1
    37    31    34    1
    38    33    42    1
    39    34    40    2
    40    34    44    1
    41    36    33    1
    42    37    35    1
    43    38    37    2
    44    40    41    1
    45    41    43    1
    46    41    36    1
    47    44    43    1
