@<TRIPOS>MOLECULE
outputs/IAG933/test6/raw/output_2410_IAG933_linker_design_.xyz
 42 47 0 0 0
SMALL
GASTEIGER

@<TRIPOS>ATOM
      1 C         -24.8550   -1.0120   30.1430 C.3     1  UNL1        0.0618
      2 C         -24.9730   -2.5050   29.7880 C.2     1  UNL1       -0.0170
      3 C         -23.9060   -3.1730   29.1460 C.2     1  UNL1       -0.0039
      4 C         -23.9890   -4.5490   28.8530 C.2     1  UNL1       -0.0003
      5 C         -25.1370   -5.2800   29.2050 C.2     1  UNL1       -0.0000
      6 C         -26.2320   -4.6110   29.7840 C.2     1  UNL1       -0.0003
      7 C         -26.1550   -3.2320   30.0650 C.2     1  UNL1       -0.0039
      8 C         -25.3870   -0.6790   31.5710 C.3     1  UNL1        0.0809
      9 C         -25.1890    0.7730   32.0280 C.3     1  UNL1        0.0195
     10 C         -25.3360    0.6840   33.5440 C.3     1  UNL1        0.0203
     11 C         -24.8290   -0.7150   33.9050 C.3     1  UNL1        0.0887
     12 N         -24.7580   -1.4810   32.6460 N.3     1  UNL1       -0.2188
     13 C         -25.6880    1.6140   26.4610 C.3     1  UNL1        0.1554
     14 C         -26.2500    2.9200   26.3950 C.2     1  UNL1        0.0756
     15 C         -25.6420    4.0930   27.1230 C.2     1  UNL1        0.2642
     16 N         -25.6140    5.2520   26.4490 N.am    1  UNL1       -0.1999
     17 C         -25.0260    6.4790   26.9630 C.3     1  UNL1        0.1388
     18 O         -25.1430    3.9660   28.2430 O.2     1  UNL1       -0.2686
     19 C         -27.4380    3.0910   25.6450 C.2     1  UNL1        0.1040
     20 N         -28.0750    2.0890   25.0030 N.2     1  UNL1       -0.2117
     21 C         -27.5430    0.8490   25.0790 C.2     1  UNL1        0.2361
     22 O         -28.1930   -0.2080   24.4770 O.2     1  UNL1       -0.4585
     23 C         -29.4600    0.0050   23.8660 C.3     1  UNL1        0.2423
     24 C         -30.0650   -1.3770   23.5730 C.3     1  UNL1        0.2292
     25 O         -30.7290   -1.8780   24.7210 O.3     1  UNL1       -0.2162
     26 C         -26.3540    0.5760   25.7770 C.3     1  UNL1        0.2606
     27 F         -25.8600   -0.6810   25.7950 F       1  UNL1       -0.2248
     28 C         -22.1853    1.3674   26.8028 C.ar    1  UNL1        0.3050
     29 C         -23.5693    1.1460   27.3425 C.ar    1  UNL1        0.1286
     30 O         -21.3038    0.8501   27.6876 O.2     1  UNL1       -0.4109
     31 C         -28.8086   -0.2568   28.8658 C.3     1  UNL1        0.2039
     32 C         -26.8113    1.7476   29.4120 C.3     1  UNL1        0.1051
     33 O         -29.3681    1.6072   30.3885 O.3     1  UNL1       -0.1921
     34 C         -24.7055    0.1081   29.1285 C.ar    1  UNL1        0.0007
     35 O         -27.6295   -0.6751   29.1840 O.3     1  UNL1       -0.3246
     36 C         -28.2160    0.7258   29.8723 C.3     1  UNL1        0.2523
     37 F         -21.7941    2.0387   25.7047 F       1  UNL1       -0.1612
     38 C         -22.0874    0.2462   28.7176 C.ar    1  UNL1        0.2385
     39 C         -23.4266    0.4088   28.4757 C.ar    1  UNL1        0.0710
     40 N         -21.6200   -0.3085   29.8157 N.pl3   1  UNL1       -0.0876
     41 C         -25.6060    0.9396   28.5769 C.ar    1  UNL1        0.0392
     42 N         -24.9573    1.2711   27.3951 N.ar    1  UNL1       -0.3211
@<TRIPOS>BOND
     1     1    34    1
     2     2     7    1
     3     2     1    1
     4     3     2    2
     5     4     3    1
     6     4     5    2
     7     5     6    1
     8     6     7    2
     9     8     1    1
    10     8     9    1
    11     8    12    1
    12     9    10    1
    13    10    11    1
    14    12    11    1
    15    13    42    1
    16    14    13    1
    17    14    15    1
    18    15    18    2
    19    16    17    1
    20    16    15    1
    21    19    14    2
    22    20    21    2
    23    20    19    1
    24    21    26    1
    25    22    21    1
    26    23    22    1
    27    24    23    1
    28    24    25    1
    29    26    27    1
    30    26    13    1
    31    28    29   ar
    32    28    30   ar
    33    29    42   ar
    34    29    39   ar
    35    30    38   ar
    36    31    35    1
    37    31    36    1
    38    32    36    1
    39    35    36    1
    40    36    33    1
    41    37    28    1
    42    38    40    1
    43    39    38   ar
    44    39    34   ar
    45    41    34   ar
    46    41    32    1
    47    42    41   ar
