@<TRIPOS>MOLECULE
No_2412-gen_results/8p0m/2024-11-27-11-27-31/
 15 16 0 0 0
SMALL
GASTEIGER

@<TRIPOS>ATOM
      1 C         -28.0162   -0.8135   28.8779 C.ar    1  UNL1        0.0046
      2 C         -28.4690   -0.7850   29.8287 C.ar    1  UNL1        0.0001
      3 C         -27.1356    0.2359   28.5352 C.ar    1  UNL1        0.0554
      4 C         -26.8745    1.2825   29.3982 C.ar    1  UNL1        0.0046
      5 C         -28.3613    0.1987   30.9244 C.ar    1  UNL1        0.0000
      6 C         -27.5277    1.2234   30.6356 C.ar    1  UNL1        0.0001
      7 C         -26.3879    0.2914   27.2334 C.2     1  UNL1        0.2690
      8 N         -25.3397    0.0456   27.1370 N.am    1  UNL1       -0.1754
      9 O         -26.9920    0.9209   26.2539 O.2     1  UNL1       -0.2680
     10 C         -24.4094   -0.3337   28.2237 C.ar    1  UNL1        0.0737
     11 C         -23.2423    0.4333   28.5257 C.ar    1  UNL1        0.0166
     12 C         -22.3549    0.1649   28.9997 C.ar    1  UNL1        0.0013
     13 C         -22.1976   -1.1714   29.5853 C.ar    1  UNL1        0.0001
     14 C         -24.3590   -1.6688   28.5527 C.ar    1  UNL1        0.0166
     15 C         -23.2088   -2.0534   29.3420 C.ar    1  UNL1        0.0013
@<TRIPOS>BOND
     1     3     7    1
     2     7     8   am
     3     7     9    2
     4     8    10    1
     5    10    11   ar
     6    11    12   ar
     7    12    13   ar
     8    13    15   ar
     9    15    14   ar
    10    14    10   ar
    11     1     2   ar
    12     2     5   ar
    13     5     6   ar
    14     6     4   ar
    15     4     3   ar
    16     3     1   ar
