@<TRIPOS>MOLECULE
No_2413-gen_results/8p0m/2024-11-27-11-27-31/
 21 22 0 0 0
SMALL
GASTEIGER

@<TRIPOS>ATOM
      1 C         -28.0162   -0.8135   28.8779 C.ar    1  UNL1        0.0371
      2 C         -28.4690   -0.7850   29.8287 C.ar    1  UNL1        0.1393
      3 C         -27.0871    0.2903   28.6377 C.ar    1  UNL1        0.0074
      4 C         -26.8317    1.2487   29.5869 C.ar    1  UNL1        0.0003
      5 C         -28.3914    0.0801   31.0065 C.ar    1  UNL1        0.0369
      6 C         -27.4940    1.1521   30.7841 C.ar    1  UNL1        0.0031
      7 C         -26.3172    0.3994   27.3653 C.ar    1  UNL1        0.0550
      8 C         -24.9405    0.2550   27.5028 C.ar    1  UNL1        0.1422
      9 C         -26.9129    0.5860   26.1397 C.ar    1  UNL1        0.1422
     10 C         -26.1769    0.4192   24.9937 C.ar    1  UNL1        0.0298
     11 C         -24.1284    0.4169   26.3366 C.ar    1  UNL1        0.0298
     12 C         -24.7927    0.4341   25.0940 C.ar    1  UNL1        0.0046
     13 F         -28.2126    0.4717   26.0506 F       1  UNL1       -0.2041
     14 F         -24.2812    0.2694   28.5916 F       1  UNL1       -0.2041
     15 O         -29.3869   -1.8798   30.1440 O.3     1  UNL1       -0.4656
     16 C         -28.8996   -3.1225   30.5550 C.3     1  UNL1        0.2896
     17 C         -29.7684   -4.1933   30.2614 C.2     1  UNL1        0.2703
     18 O         -30.1459   -4.4789   29.2195 O.2     1  UNL1       -0.2708
     19 N         -30.2802   -4.8658   31.3647 N.am    1  UNL1       -0.2730
     20 C         -29.9728   -4.5410   32.7982 C.3     1  UNL1        0.1150
     21 C         -31.1504   -6.0152   31.1247 C.3     1  UNL1        0.1150
@<TRIPOS>BOND
     1     3     7    1
     2     9    13    1
     3     8    14    1
     4     2    15    1
     5    15    16    1
     6    16    17    1
     7    17    18    2
     8    17    19   am
     9    19    20    1
    10    19    21    1
    11     7     8   ar
    12     8    11   ar
    13    11    12   ar
    14    12    10   ar
    15    10     9   ar
    16     9     7   ar
    17     1     2   ar
    18     2     5   ar
    19     5     6   ar
    20     6     4   ar
    21     4     3   ar
    22     3     1   ar
