@<TRIPOS>MOLECULE
No_2414-gen_results/8p0m/2024-11-27-11-27-31/
 19 20 0 0 0
SMALL
GASTEIGER

@<TRIPOS>ATOM
      1 C         -28.0162   -0.8135   28.8779 C.ar    1  UNL1        0.0005
      2 C         -27.0636   -0.1189   28.6079 C.ar    1  UNL1        0.0002
      3 C         -27.0010    0.6913   27.4910 C.ar    1  UNL1        0.0005
      4 C         -28.1373    0.7363   26.6350 C.ar    1  UNL1        0.0067
      5 C         -29.2360    0.0765   27.0690 C.ar    1  UNL1        0.0346
      6 C         -29.2177   -0.6429   28.1747 C.ar    1  UNL1        0.0067
      7 BR        -30.7399    0.1742   25.9746 Br      1  UNL1       -0.0490
      8 C         -25.7055   -0.2172   29.4175 C.ar    1  UNL1        0.0062
      9 C         -24.9332    0.5210   29.7511 C.ar    1  UNL1        0.0760
     10 C         -23.6188    0.2635   30.2332 C.ar    1  UNL1        0.0065
     11 C         -23.3302   -1.0634   30.5250 C.ar    1  UNL1        0.0002
     12 C         -25.3024   -1.6759   29.6212 C.ar    1  UNL1        0.0002
     13 C         -24.1476   -1.9953   30.1829 C.ar    1  UNL1        0.0000
     14 C         -25.1466    2.0577   29.5117 C.2     1  UNL1        0.3458
     15 O         -25.2957    2.8939   30.4911 O.2     1  UNL1       -0.2445
     16 O         -24.8318    2.6132   28.3711 O.3     1  UNL1       -0.4182
     17 C         -23.7937    2.1688   27.6300 C.2     1  UNL1        0.1785
     18 C         -23.8956    2.4483   26.2069 C.2     1  UNL1        0.0149
     19 C         -24.9511    3.1074   25.8112 C.3     1  UNL1        0.0341
@<TRIPOS>BOND
     1     5     7    1
     2     2     8    1
     3     9    14    1
     4    14    15    2
     5    14    16    1
     6    16    17    1
     7    17    18    2
     8    18    19    1
     9     1     2   ar
    10     2     3   ar
    11     3     4   ar
    12     4     5   ar
    13     5     6   ar
    14     6     1   ar
    15     8     9   ar
    16     9    10   ar
    17    10    11   ar
    18    11    13   ar
    19    13    12   ar
    20    12     8   ar
