@<TRIPOS>MOLECULE
No_2415-gen_results/8p0m/2024-11-27-11-27-31/
 25 27 0 0 0
SMALL
GASTEIGER

@<TRIPOS>ATOM
      1 C         -28.0162   -0.8135   28.8779 C.ar    1  UNL1        0.0094
      2 C         -27.0636   -0.1190   28.6079 C.ar    1  UNL1        0.0356
      3 C         -26.9287    1.1713   29.0083 C.ar    1  UNL1        0.0029
      4 C         -27.9560    1.7411   29.7840 C.ar    1  UNL1        0.0003
      5 C         -29.0569   -0.3271   29.7466 C.ar    1  UNL1        0.0799
      6 C         -28.9828    0.9722   30.1516 C.ar    1  UNL1        0.0066
      7 C         -25.8907   -0.6263   27.7857 C.2     1  UNL1        0.1808
      8 C         -24.7183   -1.0610   28.6129 C.3     1  UNL1        0.1084
      9 C         -23.5950   -0.2827   28.8125 C.ar    1  UNL1       -0.0111
     10 C         -23.4356    1.0607   28.2949 C.ar    1  UNL1       -0.0035
     11 C         -22.1708    1.6917   28.3753 C.ar    1  UNL1       -0.0003
     12 C         -21.0787    0.9144   28.6906 C.ar    1  UNL1       -0.0000
     13 C         -21.1396   -0.4062   29.0915 C.ar    1  UNL1       -0.0003
     14 C         -22.4251   -1.0078   29.1175 C.ar    1  UNL1       -0.0035
     15 C         -24.9149   -2.2110   29.4225 C.ar    1  UNL1        0.0164
     16 C         -25.5775   -2.2347   30.6039 C.ar    1  UNL1       -0.0013
     17 C         -24.5087   -3.4302   28.8826 C.ar    1  UNL1        0.1369
     18 F         -23.5964   -3.5726   28.0538 F       1  UNL1       -0.2045
     19 C         -25.3342   -4.5910   29.1444 C.ar    1  UNL1        0.0293
     20 C         -26.3800   -4.4881   30.0978 C.ar    1  UNL1        0.0023
     21 C         -26.5386   -3.2727   30.7952 C.ar    1  UNL1       -0.0002
     22 C         -30.2071   -1.1777   30.1486 C.2     1  UNL1        0.3878
     23 O         -30.9963   -1.5415   29.3415 O.co2   1  UNL1       -0.2406
     24 O         -30.5145   -1.1784   31.4144 O.co2   1  UNL1       -0.2406
     25 O         -25.6914   -0.2074   26.6346 O.2     1  UNL1       -0.2907
@<TRIPOS>BOND
     1     2     7    1
     2     7     8    1
     3     8    15    1
     4    17    18    1
     5     5    22    1
     6    22    23   ar
     7    22    24   ar
     8     7    25    2
     9     8     9    1
    10    15    16   ar
    11    16    21   ar
    12    21    20   ar
    13    20    19   ar
    14    19    17   ar
    15    17    15   ar
    16     1     2   ar
    17     2     3   ar
    18     3     4   ar
    19     4     6   ar
    20     6     5   ar
    21     5     1   ar
    22     9    10   ar
    23    10    11   ar
    24    11    12   ar
    25    12    13   ar
    26    13    14   ar
    27    14     9   ar
