@<TRIPOS>MOLECULE
No_2416-gen_results/8p0m/2024-11-27-11-27-31/
 18 19 0 0 0
SMALL
GASTEIGER

@<TRIPOS>ATOM
      1 C         -28.0162   -0.8135   28.8779 C.3     1  UNL1        0.1519
      2 C         -27.0636   -0.1189   28.6079 C.ar    1  UNL1        0.0020
      3 C         -26.9287    1.1713   29.0083 C.ar    1  UNL1       -0.0023
      4 C         -25.7702    2.0341   28.6884 C.ar    1  UNL1        0.0010
      5 C         -24.7141    1.4431   27.9188 C.ar    1  UNL1        0.0153
      6 C         -24.8590    0.0783   27.5836 C.ar    1  UNL1        0.0010
      7 C         -25.9647   -0.6606   27.9164 C.ar    1  UNL1       -0.0023
      8 N         -28.6995   -0.6441   30.0766 N.2     1  UNL1       -0.2641
      9 C         -29.4717   -1.1161   30.6970 C.2     1  UNL1        0.0935
     10 C         -30.0670   -2.3591   30.2418 C.ar    1  UNL1        0.0187
     11 C         -30.2683   -3.3376   31.1144 C.ar    1  UNL1        0.0015
     12 C         -30.6405   -4.6320   30.6063 C.ar    1  UNL1        0.0000
     13 C         -30.9519   -4.7962   29.2852 C.ar    1  UNL1        0.0000
     14 C         -30.9406   -3.6943   28.4868 C.ar    1  UNL1        0.0000
     15 C         -30.4365   -2.4843   28.9544 C.ar    1  UNL1        0.0015
     16 C         -23.5273    2.1410   27.5637 C.2     1  UNL1        0.0809
     17 N         -22.3978    2.1988   27.9840 N.2     1  UNL1       -0.1527
     18 C         -23.7221    2.8468   26.2085 C.3     1  UNL1        0.0540
@<TRIPOS>BOND
     1     1     2    1
     2     1     8    1
     3     8     9    2
     4     9    10    1
     5     5    16    1
     6    16    17    2
     7    16    18    1
     8     2     3   ar
     9     3     4   ar
    10     4     5   ar
    11     5     6   ar
    12     6     7   ar
    13     7     2   ar
    14    10    11   ar
    15    11    12   ar
    16    12    13   ar
    17    13    14   ar
    18    14    15   ar
    19    15    10   ar
