@<TRIPOS>MOLECULE
outputs/IAG933/test6/raw/output_2417_IAG933_linker_design_.xyz
 41 44 0 0 0
SMALL
GASTEIGER

@<TRIPOS>ATOM
      1 C         -24.8550   -1.0120   30.1430 C.3     1  UNL1        0.0601
      2 C         -24.9730   -2.5050   29.7880 C.2     1  UNL1       -0.0194
      3 C         -23.9060   -3.1730   29.1460 C.2     1  UNL1       -0.0042
      4 C         -23.9890   -4.5490   28.8530 C.2     1  UNL1       -0.0003
      5 C         -25.1370   -5.2800   29.2050 C.2     1  UNL1       -0.0000
      6 C         -26.2320   -4.6110   29.7840 C.2     1  UNL1       -0.0003
      7 C         -26.1550   -3.2320   30.0650 C.2     1  UNL1       -0.0042
      8 C         -25.3870   -0.6790   31.5710 C.3     1  UNL1        0.0785
      9 C         -25.1890    0.7730   32.0280 C.3     1  UNL1        0.0192
     10 C         -25.3360    0.6840   33.5440 C.3     1  UNL1        0.0202
     11 C         -24.8290   -0.7150   33.9050 C.3     1  UNL1        0.0887
     12 N         -24.7580   -1.4810   32.6460 N.3     1  UNL1       -0.2191
     13 C         -25.6880    1.6140   26.4610 C.2     1  UNL1        0.0414
     14 C         -26.2500    2.9200   26.3950 C.2     1  UNL1        0.0766
     15 C         -25.6420    4.0930   27.1230 C.2     1  UNL1        0.2664
     16 N         -25.6140    5.2520   26.4490 N.am    1  UNL1       -0.1997
     17 C         -25.0260    6.4790   26.9630 C.3     1  UNL1        0.1388
     18 O         -25.1430    3.9660   28.2430 O.2     1  UNL1       -0.2683
     19 C         -27.4380    3.0910   25.6450 C.2     1  UNL1        0.1067
     20 N         -28.0750    2.0890   25.0030 N.2     1  UNL1       -0.2081
     21 C         -27.5430    0.8490   25.0790 C.2     1  UNL1        0.2533
     22 O         -28.1930   -0.2080   24.4770 O.2     1  UNL1       -0.4558
     23 C         -29.4600    0.0050   23.8660 C.3     1  UNL1        0.2426
     24 C         -30.0650   -1.3770   23.5730 C.3     1  UNL1        0.2292
     25 O         -30.7290   -1.8780   24.7210 O.3     1  UNL1       -0.2162
     26 C         -26.3540    0.5760   25.7770 C.2     1  UNL1        0.1932
     27 F         -25.8600   -0.6810   25.7950 F       1  UNL1       -0.1992
     28 C         -27.7833    1.9916   28.8781 C.3     1  UNL1        0.2590
     29 O         -28.1129    2.7477   30.1806 O.3     1  UNL1       -0.2007
     30 N         -23.0285    0.0702   28.8448 N.2     1  UNL1       -0.2684
     31 C         -24.3050    0.5227   28.1870 C.2     1  UNL1        0.0725
     32 O         -28.6521   -0.1157   27.9485 O.3     1  UNL1       -0.2159
     33 C         -21.9248    1.8976   26.2804 C.2     1  UNL1        0.0271
     34 C         -24.3371    1.1837   26.9200 C.2     1  UNL1        0.0445
     35 C         -21.3360    1.5601   27.6230 C.2     1  UNL1        0.0022
     36 C         -23.2105    1.3829   25.9806 C.2     1  UNL1        0.1411
     37 F         -23.2947    0.9917   24.7010 F       1  UNL1       -0.2041
     38 C         -28.9846    1.0705   28.6774 C.3     1  UNL1        0.2331
     39 N         -26.5736    1.2214   29.0770 N.3     1  UNL1       -0.1820
     40 C         -25.4851    0.1442   29.1288 C.3     1  UNL1        0.1202
     41 C         -21.7615    0.6600   28.5860 C.3     1  UNL1        0.1513
@<TRIPOS>BOND
     1     1    40    1
     2     2     7    1
     3     2     1    1
     4     3     2    2
     5     4     3    1
     6     4     5    2
     7     5     6    1
     8     6     7    2
     9     8     1    1
    10     8     9    1
    11     8    12    1
    12     9    10    1
    13    10    11    1
    14    12    11    1
    15    13    34    1
    16    14    13    1
    17    14    15    1
    18    15    18    2
    19    16    17    1
    20    16    15    1
    21    19    14    2
    22    20    21    2
    23    20    19    1
    24    21    26    1
    25    22    21    1
    26    23    22    1
    27    24    23    1
    28    24    25    1
    29    26    27    1
    30    26    13    2
    31    28    39    1
    32    28    29    1
    33    31    30    2
    34    31    40    1
    35    32    38    1
    36    33    35    2
    37    34    31    1
    38    35    41    1
    39    36    33    1
    40    36    34    2
    41    37    36    1
    42    38    28    1
    43    40    39    1
    44    41    30    1
