@<TRIPOS>MOLECULE
No_2419-gen_results/8p0m/2024-11-27-11-27-31/
 19 21 0 0 0
SMALL
GASTEIGER

@<TRIPOS>ATOM
      1 C         -28.0162   -0.8135   28.8779 C.ar    1  UNL1        0.0067
      2 C         -28.4690   -0.7850   29.8287 C.ar    1  UNL1        0.0346
      3 C         -26.5042   -0.7777   28.8766 C.ar    1  UNL1        0.0002
      4 C         -25.8103   -0.8531   30.1028 C.ar    1  UNL1       -0.0033
      5 C         -27.9906   -0.8916   31.2257 C.ar    1  UNL1        0.0067
      6 C         -26.6042   -0.8676   31.2652 C.ar    1  UNL1        0.0002
      7 BR        -30.4622   -0.8398   29.8385 Br      1  UNL1       -0.0490
      8 C         -24.3620   -0.8196   30.1394 C.2     1  UNL1       -0.0146
      9 C         -23.6760   -1.2865   30.8006 C.2     1  UNL1       -0.0040
     10 C         -22.5086   -0.9085   31.0945 C.2     1  UNL1       -0.0042
     11 C         -21.8877   -0.0505   30.1751 C.2     1  UNL1       -0.0179
     12 C         -23.6293    0.2657   29.3908 C.3     1  UNL1        0.0643
     13 C         -23.5613    1.0620   28.4305 C.2     1  UNL1       -0.0118
     14 C         -22.5020    1.5479   27.7929 C.2     1  UNL1        0.0905
     15 N         -22.7337    2.3965   26.7033 N.2     1  UNL1       -0.2527
     16 C         -23.9257    2.3706   26.0996 C.2     1  UNL1        0.0409
     17 C         -24.7086    1.3725   27.4987 C.3     1  UNL1        0.0654
     18 C         -25.0667    1.8981   26.3900 C.3     1  UNL1        0.0417
     19 C         -26.2086    2.1044   25.7943 C.3     1  UNL1        0.0063
@<TRIPOS>BOND
     1     2     7    1
     2     4     8    1
     3     8     9    2
     4     9    10    1
     5    10    11    2
     6     8    12    1
     7    11    12    1
     8    12    13    1
     9    13    14    2
    10    14    15    1
    11    15    16    2
    12    13    17    1
    13    16    17    1
    14    16    18    1
    15    18    19    1
    16     1     2   ar
    17     2     5   ar
    18     5     6   ar
    19     6     4   ar
    20     4     3   ar
    21     3     1   ar
