@<TRIPOS>MOLECULE
outputs/IAG933/test6/raw/output_2420_IAG933_linker_design_.xyz
 41 44 0 0 0
SMALL
GASTEIGER

@<TRIPOS>ATOM
      1 C         -24.8550   -1.0120   30.1430 C.3     1  UNL1        0.1167
      2 C         -24.9730   -2.5050   29.7880 C.2     1  UNL1       -0.0125
      3 C         -23.9060   -3.1730   29.1460 C.2     1  UNL1       -0.0038
      4 C         -23.9890   -4.5490   28.8530 C.2     1  UNL1       -0.0003
      5 C         -25.1370   -5.2800   29.2050 C.2     1  UNL1       -0.0000
      6 C         -26.2320   -4.6110   29.7840 C.2     1  UNL1       -0.0003
      7 C         -26.1550   -3.2320   30.0650 C.2     1  UNL1       -0.0038
      8 C         -25.3870   -0.6790   31.5710 C.3     1  UNL1        0.0855
      9 C         -25.1890    0.7730   32.0280 C.3     1  UNL1        0.0197
     10 C         -25.3360    0.6840   33.5440 C.3     1  UNL1        0.0203
     11 C         -24.8290   -0.7150   33.9050 C.3     1  UNL1        0.0887
     12 N         -24.7580   -1.4810   32.6460 N.3     1  UNL1       -0.2186
     13 C         -25.6880    1.6140   26.4610 C.3     1  UNL1        0.1076
     14 C         -26.2500    2.9200   26.3950 C.2     1  UNL1        0.0602
     15 C         -25.6420    4.0930   27.1230 C.2     1  UNL1        0.2628
     16 N         -25.6140    5.2520   26.4490 N.am    1  UNL1       -0.2000
     17 C         -25.0260    6.4790   26.9630 C.3     1  UNL1        0.1388
     18 O         -25.1430    3.9660   28.2430 O.2     1  UNL1       -0.2686
     19 C         -27.4380    3.0910   25.6450 C.2     1  UNL1        0.1025
     20 N         -28.0750    2.0890   25.0030 N.2     1  UNL1       -0.2118
     21 C         -27.5430    0.8490   25.0790 C.2     1  UNL1        0.2345
     22 O         -28.1930   -0.2080   24.4770 O.2     1  UNL1       -0.4585
     23 C         -29.4600    0.0050   23.8660 C.3     1  UNL1        0.2423
     24 C         -30.0650   -1.3770   23.5730 C.3     1  UNL1        0.2292
     25 O         -30.7290   -1.8780   24.7210 O.3     1  UNL1       -0.2162
     26 C         -26.3540    0.5760   25.7770 C.3     1  UNL1        0.2453
     27 F         -25.8600   -0.6810   25.7950 F       1  UNL1       -0.2265
     28 C         -22.7320    0.3001   29.1346 C.1     1  UNL1        0.1331
     29 C         -23.4086    1.4145   27.1820 C.2     1  UNL1        0.0347
     30 O         -26.7487   -0.3766   28.6607 O.2     1  UNL1       -0.2726
     31 F         -23.7313    2.6260   25.1333 F       1  UNL1       -0.2290
     32 C         -22.9604    1.9409   25.9819 C.3     1  UNL1        0.2213
     33 C         -22.4969    1.0363   28.1393 C.2     1  UNL1        0.0742
     34 O         -22.5264   -0.4288   29.9894 O.2     1  UNL1       -0.2311
     35 C         -24.6983    1.2651   27.5404 C.2     1  UNL1        0.0575
     36 C         -21.1606    1.3528   27.9835 C.2     1  UNL1        0.0088
     37 F         -21.2718    1.6116   24.4650 F       1  UNL1       -0.2291
     38 C         -25.6750   -0.0893   29.1198 C.2     1  UNL1        0.2503
     39 C         -21.6098    1.7569   25.7018 C.3     1  UNL1        0.2196
     40 C         -20.6795    1.6496   26.7180 C.2     1  UNL1        0.0123
     41 N         -24.9937    1.0268   28.8109 N.am    1  UNL1       -0.1831
@<TRIPOS>BOND
     1     1    38    1
     2     2     7    1
     3     2     1    1
     4     3     2    2
     5     4     3    1
     6     4     5    2
     7     5     6    1
     8     6     7    2
     9     8     1    1
    10     8     9    1
    11     8    12    1
    12     9    10    1
    13    10    11    1
    14    12    11    1
    15    13    35    1
    16    14    13    1
    17    14    15    1
    18    15    18    2
    19    16    17    1
    20    16    15    1
    21    19    14    2
    22    20    21    2
    23    20    19    1
    24    21    26    1
    25    22    21    1
    26    23    22    1
    27    24    23    1
    28    24    25    1
    29    26    27    1
    30    26    13    1
    31    28    34    2
    32    29    35    2
    33    29    33    1
    34    30    38    2
    35    32    31    1
    36    32    29    1
    37    33    28    2
    38    35    41    1
    39    36    33    1
    40    39    37    1
    41    39    32    1
    42    39    40    1
    43    40    36    2
    44    41    38    1
