@<TRIPOS>MOLECULE
outputs/IAG933/test6/raw/output_2421_IAG933_linker_design_.xyz
 44 48 0 0 0
SMALL
GASTEIGER

@<TRIPOS>ATOM
      1 C         -24.8550   -1.0120   30.1430 C.3     1  UNL1        0.0454
      2 C         -24.9730   -2.5050   29.7880 C.2     1  UNL1       -0.0207
      3 C         -23.9060   -3.1730   29.1460 C.2     1  UNL1       -0.0042
      4 C         -23.9890   -4.5490   28.8530 C.2     1  UNL1       -0.0003
      5 C         -25.1370   -5.2800   29.2050 C.2     1  UNL1       -0.0000
      6 C         -26.2320   -4.6110   29.7840 C.2     1  UNL1       -0.0003
      7 C         -26.1550   -3.2320   30.0650 C.2     1  UNL1       -0.0042
      8 C         -25.3870   -0.6790   31.5710 C.3     1  UNL1        0.0952
      9 C         -25.1890    0.7730   32.0280 C.3     1  UNL1        0.0925
     10 C         -25.3360    0.6840   33.5440 C.3     1  UNL1        0.0400
     11 C         -24.8290   -0.7150   33.9050 C.3     1  UNL1        0.0905
     12 N         -24.7580   -1.4810   32.6460 N.3     1  UNL1       -0.2174
     13 C         -25.6880    1.6140   26.4610 C.2     1  UNL1        0.0407
     14 C         -26.2500    2.9200   26.3950 C.2     1  UNL1        0.0748
     15 C         -25.6420    4.0930   27.1230 C.2     1  UNL1        0.2266
     16 N         -25.6140    5.2520   26.4490 N.2     1  UNL1       -0.2353
     17 C         -25.0260    6.4790   26.9630 C.3     1  UNL1        0.1550
     18 O         -25.1430    3.9660   28.2430 O.2     1  UNL1       -0.4371
     19 C         -27.4380    3.0910   25.6450 C.2     1  UNL1        0.1068
     20 N         -28.0750    2.0890   25.0030 N.2     1  UNL1       -0.2081
     21 C         -27.5430    0.8490   25.0790 C.2     1  UNL1        0.2533
     22 O         -28.1930   -0.2080   24.4770 O.2     1  UNL1       -0.4558
     23 C         -29.4600    0.0050   23.8660 C.3     1  UNL1        0.2426
     24 C         -30.0650   -1.3770   23.5730 C.3     1  UNL1        0.2292
     25 O         -30.7290   -1.8780   24.7210 O.3     1  UNL1       -0.2162
     26 C         -26.3540    0.5760   25.7770 C.2     1  UNL1        0.1931
     27 F         -25.8600   -0.6810   25.7950 F       1  UNL1       -0.1992
     28 C         -22.3563    0.7765   28.7529 C.2     1  UNL1        0.1917
     29 C         -26.1168    4.8597   30.2939 C.2     1  UNL1        0.0747
     30 N         -25.4239    2.3584   31.6490 N.pl3   1  UNL1       -0.2830
     31 C         -25.5261    3.7949   29.6019 C.2     1  UNL1        0.1666
     32 O         -21.4131    1.3220   26.5885 O.2     1  UNL1       -0.4404
     33 C         -25.1563    2.6143   30.3817 C.3     1  UNL1        0.2259
     34 C         -22.5394    1.9734   26.2246 C.3     1  UNL1        0.3526
     35 F         -22.6733    2.2286   24.8927 F       1  UNL1       -0.1832
     36 C         -23.4040    2.3897   27.2277 C.2     1  UNL1        0.0727
     37 N         -24.3687    1.6248   29.6849 N.pl3   1  UNL1       -0.2098
     38 C         -21.2853    0.7440   27.8028 C.2     1  UNL1        0.2064
     39 C         -23.3550    1.6840   28.6006 C.2     1  UNL1        0.1001
     40 F         -22.3725   -0.1560   29.8094 F       1  UNL1       -0.1995
     41 O         -26.2685    5.8547   32.5190 O.2     1  UNL1       -0.4700
     42 C         -25.8626    3.5369   32.3638 C.2     1  UNL1        0.1003
     43 C         -25.6574    5.7747   33.8218 C.3     1  UNL1        0.2525
     44 C         -26.0991    4.7615   31.7276 C.2     1  UNL1        0.1561
@<TRIPOS>BOND
     1     2     7    1
     2     2     1    1
     3     3     2    2
     4     4     3    1
     5     4     5    2
     6     5     6    1
     7     6     7    2
     8     8     1    1
     9     8     9    1
    10     8    12    1
    11     9    30    1
    12     9    10    1
    13    10    11    1
    14    12    11    1
    15    14    13    1
    16    14    15    1
    17    15    18    1
    18    16    17    1
    19    16    15    2
    20    18    31    1
    21    19    14    2
    22    20    21    2
    23    20    19    1
    24    21    26    1
    25    22    21    1
    26    23    22    1
    27    24    23    1
    28    24    25    1
    29    26    27    1
    30    26    13    2
    31    28    40    1
    32    29    44    1
    33    30    42    1
    34    31    29    2
    35    31    33    1
    36    32    38    1
    37    33    37    1
    38    33    30    1
    39    34    35    1
    40    34    32    1
    41    34    36    1
    42    36    39    2
    43    38    28    2
    44    39    28    1
    45    39    37    1
    46    41    43    1
    47    44    42    2
    48    44    41    1
