@<TRIPOS>MOLECULE
outputs/IAG933/test6/raw/output_2423_IAG933_linker_design_.xyz
 44 48 0 0 0
SMALL
GASTEIGER

@<TRIPOS>ATOM
      1 C         -24.8550   -1.0120   30.1430 C.3     1  UNL1        0.0424
      2 C         -24.9730   -2.5050   29.7880 C.2     1  UNL1       -0.0210
      3 C         -23.9060   -3.1730   29.1460 C.2     1  UNL1       -0.0042
      4 C         -23.9890   -4.5490   28.8530 C.2     1  UNL1       -0.0003
      5 C         -25.1370   -5.2800   29.2050 C.2     1  UNL1       -0.0000
      6 C         -26.2320   -4.6110   29.7840 C.2     1  UNL1       -0.0003
      7 C         -26.1550   -3.2320   30.0650 C.2     1  UNL1       -0.0042
      8 C         -25.3870   -0.6790   31.5710 C.3     1  UNL1        0.0818
      9 C         -25.1890    0.7730   32.0280 C.3     1  UNL1        0.0772
     10 C         -25.3360    0.6840   33.5440 C.3     1  UNL1        0.0253
     11 C         -24.8290   -0.7150   33.9050 C.3     1  UNL1        0.0889
     12 N         -24.7580   -1.4810   32.6460 N.3     1  UNL1       -0.2190
     13 C         -25.6880    1.6140   26.4610 C.3     1  UNL1        0.1313
     14 C         -26.2500    2.9200   26.3950 C.2     1  UNL1        0.0697
     15 C         -25.6420    4.0930   27.1230 C.2     1  UNL1        0.2637
     16 N         -25.6140    5.2520   26.4490 N.am    1  UNL1       -0.2000
     17 C         -25.0260    6.4790   26.9630 C.3     1  UNL1        0.1388
     18 O         -25.1430    3.9660   28.2430 O.2     1  UNL1       -0.2686
     19 C         -27.4380    3.0910   25.6450 C.2     1  UNL1        0.1035
     20 N         -28.0750    2.0890   25.0030 N.2     1  UNL1       -0.2118
     21 C         -27.5430    0.8490   25.0790 C.2     1  UNL1        0.2355
     22 O         -28.1930   -0.2080   24.4770 O.2     1  UNL1       -0.4585
     23 C         -29.4600    0.0050   23.8660 C.3     1  UNL1        0.2423
     24 C         -30.0650   -1.3770   23.5730 C.3     1  UNL1        0.2292
     25 O         -30.7290   -1.8780   24.7210 O.3     1  UNL1       -0.2162
     26 C         -26.3540    0.5760   25.7770 C.3     1  UNL1        0.2547
     27 F         -25.8600   -0.6810   25.7950 F       1  UNL1       -0.2254
     28 C         -23.5166    1.1855   27.1104 C.3     1  UNL1        0.1662
     29 C         -25.4936    1.9766   31.0185 C.3     1  UNL1        0.2712
     30 C         -25.6938   -0.2105   29.2281 C.3     1  UNL1        0.0527
     31 O         -22.2078    2.6417   24.2556 O.2     1  UNL1       -0.2245
     32 O         -24.6107    1.7597   29.8636 O.3     1  UNL1       -0.3150
     33 C         -25.1313    1.1109   28.8448 C.3     1  UNL1        0.1807
     34 C         -20.5239   -0.0151   28.8393 C.3     1  UNL1        0.2150
     35 N         -23.3482    1.3302   25.7957 N.am    1  UNL1       -0.1535
     36 O         -22.4570   -1.1387   28.8078 O.3     1  UNL1       -0.2201
     37 C         -21.3461    1.9388   27.4987 C.3     1  UNL1        0.2158
     38 N         -24.7796    1.2803   27.4618 N.3     1  UNL1       -0.2285
     39 C         -22.2730    2.0006   25.3653 C.2     1  UNL1        0.4223
     40 C         -22.4342    1.0450   27.9324 C.3     1  UNL1        0.1124
     41 O         -26.6769    2.4767   30.3608 O.3     1  UNL1       -0.1898
     42 O         -19.5165    0.9048   28.5981 O.3     1  UNL1       -0.2176
     43 O         -21.1304    1.8544   26.1102 O.3     1  UNL1       -0.4333
     44 C         -21.9730    0.1395   28.9608 C.3     1  UNL1        0.1914
@<TRIPOS>BOND
     1     1     2    1
     2     1     8    1
     3     2     7    1
     4     3     2    2
     5     4     3    1
     6     4     5    2
     7     5     6    1
     8     6     7    2
     9     8     9    1
    10     8    12    1
    11     9    10    1
    12    10    11    1
    13    12    11    1
    14    13    38    1
    15    14    13    1
    16    14    15    1
    17    15    18    2
    18    16    17    1
    19    16    15    1
    20    19    14    2
    21    20    21    2
    22    20    19    1
    23    21    26    1
    24    22    21    1
    25    23    22    1
    26    24    23    1
    27    24    25    1
    28    26    27    1
    29    26    13    1
    30    28    38    1
    31    28    40    1
    32    29    41    1
    33    29     9    1
    34    30     1    1
    35    31    39    2
    36    32    29    1
    37    33    38    1
    38    33    30    1
    39    33    32    1
    40    34    44    1
    41    35    28    1
    42    36    44    1
    43    37    40    1
    44    39    35    1
    45    39    43    1
    46    40    44    1
    47    42    34    1
    48    43    37    1
