@<TRIPOS>MOLECULE
outputs/IAG933/test6/raw/output_2424_IAG933_linker_design_.xyz
 44 48 0 0 0
SMALL
GASTEIGER

@<TRIPOS>ATOM
      1 C         -24.8550   -1.0120   30.1430 C.3     1  UNL1        0.0610
      2 C         -24.9730   -2.5050   29.7880 C.2     1  UNL1       -0.0194
      3 C         -23.9060   -3.1730   29.1460 C.2     1  UNL1       -0.0042
      4 C         -23.9890   -4.5490   28.8530 C.2     1  UNL1       -0.0003
      5 C         -25.1370   -5.2800   29.2050 C.2     1  UNL1       -0.0000
      6 C         -26.2320   -4.6110   29.7840 C.2     1  UNL1       -0.0003
      7 C         -26.1550   -3.2320   30.0650 C.2     1  UNL1       -0.0042
      8 C         -25.3870   -0.6790   31.5710 C.3     1  UNL1        0.0786
      9 C         -25.1890    0.7730   32.0280 C.3     1  UNL1        0.0193
     10 C         -25.3360    0.6840   33.5440 C.3     1  UNL1        0.0202
     11 C         -24.8290   -0.7150   33.9050 C.3     1  UNL1        0.0887
     12 N         -24.7580   -1.4810   32.6460 N.3     1  UNL1       -0.2191
     13 C         -25.6880    1.6140   26.4610 C.3     1  UNL1        0.0781
     14 C         -26.2500    2.9200   26.3950 C.2     1  UNL1        0.0554
     15 C         -25.6420    4.0930   27.1230 C.2     1  UNL1        0.2625
     16 N         -25.6140    5.2520   26.4490 N.am    1  UNL1       -0.2000
     17 C         -25.0260    6.4790   26.9630 C.3     1  UNL1        0.1388
     18 O         -25.1430    3.9660   28.2430 O.2     1  UNL1       -0.2687
     19 C         -27.4380    3.0910   25.6450 C.2     1  UNL1        0.1022
     20 N         -28.0750    2.0890   25.0030 N.2     1  UNL1       -0.2119
     21 C         -27.5430    0.8490   25.0790 C.2     1  UNL1        0.2341
     22 O         -28.1930   -0.2080   24.4770 O.2     1  UNL1       -0.4585
     23 C         -29.4600    0.0050   23.8660 C.3     1  UNL1        0.2423
     24 C         -30.0650   -1.3770   23.5730 C.3     1  UNL1        0.2292
     25 O         -30.7290   -1.8780   24.7210 O.3     1  UNL1       -0.2162
     26 C         -26.3540    0.5760   25.7770 C.3     1  UNL1        0.2406
     27 F         -25.8600   -0.6810   25.7950 F       1  UNL1       -0.2269
     28 O         -27.5591    0.4976   28.6945 O.2     1  UNL1       -0.2734
     29 C         -23.3385    1.1401   28.9100 C.3     1  UNL1        0.1608
     30 C         -23.5605    1.7365   25.0804 C.2     1  UNL1        0.0109
     31 C         -28.4987    2.0705   31.0817 C.3     1  UNL1        0.0096
     32 C         -26.7785    3.7648   30.7576 C.3     1  UNL1        0.0096
     33 C         -21.0322    0.1521   28.5726 C.3     1  UNL1        0.3612
     34 F         -21.2315    1.9698   24.5141 F       1  UNL1       -0.2013
     35 C         -23.2919    1.3206   27.3730 C.2     1  UNL1        0.0247
     36 N         -25.5828    1.2636   29.3577 N.am    1  UNL1       -0.2040
     37 C         -22.2279    1.6727   25.3373 C.2     1  UNL1        0.1694
     38 O         -22.1129    0.5220   29.4004 O.3     1  UNL1       -0.3122
     39 C         -26.8588    1.2869   29.3046 C.2     1  UNL1        0.2409
     40 C         -24.4922    0.2989   29.3708 C.3     1  UNL1        0.1318
     41 C         -27.4998    2.5390   30.0014 C.3     1  UNL1        0.0782
     42 C         -22.0485    1.3145   26.6699 C.2     1  UNL1        0.1631
     43 O         -20.8840    0.8722   27.2781 O.2     1  UNL1       -0.4462
     44 C         -24.2499    1.5408   26.3064 C.3     1  UNL1        0.0554
@<TRIPOS>BOND
     1     1    40    1
     2     2     7    1
     3     2     1    1
     4     3     2    2
     5     4     3    1
     6     4     5    2
     7     5     6    1
     8     6     7    2
     9     8     1    1
    10     8     9    1
    11     8    12    1
    12     9    10    1
    13    10    11    1
    14    12    11    1
    15    13    14    1
    16    14    15    1
    17    15    18    2
    18    16    17    1
    19    16    15    1
    20    19    14    2
    21    20    21    2
    22    20    19    1
    23    21    26    1
    24    22    21    1
    25    23    22    1
    26    24    23    1
    27    24    25    1
    28    26    27    1
    29    26    13    1
    30    28    39    2
    31    29    40    1
    32    29    38    1
    33    30    37    2
    34    33    38    1
    35    34    37    1
    36    35    29    1
    37    37    42    1
    38    39    36    1
    39    39    41    1
    40    40    36    1
    41    41    32    1
    42    41    31    1
    43    42    43    1
    44    42    35    2
    45    43    33    1
    46    44    30    1
    47    44    13    1
    48    44    35    1
