@<TRIPOS>MOLECULE
No_2426-gen_results/8p0m/2024-11-27-11-27-31/
 32 36 0 0 0
SMALL
GASTEIGER

@<TRIPOS>ATOM
      1 C         -28.0162   -0.8135   28.8779 C.ar    1  UNL1        0.0348
      2 C         -28.4690   -0.7850   29.8287 C.ar    1  UNL1       -0.0030
      3 C         -28.1960    0.3478   28.0550 C.ar    1  UNL1        0.1453
      4 C         -29.0191    1.3501   28.3782 C.ar    1  UNL1        0.0408
      5 C         -28.3170   -1.9812   30.8560 C.3     1  UNL1        0.0773
      6 C         -29.5950    1.2859   29.6049 C.ar    1  UNL1        0.0450
      7 C         -29.3465    0.2093   30.3749 C.ar    1  UNL1        0.0007
      8 N         -29.2155   -2.9170   30.8674 N.pl3   1  UNL1       -0.3065
      9 C         -29.9488   -3.0427   31.8134 C.ar    1  UNL1        0.0577
     10 C         -30.8342   -3.5134   32.0795 C.ar    1  UNL1       -0.0061
     11 C         -31.5843   -3.5863   33.3465 C.ar    1  UNL1        0.0176
     12 C         -31.0434   -2.8378   34.3683 C.ar    1  UNL1        0.0982
     13 C         -29.4112   -2.1792   33.1428 C.ar    1  UNL1        0.0720
     14 N         -30.0095   -2.2168   34.2562 N.ar    1  UNL1       -0.2469
     15 C         -28.1769   -1.4338   32.9030 C.3     1  UNL1        0.0491
     16 C         -27.9385   -1.2275   32.2338 C.3     1  UNL1        0.0287
     17 C         -26.8995   -2.6667   30.4384 C.3     1  UNL1        0.0244
     18 O         -27.5724    0.3136   26.7777 O.3     1  UNL1       -0.4508
     19 C         -26.6043    1.2728   26.4997 C.2     1  UNL1        0.1753
     20 C         -25.3674    0.6978   26.3324 C.2     1  UNL1        0.0192
     21 C         -24.8168   -0.2180   27.0000 C.3     1  UNL1        0.0556
     22 C         -24.5700   -0.1338   28.4228 C.ar    1  UNL1       -0.0177
     23 C         -24.0526   -1.1720   29.1799 C.ar    1  UNL1       -0.0039
     24 C         -23.7026   -0.9100   30.5338 C.ar    1  UNL1       -0.0003
     25 C         -23.9056    0.2861   30.9855 C.ar    1  UNL1       -0.0000
     26 C         -24.5947    1.0593   29.2802 C.ar    1  UNL1       -0.0039
     27 C         -24.3088    1.2464   30.5841 C.ar    1  UNL1       -0.0003
     28 C         -29.4931   -3.6695   29.7308 C.3     1  UNL1        0.0913
     29 C         -30.7122   -4.3997   29.7664 C.3     1  UNL1        0.0261
     30 C         -31.3383   -4.3885   30.9961 C.3     1  UNL1        0.0295
     31 C         -30.5044    2.3952   30.0931 C.2     1  UNL1        0.2342
     32 O         -31.4512    2.2449   30.6615 O.2     1  UNL1       -0.2831
@<TRIPOS>BOND
     1     2     5    1
     2     5     8    1
     3     8     9    1
     4    13    15    1
     5     5    16    1
     6    15    16    1
     7     5    17    1
     8     3    18    1
     9    18    19    1
    10    19    20    2
    11    20    21    1
    12    21    22    1
    13     8    28    1
    14    10    30    1
    15    29    30    1
    16     6    31    1
    17    31    32    2
    18    29    28    1
    19     9    13   ar
    20    13    14   ar
    21    14    12   ar
    22    12    11   ar
    23    11    10   ar
    24    10     9   ar
    25    22    23   ar
    26    23    24   ar
    27    24    25   ar
    28    25    27   ar
    29    27    26   ar
    30    26    22   ar
    31     1     2   ar
    32     2     7   ar
    33     7     6   ar
    34     6     4   ar
    35     4     3   ar
    36     3     1   ar
