@<TRIPOS>MOLECULE
No_2427-gen_results/8p0m/2024-11-27-11-27-31/
 9 9 0 0 0
SMALL
GASTEIGER

@<TRIPOS>ATOM
      1 C         -28.0162   -0.8135   28.8779 C.ar    1  UNL1        0.0066
      2 C         -28.4690   -0.7850   29.8287 C.ar    1  UNL1        0.0002
      3 C         -27.1356    0.2359   28.5352 C.ar    1  UNL1        0.0798
      4 C         -26.3351    0.2900   27.2835 C.2     1  UNL1        0.3878
      5 C         -28.3692    0.1957   30.9236 C.ar    1  UNL1        0.0000
      6 C         -27.5158    1.2655   30.6540 C.ar    1  UNL1        0.0002
      7 C         -26.8411    1.2942   29.4761 C.ar    1  UNL1        0.0066
      8 O         -25.9708    1.3760   26.8931 O.co2   1  UNL1       -0.2406
      9 O         -25.7311   -0.7627   26.8532 O.co2   1  UNL1       -0.2406
@<TRIPOS>BOND
     1     3     4    1
     2     4     8   ar
     3     4     9   ar
     4     1     2   ar
     5     2     5   ar
     6     5     6   ar
     7     6     7   ar
     8     7     3   ar
     9     3     1   ar
