@<TRIPOS>MOLECULE
outputs/IAG933/test6/raw/output_2428_IAG933_linker_design_.xyz
 45 48 0 0 0
SMALL
GASTEIGER

@<TRIPOS>ATOM
      1 C         -24.8550   -1.0120   30.1430 C.3     1  UNL1        0.0582
      2 C         -24.9730   -2.5050   29.7880 C.2     1  UNL1       -0.0195
      3 C         -23.9060   -3.1730   29.1460 C.2     1  UNL1       -0.0042
      4 C         -23.9890   -4.5490   28.8530 C.2     1  UNL1       -0.0003
      5 C         -25.1370   -5.2800   29.2050 C.2     1  UNL1       -0.0000
      6 C         -26.2320   -4.6110   29.7840 C.2     1  UNL1       -0.0003
      7 C         -26.1550   -3.2320   30.0650 C.2     1  UNL1       -0.0042
      8 C         -25.3870   -0.6790   31.5710 C.3     1  UNL1        0.0785
      9 C         -25.1890    0.7730   32.0280 C.3     1  UNL1        0.0192
     10 C         -25.3360    0.6840   33.5440 C.3     1  UNL1        0.0202
     11 C         -24.8290   -0.7150   33.9050 C.3     1  UNL1        0.0887
     12 N         -24.7580   -1.4810   32.6460 N.3     1  UNL1       -0.2191
     13 C         -25.6880    1.6140   26.4610 C.2     1  UNL1        0.0194
     14 C         -26.2500    2.9200   26.3950 C.2     1  UNL1        0.0729
     15 C         -25.6420    4.0930   27.1230 C.2     1  UNL1        0.2661
     16 N         -25.6140    5.2520   26.4490 N.am    1  UNL1       -0.1997
     17 C         -25.0260    6.4790   26.9630 C.3     1  UNL1        0.1388
     18 O         -25.1430    3.9660   28.2430 O.2     1  UNL1       -0.2683
     19 C         -27.4380    3.0910   25.6450 C.2     1  UNL1        0.1064
     20 N         -28.0750    2.0890   25.0030 N.2     1  UNL1       -0.2081
     21 C         -27.5430    0.8490   25.0790 C.2     1  UNL1        0.2530
     22 O         -28.1930   -0.2080   24.4770 O.2     1  UNL1       -0.4558
     23 C         -29.4600    0.0050   23.8660 C.3     1  UNL1        0.2426
     24 C         -30.0650   -1.3770   23.5730 C.3     1  UNL1        0.2292
     25 O         -30.7290   -1.8780   24.7210 O.3     1  UNL1       -0.2162
     26 C         -26.3540    0.5760   25.7770 C.2     1  UNL1        0.1894
     27 F         -25.8600   -0.6810   25.7950 F       1  UNL1       -0.1996
     28 O         -28.5459    2.9989   32.3964 O.co2   1  UNL1       -0.2425
     29 C         -28.8584    2.7138   30.1796 C.3     1  UNL1        0.2770
     30 C         -31.0880    1.9168   30.9109 C.3     1  UNL1        0.1753
     31 C         -28.2626    1.4966   29.6317 C.2     1  UNL1        0.2062
     32 C         -24.5850    1.0973   27.0751 C.3     1  UNL1        0.0453
     33 C         -24.3941    0.7219   28.3768 C.2     1  UNL1       -0.0286
     34 N         -26.2396    0.5740   28.8641 N.3     1  UNL1       -0.2070
     35 CL        -21.7647    2.3645   25.2434 Cl      1  UNL1       -0.1146
     36 C         -26.8196    1.3315   29.9380 C.3     1  UNL1        0.1563
     37 O         -30.2038    2.5623   30.0112 O.3     1  UNL1       -0.3364
     38 C         -22.7600    1.8858   26.7120 C.3     1  UNL1        0.0849
     39 C         -23.5400    0.8809   26.1741 C.3     1  UNL1        0.0251
     40 O         -29.1797    4.8143   31.2634 O.co2   1  UNL1       -0.2425
     41 C         -28.8501    3.6135   31.3630 C.2     1  UNL1        0.3987
     42 C         -22.3426    1.8256   28.0154 C.3     1  UNL1        0.0417
     43 C         -25.2774   -0.2021   28.9960 C.3     1  UNL1        0.0968
     44 O         -28.9116    0.5579   29.1761 O.2     1  UNL1       -0.2914
     45 C         -23.2009    1.2043   28.8900 C.2     1  UNL1       -0.0317
@<TRIPOS>BOND
     1     1    43    1
     2     2     7    1
     3     2     1    1
     4     3     2    2
     5     4     3    1
     6     4     5    2
     7     5     6    1
     8     6     7    2
     9     8     1    1
    10     8     9    1
    11     8    12    1
    12     9    10    1
    13    10    11    1
    14    12    11    1
    15    14    13    1
    16    14    15    1
    17    15    18    2
    18    16    17    1
    19    16    15    1
    20    19    14    2
    21    20    21    2
    22    20    19    1
    23    21    26    1
    24    22    21    1
    25    23    22    1
    26    24    23    1
    27    24    25    1
    28    26    27    1
    29    26    13    2
    30    29    31    1
    31    29    41    1
    32    31    36    1
    33    32    13    1
    34    32    33    1
    35    33    45    2
    36    33    43    1
    37    34    36    1
    38    37    29    1
    39    37    30    1
    40    38    35    1
    41    38    42    1
    42    39    38    1
    43    39    32    1
    44    40    41   ar
    45    41    28   ar
    46    42    45    1
    47    43    34    1
    48    44    31    2
