@<TRIPOS>MOLECULE
outputs/IAG933/test6/raw/output_243_IAG933_linker_design_.xyz
 41 45 0 0 0
SMALL
GASTEIGER

@<TRIPOS>ATOM
      1 C         -24.8550   -1.0120   30.1430 C.3     1  UNL1        0.0973
      2 C         -24.9730   -2.5050   29.7880 C.2     1  UNL1       -0.0064
      3 C         -23.9060   -3.1730   29.1460 C.2     1  UNL1       -0.0029
      4 C         -23.9890   -4.5490   28.8530 C.2     1  UNL1       -0.0003
      5 C         -25.1370   -5.2800   29.2050 C.2     1  UNL1       -0.0000
      6 C         -26.2320   -4.6110   29.7840 C.2     1  UNL1       -0.0003
      7 C         -26.1550   -3.2320   30.0650 C.2     1  UNL1       -0.0029
      8 C         -25.3870   -0.6790   31.5710 C.3     1  UNL1        0.0916
      9 C         -25.1890    0.7730   32.0280 C.3     1  UNL1        0.0206
     10 C         -25.3360    0.6840   33.5440 C.3     1  UNL1        0.0203
     11 C         -24.8290   -0.7150   33.9050 C.3     1  UNL1        0.0888
     12 N         -24.7580   -1.4810   32.6460 N.3     1  UNL1       -0.2178
     13 C         -25.6880    1.6140   26.4610 C.2     1  UNL1        0.0196
     14 C         -26.2500    2.9200   26.3950 C.2     1  UNL1        0.0727
     15 C         -25.6420    4.0930   27.1230 C.2     1  UNL1        0.2661
     16 N         -25.6140    5.2520   26.4490 N.am    1  UNL1       -0.1997
     17 C         -25.0260    6.4790   26.9630 C.3     1  UNL1        0.1388
     18 O         -25.1430    3.9660   28.2430 O.2     1  UNL1       -0.2683
     19 C         -27.4380    3.0910   25.6450 C.2     1  UNL1        0.1064
     20 N         -28.0750    2.0890   25.0030 N.2     1  UNL1       -0.2081
     21 C         -27.5430    0.8490   25.0790 C.2     1  UNL1        0.2530
     22 O         -28.1930   -0.2080   24.4770 O.2     1  UNL1       -0.4558
     23 C         -29.4600    0.0050   23.8660 C.3     1  UNL1        0.2426
     24 C         -30.0650   -1.3770   23.5730 C.3     1  UNL1        0.2292
     25 O         -30.7290   -1.8780   24.7210 O.3     1  UNL1       -0.2162
     26 C         -26.3540    0.5760   25.7770 C.2     1  UNL1        0.1892
     27 F         -25.8600   -0.6810   25.7950 F       1  UNL1       -0.1996
     28 C         -24.6090    1.2892   27.2503 C.3     1  UNL1        0.0751
     29 C         -23.2173   -0.4943   28.5222 C.3     1  UNL1        0.1786
     30 C         -25.2292    0.5829   28.4310 C.3     1  UNL1        0.0659
     31 O         -21.7099   -0.3834   30.1010 O.3     1  UNL1       -0.2453
     32 F         -23.1527    2.0383   25.3566 F       1  UNL1       -0.2338
     33 C         -26.6905    0.5119   28.9377 C.3     1  UNL1        0.0178
     34 C         -21.4607    1.3505   28.6396 C.3     1  UNL1        0.2381
     35 F         -20.8868    2.3305   26.7934 F       1  UNL1       -0.2300
     36 O         -20.2779    0.4757   28.5388 O.3     1  UNL1       -0.3071
     37 C         -23.2471    1.7631   26.7403 C.3     1  UNL1        0.2026
     38 N         -22.5271    0.6455   29.3427 N.3     1  UNL1       -0.1178
     39 C         -20.9786   -0.5981   29.3151 C.3     1  UNL1        0.3143
     40 C         -21.9974    1.8104   27.2993 C.3     1  UNL1        0.2382
     41 N         -24.4798   -0.1649   29.1107 N.3     1  UNL1       -0.2544
@<TRIPOS>BOND
     1     1     2    1
     2     2     7    1
     3     3     2    2
     4     4     3    1
     5     4     5    2
     6     5     6    1
     7     6     7    2
     8     8     1    1
     9     8     9    1
    10     8    12    1
    11     9    10    1
    12    10    11    1
    13    12    11    1
    14    14    13    1
    15    14    15    1
    16    15    18    2
    17    16    17    1
    18    16    15    1
    19    19    14    2
    20    20    21    2
    21    20    19    1
    22    21    26    1
    23    22    21    1
    24    23    22    1
    25    24    23    1
    26    24    25    1
    27    26    27    1
    28    26    13    2
    29    28    13    1
    30    28    30    1
    31    29    41    1
    32    30    33    1
    33    30    41    1
    34    34    36    1
    35    34    38    1
    36    36    39    1
    37    37    32    1
    38    37    28    1
    39    37    40    1
    40    38    29    1
    41    38    31    1
    42    39    31    1
    43    40    35    1
    44    40    34    1
    45    41     1    1
