@<TRIPOS>MOLECULE
outputs/IAG933/test6/raw/output_2433_IAG933_linker_design_.xyz
 39 42 0 0 0
SMALL
GASTEIGER

@<TRIPOS>ATOM
      1 C         -24.8550   -1.0120   30.1430 C.3     1  UNL1        0.1222
      2 C         -24.9730   -2.5050   29.7880 C.2     1  UNL1       -0.0042
      3 C         -23.9060   -3.1730   29.1460 C.2     1  UNL1       -0.0029
      4 C         -23.9890   -4.5490   28.8530 C.2     1  UNL1       -0.0003
      5 C         -25.1370   -5.2800   29.2050 C.2     1  UNL1       -0.0000
      6 C         -26.2320   -4.6110   29.7840 C.2     1  UNL1       -0.0003
      7 C         -26.1550   -3.2320   30.0650 C.2     1  UNL1       -0.0029
      8 C         -25.3870   -0.6790   31.5710 C.3     1  UNL1        0.0938
      9 C         -25.1890    0.7730   32.0280 C.3     1  UNL1        0.0207
     10 C         -25.3360    0.6840   33.5440 C.3     1  UNL1        0.0203
     11 C         -24.8290   -0.7150   33.9050 C.3     1  UNL1        0.0888
     12 N         -24.7580   -1.4810   32.6460 N.3     1  UNL1       -0.2177
     13 C         -25.6880    1.6140   26.4610 C.2     1  UNL1        0.0469
     14 C         -26.2500    2.9200   26.3950 C.2     1  UNL1        0.0750
     15 C         -25.6420    4.0930   27.1230 C.2     1  UNL1        0.2662
     16 N         -25.6140    5.2520   26.4490 N.am    1  UNL1       -0.1997
     17 C         -25.0260    6.4790   26.9630 C.3     1  UNL1        0.1388
     18 O         -25.1430    3.9660   28.2430 O.2     1  UNL1       -0.2683
     19 C         -27.4380    3.0910   25.6450 C.2     1  UNL1        0.1065
     20 N         -28.0750    2.0890   25.0030 N.2     1  UNL1       -0.2081
     21 C         -27.5430    0.8490   25.0790 C.2     1  UNL1        0.2530
     22 O         -28.1930   -0.2080   24.4770 O.2     1  UNL1       -0.4558
     23 C         -29.4600    0.0050   23.8660 C.3     1  UNL1        0.2426
     24 C         -30.0650   -1.3770   23.5730 C.3     1  UNL1        0.2292
     25 O         -30.7290   -1.8780   24.7210 O.3     1  UNL1       -0.2162
     26 C         -26.3540    0.5760   25.7770 C.2     1  UNL1        0.1915
     27 F         -25.8600   -0.6810   25.7950 F       1  UNL1       -0.1995
     28 C         -23.1439    1.9327   25.4925 C.2     1  UNL1        0.3329
     29 C         -23.3507    1.4779   26.7603 C.3     1  UNL1        0.2188
     30 C         -21.4443    1.1951   28.1145 C.2     1  UNL1        0.2434
     31 O         -22.3906    2.7918   25.1808 O.2     1  UNL1       -0.2571
     32 O         -20.2142    1.6439   28.1217 O.2     1  UNL1       -0.2733
     33 C         -23.4226    0.1224   29.0728 C.3     1  UNL1        0.1110
     34 N         -22.1810    1.5708   27.2534 N.am    1  UNL1       -0.1936
     35 F         -23.4928    1.2105   24.4919 F       1  UNL1       -0.1616
     36 C         -22.0847    0.2873   29.1388 C.3     1  UNL1        0.1066
     37 N         -24.5658   -0.0975   29.1916 N.3     1  UNL1       -0.1610
     38 C         -24.7230    1.1818   27.2031 C.3     1  UNL1        0.1921
     39 O         -25.3061    0.4228   28.2644 O.3     1  UNL1       -0.2776
@<TRIPOS>BOND
     1     1     2    1
     2     2     7    1
     3     3     2    2
     4     4     3    1
     5     4     5    2
     6     5     6    1
     7     6     7    2
     8     8     1    1
     9     8     9    1
    10     8    12    1
    11     9    10    1
    12    10    11    1
    13    12    11    1
    14    14    13    1
    15    14    15    1
    16    15    18    2
    17    16    17    1
    18    16    15    1
    19    19    14    2
    20    20    21    2
    21    20    19    1
    22    21    26    1
    23    22    21    1
    24    23    22    1
    25    24    23    1
    26    24    25    1
    27    26    27    1
    28    26    13    2
    29    29    28    1
    30    29    38    1
    31    29    34    1
    32    30    32    2
    33    30    36    1
    34    31    28    2
    35    33    36    1
    36    33    37    1
    37    34    30    1
    38    35    28    1
    39    37     1    1
    40    38    13    1
    41    38    39    1
    42    39    37    1
