@<TRIPOS>MOLECULE
No_2435-gen_results/8p0m/2024-11-27-11-27-31/
 11 12 0 0 0
SMALL
GASTEIGER

@<TRIPOS>ATOM
      1 C         -28.0162   -0.8135   28.8779 C.3     1  UNL1        0.1531
      2 C         -27.0636   -0.1190   28.6079 C.ar    1  UNL1       -0.0002
      3 C         -25.7923   -0.4302   29.0761 C.ar    1  UNL1       -0.0026
      4 C         -24.5456    0.3494   28.8225 C.ar    1  UNL1       -0.0003
      5 C         -24.6586    1.4196   27.8878 C.ar    1  UNL1       -0.0003
      6 C         -25.9471    1.6811   27.3792 C.ar    1  UNL1       -0.0028
      7 C         -27.0439    0.9739   27.6871 C.ar    1  UNL1       -0.0027
      8 N         -29.1882   -0.1472   29.0918 N.2     1  UNL1       -0.2478
      9 C         -29.7585    0.5259   28.4632 C.2     1  UNL1        0.1769
     10 N         -29.3546    1.5379   27.5663 N.pl3   1  UNL1       -0.2134
     11 C         -28.2694    1.7020   27.2815 C.3     1  UNL1        0.1400
@<TRIPOS>BOND
     1     1     2    1
     2     1     8    1
     3     8     9    2
     4     9    10    1
     5     7    11    1
     6    10    11    1
     7     2     3   ar
     8     3     4   ar
     9     4     5   ar
    10     5     6   ar
    11     6     7   ar
    12     7     2   ar
