@<TRIPOS>MOLECULE
outputs/IAG933/test6/raw/output_2436_IAG933_linker_design_.xyz
 42 46 0 0 0
SMALL
GASTEIGER

@<TRIPOS>ATOM
      1 C         -24.8550   -1.0120   30.1430 C.3     1  UNL1        0.0989
      2 C         -24.9730   -2.5050   29.7880 C.2     1  UNL1       -0.0063
      3 C         -23.9060   -3.1730   29.1460 C.2     1  UNL1       -0.0029
      4 C         -23.9890   -4.5490   28.8530 C.2     1  UNL1       -0.0003
      5 C         -25.1370   -5.2800   29.2050 C.2     1  UNL1       -0.0000
      6 C         -26.2320   -4.6110   29.7840 C.2     1  UNL1       -0.0003
      7 C         -26.1550   -3.2320   30.0650 C.2     1  UNL1       -0.0029
      8 C         -25.3870   -0.6790   31.5710 C.3     1  UNL1        0.0916
      9 C         -25.1890    0.7730   32.0280 C.3     1  UNL1        0.0206
     10 C         -25.3360    0.6840   33.5440 C.3     1  UNL1        0.0203
     11 C         -24.8290   -0.7150   33.9050 C.3     1  UNL1        0.0888
     12 N         -24.7580   -1.4810   32.6460 N.3     1  UNL1       -0.2178
     13 C         -25.6880    1.6140   26.4610 C.2     1  UNL1        0.0443
     14 C         -26.2500    2.9200   26.3950 C.2     1  UNL1        0.0769
     15 C         -25.6420    4.0930   27.1230 C.2     1  UNL1        0.2664
     16 N         -25.6140    5.2520   26.4490 N.am    1  UNL1       -0.1997
     17 C         -25.0260    6.4790   26.9630 C.3     1  UNL1        0.1388
     18 O         -25.1430    3.9660   28.2430 O.2     1  UNL1       -0.2683
     19 C         -27.4380    3.0910   25.6450 C.2     1  UNL1        0.1067
     20 N         -28.0750    2.0890   25.0030 N.2     1  UNL1       -0.2081
     21 C         -27.5430    0.8490   25.0790 C.2     1  UNL1        0.2533
     22 O         -28.1930   -0.2080   24.4770 O.2     1  UNL1       -0.4558
     23 C         -29.4600    0.0050   23.8660 C.3     1  UNL1        0.2426
     24 C         -30.0650   -1.3770   23.5730 C.3     1  UNL1        0.2292
     25 O         -30.7290   -1.8780   24.7210 O.3     1  UNL1       -0.2162
     26 C         -26.3540    0.5760   25.7770 C.2     1  UNL1        0.1934
     27 F         -25.8600   -0.6810   25.7950 F       1  UNL1       -0.1992
     28 N         -24.4985    0.1274   29.3232 N.3     1  UNL1       -0.2349
     29 C         -25.4133    0.9207   28.6616 C.3     1  UNL1        0.1897
     30 O         -21.4172    1.8760   26.5353 O.2     1  UNL1       -0.4466
     31 C         -27.9320    0.0073   28.8124 C.2     1  UNL1        0.4644
     32 O         -28.5721   -1.0580   28.9232 O.co2   1  UNL1       -0.2206
     33 C         -23.2346    0.7737   29.3993 C.3     1  UNL1        0.1537
     34 F         -22.9174    2.6313   24.9886 F       1  UNL1       -0.1546
     35 N         -26.5430   -0.0161   28.4193 N.am    1  UNL1       -0.1456
     36 C         -21.1556    1.2577   27.7429 C.3     1  UNL1        0.2285
     37 O         -28.5574    1.1106   28.8588 O.co2   1  UNL1       -0.2206
     38 N         -22.2310   -0.1112   29.6163 N.3     1  UNL1       -0.1966
     39 C         -22.6831    2.0565   26.0955 C.2     1  UNL1        0.3208
     40 C         -23.7066    1.4845   26.8559 C.1     1  UNL1       -0.0357
     41 C         -24.7482    1.2910   27.3547 C.2     1  UNL1        0.0550
     42 C         -22.0962    0.5738   28.5949 C.3     1  UNL1        0.1491
@<TRIPOS>BOND
     1     1     2    1
     2     2     7    1
     3     3     2    2
     4     4     3    1
     5     4     5    2
     6     5     6    1
     7     6     7    2
     8     8     1    1
     9     8     9    1
    10     8    12    1
    11     9    10    1
    12    10    11    1
    13    12    11    1
    14    13    41    1
    15    14    13    1
    16    14    15    1
    17    15    18    2
    18    16    17    1
    19    16    15    1
    20    19    14    2
    21    20    21    2
    22    20    19    1
    23    21    26    1
    24    22    21    1
    25    23    22    1
    26    24    23    1
    27    24    25    1
    28    26    27    1
    29    26    13    2
    30    28    33    1
    31    28     1    1
    32    29    35    1
    33    29    28    1
    34    30    36    1
    35    31    37   ar
    36    31    32   ar
    37    33    38    1
    38    34    39    1
    39    35    31    1
    40    39    30    1
    41    39    40    2
    42    40    41    2
    43    41    29    1
    44    42    36    1
    45    42    33    1
    46    42    38    1
