@<TRIPOS>MOLECULE
No_2437-gen_results/8p0m/2024-11-27-11-27-31/
 28 30 0 0 0
SMALL
GASTEIGER

@<TRIPOS>ATOM
      1 O         -28.1229   -1.3353   28.4874 O.2     1  UNL1       -0.2745
      2 C         -28.5208   -0.4363   29.0779 C.2     1  UNL1        0.2297
      3 C         -28.5894    0.5916   28.9464 C.3     1  UNL1        0.0906
      4 N         -28.7865   -0.8872   30.4874 N.am    1  UNL1       -0.2580
      5 C         -27.7841    1.2822   27.9869 C.3     1  UNL1        0.0389
      6 C         -26.4272    1.0397   27.9945 C.3     1  UNL1        0.0484
      7 C         -25.6366    1.3015   28.8292 C.ar    1  UNL1       -0.0181
      8 C         -24.1528    1.0051   28.7690 C.ar    1  UNL1       -0.0039
      9 C         -23.3576    0.6944   29.7704 C.ar    1  UNL1       -0.0003
     10 C         -23.8616    0.9724   31.1122 C.ar    1  UNL1       -0.0000
     11 C         -25.2031    1.4037   31.3004 C.ar    1  UNL1       -0.0003
     12 C         -26.0158    1.4398   30.1778 C.ar    1  UNL1       -0.0039
     13 C         -29.3223   -0.0848   31.5412 C.ar    1  UNL1        0.0538
     14 C         -28.5375   -2.3300   30.9208 C.3     1  UNL1        0.1100
     15 C         -25.9580    0.5679   26.6101 C.2     1  UNL1       -0.0260
     16 C         -30.4827   -0.4535   32.1095 C.ar    1  UNL1        0.0149
     17 C         -31.0910    0.3601   32.8049 C.ar    1  UNL1        0.0013
     18 C         -30.5436    1.6860   33.1257 C.ar    1  UNL1        0.0001
     19 C         -29.5985    1.9272   32.7282 C.ar    1  UNL1        0.0013
     20 C         -28.7919    1.1912   31.7968 C.ar    1  UNL1        0.0149
     21 C         -28.3486   -3.2224   30.0092 C.3     1  UNL1        0.1358
     22 C         -28.2698   -4.4918   30.7041 C.2     1  UNL1        0.3666
     23 O         -27.7992   -5.4025   30.0489 O.co2   1  UNL1       -0.2456
     24 O         -28.9216   -4.7966   31.7085 O.co2   1  UNL1       -0.2456
     25 C         -25.8248    1.3817   25.6257 C.2     1  UNL1       -0.0257
     26 C         -28.3732    2.1629   27.0074 C.2     1  UNL1       -0.0295
     27 C         -28.0551    2.3008   25.6656 C.2     1  UNL1       -0.0260
     28 C         -26.8586    2.1159   25.0717 C.3     1  UNL1        0.0513
@<TRIPOS>BOND
     1     1     2    2
     2     2     3    1
     3     2     4   am
     4     3     5    1
     5     5     6    1
     6     4    13    1
     7     4    14    1
     8     6    15    1
     9    14    21    1
    10    21    22    1
    11    22    23   ar
    12    22    24   ar
    13    15    25    2
    14     5    26    1
    15    26    27    2
    16    25    28    1
    17    27    28    1
    18     6     7    1
    19     7     8   ar
    20     8     9   ar
    21     9    10   ar
    22    10    11   ar
    23    11    12   ar
    24    12     7   ar
    25    13    16   ar
    26    16    17   ar
    27    17    18   ar
    28    18    19   ar
    29    19    20   ar
    30    20    13   ar
