@<TRIPOS>MOLECULE
outputs/IAG933/test6/raw/output_2438_IAG933_linker_design_.xyz
 42 46 0 0 0
SMALL
GASTEIGER

@<TRIPOS>ATOM
      1 C         -24.8550   -1.0120   30.1430 C.3     1  UNL1        0.0417
      2 C         -24.9730   -2.5050   29.7880 C.2     1  UNL1       -0.0210
      3 C         -23.9060   -3.1730   29.1460 C.2     1  UNL1       -0.0042
      4 C         -23.9890   -4.5490   28.8530 C.2     1  UNL1       -0.0003
      5 C         -25.1370   -5.2800   29.2050 C.2     1  UNL1       -0.0000
      6 C         -26.2320   -4.6110   29.7840 C.2     1  UNL1       -0.0003
      7 C         -26.1550   -3.2320   30.0650 C.2     1  UNL1       -0.0042
      8 C         -25.3870   -0.6790   31.5710 C.3     1  UNL1        0.0769
      9 C         -25.1890    0.7730   32.0280 C.3     1  UNL1        0.0192
     10 C         -25.3360    0.6840   33.5440 C.3     1  UNL1        0.0202
     11 C         -24.8290   -0.7150   33.9050 C.3     1  UNL1        0.0887
     12 N         -24.7580   -1.4810   32.6460 N.3     1  UNL1       -0.2191
     13 C         -25.6880    1.6140   26.4610 C.2     1  UNL1        0.1011
     14 C         -26.2500    2.9200   26.3950 C.2     1  UNL1        0.0904
     15 C         -25.6420    4.0930   27.1230 C.2     1  UNL1        0.2676
     16 N         -25.6140    5.2520   26.4490 N.am    1  UNL1       -0.1997
     17 C         -25.0260    6.4790   26.9630 C.3     1  UNL1        0.1388
     18 O         -25.1430    3.9660   28.2430 O.2     1  UNL1       -0.2683
     19 C         -27.4380    3.0910   25.6450 C.2     1  UNL1        0.1076
     20 N         -28.0750    2.0890   25.0030 N.2     1  UNL1       -0.2112
     21 C         -27.5430    0.8490   25.0790 C.2     1  UNL1        0.2399
     22 O         -28.1930   -0.2080   24.4770 O.2     1  UNL1       -0.4583
     23 C         -29.4600    0.0050   23.8660 C.3     1  UNL1        0.2423
     24 C         -30.0650   -1.3770   23.5730 C.3     1  UNL1        0.2292
     25 O         -30.7290   -1.8780   24.7210 O.3     1  UNL1       -0.2162
     26 C         -26.3540    0.5760   25.7770 C.3     1  UNL1        0.2752
     27 F         -25.8600   -0.6810   25.7950 F       1  UNL1       -0.2207
     28 C         -24.2678    0.1997   27.8106 C.3     1  UNL1        0.1611
     29 C         -27.8159   -0.4731   28.6985 C.3     1  UNL1        0.0302
     30 C         -28.4932    1.8306   29.2534 C.3     1  UNL1        0.0999
     31 C         -30.1342    0.0658   28.2661 C.2     1  UNL1        0.3658
     32 O         -30.6612    0.9338   27.5361 O.co2   1  UNL1       -0.2456
     33 C         -29.0347    0.3512   29.3055 C.3     1  UNL1        0.1221
     34 N         -24.8595    1.3027   27.2859 N.2     1  UNL1       -0.2681
     35 O         -22.6140    0.8193   29.3769 O.3     1  UNL1       -0.1904
     36 C         -22.7451    0.7406   27.8828 C.3     1  UNL1        0.2675
     37 C         -25.1841   -0.1163   28.9869 C.3     1  UNL1        0.0489
     38 O         -22.6721    1.6285   26.7851 O.3     1  UNL1       -0.3234
     39 N         -26.9533    1.6752   29.0784 N.3     1  UNL1       -0.2188
     40 C         -26.5939    0.3067   29.0201 C.3     1  UNL1        0.0757
     41 O         -30.5000   -1.1435   28.2022 O.co2   1  UNL1       -0.2456
     42 C         -21.3706    1.3616   27.2865 C.3     1  UNL1        0.2056
@<TRIPOS>BOND
     1     1    37    1
     2     2     7    1
     3     2     1    1
     4     3     2    2
     5     4     3    1
     6     4     5    2
     7     5     6    1
     8     6     7    2
     9     8     1    1
    10     8     9    1
    11     8    12    1
    12     9    10    1
    13    10    11    1
    14    12    11    1
    15    13    34    2
    16    14    13    1
    17    14    15    1
    18    15    18    2
    19    16    17    1
    20    16    15    1
    21    19    14    2
    22    20    21    2
    23    20    19    1
    24    21    26    1
    25    22    21    1
    26    23    22    1
    27    24    23    1
    28    24    25    1
    29    26    27    1
    30    26    13    1
    31    28    34    1
    32    28    36    1
    33    29    40    1
    34    29    33    1
    35    30    33    1
    36    32    31   ar
    37    33    31    1
    38    36    35    1
    39    37    28    1
    40    38    42    1
    41    38    36    1
    42    39    30    1
    43    40    37    1
    44    40    39    1
    45    41    31   ar
    46    42    36    1
