@<TRIPOS>MOLECULE
outputs/IAG933/test6/raw/output_2439_IAG933_linker_design_.xyz
 48 52 0 0 0
SMALL
GASTEIGER

@<TRIPOS>ATOM
      1 C         -24.8550   -1.0120   30.1430 C.3     1  UNL1        0.1152
      2 C         -24.9730   -2.5050   29.7880 C.2     1  UNL1       -0.0029
      3 C         -23.9060   -3.1730   29.1460 C.2     1  UNL1       -0.0026
      4 C         -23.9890   -4.5490   28.8530 C.2     1  UNL1       -0.0003
      5 C         -25.1370   -5.2800   29.2050 C.2     1  UNL1       -0.0000
      6 C         -26.2320   -4.6110   29.7840 C.2     1  UNL1       -0.0003
      7 C         -26.1550   -3.2320   30.0650 C.2     1  UNL1       -0.0026
      8 C         -25.3870   -0.6790   31.5710 C.3     1  UNL1        0.0952
      9 C         -25.1890    0.7730   32.0280 C.3     1  UNL1        0.0209
     10 C         -25.3360    0.6840   33.5440 C.3     1  UNL1        0.0203
     11 C         -24.8290   -0.7150   33.9050 C.3     1  UNL1        0.0888
     12 N         -24.7580   -1.4810   32.6460 N.3     1  UNL1       -0.2174
     13 C         -25.6880    1.6140   26.4610 C.2     1  UNL1        0.0701
     14 C         -26.2500    2.9200   26.3950 C.2     1  UNL1        0.0695
     15 C         -25.6420    4.0930   27.1230 C.2     1  UNL1        0.2637
     16 N         -25.6140    5.2520   26.4490 N.am    1  UNL1       -0.2000
     17 C         -25.0260    6.4790   26.9630 C.3     1  UNL1        0.1388
     18 O         -25.1430    3.9660   28.2430 O.2     1  UNL1       -0.2686
     19 C         -27.4380    3.0910   25.6450 C.3     1  UNL1        0.1604
     20 N         -28.0750    2.0890   25.0030 N.2     1  UNL1       -0.2340
     21 C         -27.5430    0.8490   25.0790 C.2     1  UNL1        0.2355
     22 O         -28.1930   -0.2080   24.4770 O.2     1  UNL1       -0.4585
     23 C         -29.4600    0.0050   23.8660 C.3     1  UNL1        0.2423
     24 C         -30.0650   -1.3770   23.5730 C.3     1  UNL1        0.2292
     25 O         -30.7290   -1.8780   24.7210 O.3     1  UNL1       -0.2162
     26 C         -26.3540    0.5760   25.7770 C.3     1  UNL1        0.2707
     27 F         -25.8600   -0.6810   25.7950 F       1  UNL1       -0.2210
     28 C         -28.3133    3.0662   29.9644 C.3     1  UNL1        0.1170
     29 C         -27.2086    3.7493   30.7050 C.2     1  UNL1        0.0291
     30 C         -26.8153    0.8185   28.8275 C.3     1  UNL1        0.0427
     31 C         -28.1425    1.6896   29.5492 C.3     1  UNL1        0.0271
     32 C         -25.6429    5.2230   32.4349 C.2     1  UNL1        0.0607
     33 C         -23.0494    0.3971   29.1493 C.2     1  UNL1        0.2282
     34 C         -28.8525    6.3989   28.9041 C.3     1  UNL1        0.2525
     35 C         -26.3312    3.1088   31.6215 C.2     1  UNL1        0.0010
     36 N         -24.7737    1.3025   27.3627 N.pl3   1  UNL1       -0.2937
     37 C         -21.0769    1.7045   27.8212 C.3     1  UNL1        0.0114
     38 C         -23.4704    1.7087   27.0588 C.3     1  UNL1        0.1010
     39 C         -22.5606    1.5577   28.2217 C.3     1  UNL1        0.0965
     40 O         -22.2162   -0.1896   29.6893 O.2     1  UNL1       -0.2748
     41 C         -25.5790    3.8625   32.5048 C.2     1  UNL1        0.0113
     42 C         -27.2881    5.1272   30.6363 C.2     1  UNL1        0.1369
     43 C         -25.2579    0.6970   28.4570 C.3     1  UNL1        0.1522
     44 CL        -24.7922    6.0303   33.8475 Cl      1  UNL1       -0.0821
     45 C         -26.4509    5.8870   31.4706 C.2     1  UNL1        0.0480
     46 O         -28.3040    5.4073   29.7392 O.2     1  UNL1       -0.4717
     47 N         -29.1321    4.1302   29.5372 N.3     1  UNL1       -0.1280
     48 N         -24.3878    0.0331   29.2731 N.am    1  UNL1       -0.2613
@<TRIPOS>BOND
     1     1     2    1
     2     2     7    1
     3     3     2    2
     4     4     3    1
     5     4     5    2
     6     5     6    1
     7     6     7    2
     8     8     1    1
     9     8     9    1
    10     8    12    1
    11     9    10    1
    12    10    11    1
    13    12    11    1
    14    13    36    1
    15    14    13    2
    16    14    15    1
    17    15    18    2
    18    16    17    1
    19    16    15    1
    20    19    14    1
    21    20    21    2
    22    20    19    1
    23    21    26    1
    24    22    21    1
    25    23    22    1
    26    24    23    1
    27    24    25    1
    28    26    27    1
    29    26    13    1
    30    28    47    1
    31    28    29    1
    32    29    35    1
    33    30    31    1
    34    31    28    1
    35    32    41    1
    36    32    44    1
    37    33    48   am
    38    33    40    2
    39    34    46    1
    40    35    41    2
    41    36    43    1
    42    38    36    1
    43    38    39    1
    44    39    37    1
    45    39    33    1
    46    42    29    2
    47    42    45    1
    48    43    30    1
    49    43    48    1
    50    45    32    2
    51    46    42    1
    52    48     1    1
