@<TRIPOS>MOLECULE
outputs/IAG933/test6/raw/output_244_IAG933_linker_design_.xyz
 45 49 0 0 0
SMALL
GASTEIGER

@<TRIPOS>ATOM
      1 C         -24.8550   -1.0120   30.1430 C.3     1  UNL1        0.0411
      2 C         -24.9730   -2.5050   29.7880 C.2     1  UNL1       -0.0211
      3 C         -23.9060   -3.1730   29.1460 C.2     1  UNL1       -0.0042
      4 C         -23.9890   -4.5490   28.8530 C.2     1  UNL1       -0.0003
      5 C         -25.1370   -5.2800   29.2050 C.2     1  UNL1       -0.0000
      6 C         -26.2320   -4.6110   29.7840 C.2     1  UNL1       -0.0003
      7 C         -26.1550   -3.2320   30.0650 C.2     1  UNL1       -0.0042
      8 C         -25.3870   -0.6790   31.5710 C.3     1  UNL1        0.0769
      9 C         -25.1890    0.7730   32.0280 C.3     1  UNL1        0.0192
     10 C         -25.3360    0.6840   33.5440 C.3     1  UNL1        0.0202
     11 C         -24.8290   -0.7150   33.9050 C.3     1  UNL1        0.0887
     12 N         -24.7580   -1.4810   32.6460 N.3     1  UNL1       -0.2191
     13 C         -25.6880    1.6140   26.4610 C.2     1  UNL1        0.0388
     14 C         -26.2500    2.9200   26.3950 C.2     1  UNL1        0.0764
     15 C         -25.6420    4.0930   27.1230 C.2     1  UNL1        0.2664
     16 N         -25.6140    5.2520   26.4490 N.am    1  UNL1       -0.1997
     17 C         -25.0260    6.4790   26.9630 C.3     1  UNL1        0.1388
     18 O         -25.1430    3.9660   28.2430 O.2     1  UNL1       -0.2683
     19 C         -27.4380    3.0910   25.6450 C.2     1  UNL1        0.1067
     20 N         -28.0750    2.0890   25.0030 N.2     1  UNL1       -0.2081
     21 C         -27.5430    0.8490   25.0790 C.2     1  UNL1        0.2533
     22 O         -28.1930   -0.2080   24.4770 O.2     1  UNL1       -0.4558
     23 C         -29.4600    0.0050   23.8660 C.3     1  UNL1        0.2426
     24 C         -30.0650   -1.3770   23.5730 C.3     1  UNL1        0.2292
     25 O         -30.7290   -1.8780   24.7210 O.3     1  UNL1       -0.2162
     26 C         -26.3540    0.5760   25.7770 C.2     1  UNL1        0.1929
     27 F         -25.8600   -0.6810   25.7950 F       1  UNL1       -0.1992
     28 C         -26.9947   -0.2064   29.0625 C.3     1  UNL1        0.0032
     29 N         -22.5455    1.2411   27.6887 N.3     1  UNL1       -0.2263
     30 C         -29.7408    2.4559   30.9951 C.3     1  UNL1        0.0025
     31 C         -24.5939    0.7330   28.3971 C.3     1  UNL1        0.1692
     32 C         -30.1456    0.9047   30.4113 C.3     1  UNL1        0.0025
     33 C         -32.2723    3.6416   29.5858 C.3     1  UNL1        0.1740
     34 C         -30.3698    0.8851   28.0823 C.3     1  UNL1        0.0296
     35 C         -24.6677    1.3580   27.2618 C.2     1  UNL1        0.0382
     36 C         -30.7861    1.8980   30.1583 C.3     1  UNL1        0.0272
     37 C         -23.4408    1.5890   26.9143 C.2     1  UNL1        0.1376
     38 C         -29.1760    0.7823   29.0644 C.3     1  UNL1        0.0025
     39 CL        -23.0462    2.5979   25.4923 Cl      1  UNL1       -0.0615
     40 C         -21.1027    1.6345   27.5102 C.3     1  UNL1        0.1600
     41 C         -25.5555   -0.1069   29.1308 C.3     1  UNL1        0.0396
     42 O         -23.2275    0.6286   28.6833 O.3     1  UNL1       -0.2544
     43 O         -32.1430    2.7709   28.4738 O.3     1  UNL1       -0.3536
     44 C         -30.8869    2.1793   28.6624 C.3     1  UNL1        0.1153
     45 C         -28.3994   -0.4940   29.0200 C.3     1  UNL1        0.0002
@<TRIPOS>BOND
     1     1    41    1
     2     2     7    1
     3     2     1    1
     4     3     2    2
     5     4     3    1
     6     4     5    2
     7     5     6    1
     8     6     7    2
     9     8     1    1
    10     8     9    1
    11     8    12    1
    12     9    10    1
    13    10    11    1
    14    12    11    1
    15    13    35    1
    16    14    13    1
    17    14    15    1
    18    15    18    2
    19    16    17    1
    20    16    15    1
    21    19    14    2
    22    20    21    2
    23    20    19    1
    24    21    26    1
    25    22    21    1
    26    23    22    1
    27    24    23    1
    28    24    25    1
    29    26    27    1
    30    26    13    2
    31    29    42    1
    32    31    42    1
    33    31    41    1
    34    34    44    1
    35    34    38    1
    36    35    31    1
    37    36    32    1
    38    36    30    1
    39    37    35    2
    40    37    29    1
    41    38    45    1
    42    38    32    1
    43    39    37    1
    44    40    29    1
    45    41    28    1
    46    43    33    1
    47    44    43    1
    48    44    36    1
    49    45    28    1
