@<TRIPOS>MOLECULE
outputs/IAG933/test6/raw/output_2441_IAG933_linker_design_.xyz
 41 45 0 0 0
SMALL
GASTEIGER

@<TRIPOS>ATOM
      1 C         -24.8550   -1.0120   30.1430 C.3     1  UNL1        0.1222
      2 C         -24.9730   -2.5050   29.7880 C.2     1  UNL1       -0.0042
      3 C         -23.9060   -3.1730   29.1460 C.2     1  UNL1       -0.0029
      4 C         -23.9890   -4.5490   28.8530 C.2     1  UNL1       -0.0003
      5 C         -25.1370   -5.2800   29.2050 C.2     1  UNL1       -0.0000
      6 C         -26.2320   -4.6110   29.7840 C.2     1  UNL1       -0.0003
      7 C         -26.1550   -3.2320   30.0650 C.2     1  UNL1       -0.0029
      8 C         -25.3870   -0.6790   31.5710 C.3     1  UNL1        0.0938
      9 C         -25.1890    0.7730   32.0280 C.3     1  UNL1        0.0207
     10 C         -25.3360    0.6840   33.5440 C.3     1  UNL1        0.0203
     11 C         -24.8290   -0.7150   33.9050 C.3     1  UNL1        0.0888
     12 N         -24.7580   -1.4810   32.6460 N.3     1  UNL1       -0.2177
     13 C         -25.6880    1.6140   26.4610 C.2     1  UNL1        0.0195
     14 C         -26.2500    2.9200   26.3950 C.2     1  UNL1        0.0727
     15 C         -25.6420    4.0930   27.1230 C.2     1  UNL1        0.2661
     16 N         -25.6140    5.2520   26.4490 N.am    1  UNL1       -0.1997
     17 C         -25.0260    6.4790   26.9630 C.3     1  UNL1        0.1388
     18 O         -25.1430    3.9660   28.2430 O.2     1  UNL1       -0.2683
     19 C         -27.4380    3.0910   25.6450 C.2     1  UNL1        0.1064
     20 N         -28.0750    2.0890   25.0030 N.2     1  UNL1       -0.2081
     21 C         -27.5430    0.8490   25.0790 C.2     1  UNL1        0.2530
     22 O         -28.1930   -0.2080   24.4770 O.2     1  UNL1       -0.4558
     23 C         -29.4600    0.0050   23.8660 C.3     1  UNL1        0.2426
     24 C         -30.0650   -1.3770   23.5730 C.3     1  UNL1        0.2292
     25 O         -30.7290   -1.8780   24.7210 O.3     1  UNL1       -0.2162
     26 C         -26.3540    0.5760   25.7770 C.2     1  UNL1        0.1892
     27 F         -25.8600   -0.6810   25.7950 F       1  UNL1       -0.1996
     28 C         -21.2559    1.9915   27.5318 C.3     1  UNL1        0.2358
     29 N         -24.9095   -0.1481   28.9602 N.3     1  UNL1       -0.1613
     30 O         -22.2857    2.3373   26.6895 O.3     1  UNL1       -0.3356
     31 N         -22.8606    0.6135   30.4876 N.3     1  UNL1       -0.1150
     32 C         -22.7770   -0.3934   28.6843 C.3     1  UNL1        0.0557
     33 C         -22.7178    0.8724   29.1696 C.3     1  UNL1        0.1538
     34 O         -25.7708   -0.9361   28.0297 O.3     1  UNL1       -0.2792
     35 C         -26.9341   -0.2053   28.4493 C.3     1  UNL1        0.2007
     36 F         -23.9724    1.4274   24.0269 F       1  UNL1       -0.2316
     37 C         -24.2853    1.2307   27.0303 C.3     1  UNL1        0.0733
     38 N         -21.3844    1.4509   28.8401 N.3     1  UNL1       -0.1722
     39 C         -23.4712    2.1328   26.2562 C.3     1  UNL1        0.1576
     40 C         -23.9808    0.3574   28.0804 C.3     1  UNL1        0.1078
     41 C         -23.8470    2.5272   25.0746 C.3     1  UNL1        0.2229
@<TRIPOS>BOND
     1     1    29    1
     2     2     7    1
     3     2     1    1
     4     3     2    2
     5     4     3    1
     6     4     5    2
     7     5     6    1
     8     6     7    2
     9     8     1    1
    10     8     9    1
    11     8    12    1
    12     9    10    1
    13    10    11    1
    14    12    11    1
    15    14    13    1
    16    14    15    1
    17    15    18    2
    18    16    17    1
    19    16    15    1
    20    19    14    2
    21    20    21    2
    22    20    19    1
    23    21    26    1
    24    22    21    1
    25    23    22    1
    26    24    23    1
    27    24    25    1
    28    26    27    1
    29    26    13    2
    30    28    38    1
    31    30    28    1
    32    32    33    1
    33    33    31    1
    34    34    35    1
    35    34    29    1
    36    36    41    1
    37    37    13    1
    38    37    40    1
    39    38    33    1
    40    39    41    1
    41    39    30    1
    42    39    37    1
    43    40    32    1
    44    40    29    1
    45    40    33    1
