@<TRIPOS>MOLECULE
No_2444-gen_results/8p0m/2024-11-27-11-27-31/
 19 19 0 0 0
SMALL
GASTEIGER

@<TRIPOS>ATOM
      1 C         -28.0162   -0.8135   28.8779 C.ar    1  UNL1       -0.0001
      2 C         -27.0636   -0.1190   28.6079 C.ar    1  UNL1       -0.0003
      3 C         -26.9716    0.7139   27.5060 C.ar    1  UNL1       -0.0040
      4 C         -28.1053    0.7744   26.6421 C.ar    1  UNL1        0.0035
      5 C         -29.2008    0.1044   27.0527 C.ar    1  UNL1        0.0714
      6 C         -29.2096   -0.6029   28.1853 C.ar    1  UNL1        0.0039
      7 C         -30.3702    0.2264   26.1604 C.3     1  UNL1        0.4186
      8 F         -30.8993    1.2632   26.1932 F       1  UNL1       -0.1659
      9 F         -31.2899   -0.7321   26.5963 F       1  UNL1       -0.1659
     10 F         -30.0568   -0.1619   24.8992 F       1  UNL1       -0.1659
     11 C         -25.6840    1.4115   27.1158 C.2     1  UNL1       -0.0222
     12 C         -25.3999    2.2352   26.4018 C.2     1  UNL1       -0.0046
     13 C         -24.0821    2.8726   26.1817 C.2     1  UNL1       -0.0045
     14 C         -22.9866    2.3355   26.9013 C.2     1  UNL1       -0.0215
     15 C         -23.2994    1.2114   27.7558 C.3     1  UNL1        0.0471
     16 C         -24.5713    0.7362   27.9498 C.3     1  UNL1        0.0264
     17 C         -22.1391    0.6724   28.4876 C.3     1  UNL1        0.0101
     18 P         -23.3818    1.1009   28.7855 P.3     1  UNL1       -0.0312
     19 C         -24.6586   -0.8210   27.5957 C.3     1  UNL1        0.0050
@<TRIPOS>BOND
     1     5     7    1
     2     7     8    1
     3     7     9    1
     4     7    10    1
     5     3    11    1
     6    11    12    2
     7    12    13    1
     8    13    14    2
     9    14    15    1
    10    11    16    1
    11    15    17    1
    12    15    18    1
    13    16    19    1
    14     1     2   ar
    15     2     3   ar
    16     3     4   ar
    17     4     5   ar
    18     5     6   ar
    19     6     1   ar
