@<TRIPOS>MOLECULE
No_2445-gen_results/8p0m/2024-11-27-11-27-31/
 17 18 0 0 0
SMALL
GASTEIGER

@<TRIPOS>ATOM
      1 C         -28.0162   -0.8135   28.8779 C.ar    1  UNL1        0.0030
      2 C         -28.4690   -0.7850   29.8287 C.ar    1  UNL1        0.0002
      3 C         -26.5042   -0.7777   28.8766 C.ar    1  UNL1        0.0001
      4 C         -25.6540   -0.6597   27.7191 C.ar    1  UNL1        0.0007
      5 C         -29.9920   -0.8134   29.9579 C.ar    1  UNL1        0.0031
      6 C         -24.2351   -0.6218   27.9719 C.ar    1  UNL1        0.0103
      7 C         -23.7091   -0.7791   29.2532 C.ar    1  UNL1        0.0684
      8 C         -24.4887   -0.9098   30.3453 C.ar    1  UNL1        0.0103
      9 C         -25.8453   -0.9368   30.1856 C.ar    1  UNL1        0.0007
     10 C         -30.5519   -0.7287   28.7598 C.ar    1  UNL1        0.0375
     11 C         -29.8995   -0.4607   27.6168 C.ar    1  UNL1        0.1454
     12 C         -28.5596   -0.4031   27.6449 C.ar    1  UNL1        0.0375
     13 O         -30.5181   -0.2421   26.4369 O.3     1  UNL1       -0.4504
     14 C         -22.2015   -0.6698   29.3462 C.1     1  UNL1        0.1004
     15 N         -21.2418   -0.0673   28.9863 N.1     1  UNL1       -0.1908
     16 C         -31.4676   -0.4434   26.0090 C.2     1  UNL1        0.1796
     17 C         -31.5791   -0.7045   24.6871 C.2     1  UNL1        0.0439
@<TRIPOS>BOND
     1    11    13    1
     2     7    14    1
     3    14    15    3
     4    13    16    1
     5    16    17    2
     6     3     1    1
     7     3     4   ar
     8     4     6   ar
     9     6     7   ar
    10     7     8   ar
    11     8     9   ar
    12     9     3   ar
    13     1     2   ar
    14     2     5   ar
    15     5    10   ar
    16    10    11   ar
    17    11    12   ar
    18    12     1   ar
