@<TRIPOS>MOLECULE
No_2446-gen_results/8p0m/2024-11-27-11-27-31/
 32 35 0 0 0
SMALL
GASTEIGER

@<TRIPOS>ATOM
      1 O         -28.1229   -1.3353   28.4874 O.2     1  UNL1       -0.2731
      2 C         -27.0637   -0.8242   28.8687 C.2     1  UNL1        0.2444
      3 N         -26.4446   -0.0097   28.8266 N.am    1  UNL1       -0.2770
      4 C         -26.3514   -1.9045   29.8953 C.3     1  UNL1        0.1610
      5 C         -26.9151    1.1844   28.0473 C.3     1  UNL1        0.0978
      6 C         -26.0226    1.7947   27.2860 C.3     1  UNL1        0.0250
      7 C         -24.5713    1.7012   27.5585 C.3     1  UNL1        0.0165
      8 C         -24.2137    0.7004   28.4983 C.3     1  UNL1        0.1396
      9 C         -25.0839   -0.1200   28.9956 C.3     1  UNL1        0.0899
     10 C         -24.7799   -1.3158   29.7237 C.3     1  UNL1        0.0501
     11 C         -22.6766    0.5354   28.7190 C.2     1  UNL1        0.4548
     12 N         -21.8438    1.3057   28.0331 N.pl3   1  UNL1        0.1994
     13 N         -22.2702   -0.0372   29.8155 N.pl3   1  UNL1        0.1994
     14 C         -27.4519    2.1218   29.1313 C.ar    1  UNL1       -0.0042
     15 C         -27.0788    2.4710   30.0919 C.ar    1  UNL1       -0.0027
     16 C         -27.5706    3.4540   31.0603 C.ar    1  UNL1       -0.0002
     17 C         -28.8035    3.9454   30.7710 C.ar    1  UNL1        0.0015
     18 C         -28.8322    2.7085   28.7829 C.ar    1  UNL1       -0.0011
     19 C         -29.4519    3.5618   29.6331 C.ar    1  UNL1        0.0184
     20 N         -26.4276   -3.2718   29.6421 N.am    1  UNL1       -0.2152
     21 C         -25.4736   -3.9762   29.1386 C.ar    1  UNL1        0.0575
     22 C         -25.7096   -5.4234   29.1528 C.ar    1  UNL1        0.0150
     23 C         -27.6078   -3.8822   30.1187 C.2     1  UNL1        0.4512
     24 C         -24.3133   -3.5619   28.4452 C.ar    1  UNL1        0.0150
     25 O         -27.8319   -4.9370   30.4351 O.co2   1  UNL1       -0.2220
     26 O         -28.6320   -3.0188   30.5704 O.co2   1  UNL1       -0.2220
     27 C         -24.5232   -6.2067   28.6966 C.ar    1  UNL1        0.0013
     28 C         -23.4193   -5.6160   28.1166 C.ar    1  UNL1        0.0001
     29 C         -23.3293   -4.2342   28.0911 C.ar    1  UNL1        0.0013
     30 C         -30.7850    4.0768   29.2755 C.2     1  UNL1        0.0932
     31 N         -31.4518    3.8393   28.5540 N.2     1  UNL1       -0.2668
     32 C         -32.7029    4.4275   28.3235 C.3     1  UNL1        0.1517
@<TRIPOS>BOND
     1     1     2    2
     2     2     3   am
     3     2     4    1
     4     3     5    1
     5     6     7    1
     6     3     9    1
     7     8     9    1
     8     4    10    1
     9     9    10    1
    10     8    11    1
    11    11    12    1
    12    11    13    2
    13     5    14    1
    14     4    20    1
    15    20    21    1
    16    20    23   am
    17    23    25   ar
    18    23    26   ar
    19    19    30    1
    20    30    31    2
    21    31    32    1
    22     5     6    1
    23     7     8    1
    24    14    15   ar
    25    15    16   ar
    26    16    17   ar
    27    17    19   ar
    28    19    18   ar
    29    18    14   ar
    30    21    22   ar
    31    22    27   ar
    32    27    28   ar
    33    28    29   ar
    34    29    24   ar
    35    24    21   ar
