@<TRIPOS>MOLECULE
No_2447-gen_results/8p0m/2024-11-27-11-27-31/
 13 14 0 0 0
SMALL
GASTEIGER

@<TRIPOS>ATOM
      1 C         -28.0162   -0.8135   28.8779 C.ar    1  UNL1        0.0067
      2 C         -28.4690   -0.7850   29.8287 C.ar    1  UNL1        0.0346
      3 C         -27.0871    0.2903   28.6377 C.ar    1  UNL1        0.0005
      4 C         -26.2516    0.4114   27.4223 C.ar    1  UNL1        0.0000
      5 C         -28.3913    0.1041   30.9805 C.ar    1  UNL1        0.0067
      6 C         -27.5332    1.1666   30.7866 C.ar    1  UNL1        0.0005
      7 C         -26.8281    1.2557   29.6454 C.ar    1  UNL1        0.0000
      8 C         -25.1384    0.6748   27.2308 C.ar    1  UNL1        0.0000
      9 C         -24.5122    1.0055   25.9533 C.ar    1  UNL1        0.0000
     10 C         -25.2546    0.5906   24.8010 C.ar    1  UNL1        0.0000
     11 C         -26.8693    0.1286   26.0855 C.ar    1  UNL1        0.0000
     12 C         -26.4251    0.2293   24.9552 C.ar    1  UNL1        0.0000
     13 BR        -29.7310   -2.2738   30.2613 Br      1  UNL1       -0.0490
@<TRIPOS>BOND
     1     3     4    1
     2     2    13    1
     3     4     8   ar
     4     8     9   ar
     5     9    10   ar
     6    10    12   ar
     7    12    11   ar
     8    11     4   ar
     9     1     2   ar
    10     2     5   ar
    11     5     6   ar
    12     6     7   ar
    13     7     3   ar
    14     3     1   ar
