@<TRIPOS>MOLECULE
outputs/IAG933/test6/raw/output_2448_IAG933_linker_design_.xyz
 44 47 0 0 0
SMALL
GASTEIGER

@<TRIPOS>ATOM
      1 C         -24.8550   -1.0120   30.1430 C.3     1  UNL1        0.0438
      2 C         -24.9730   -2.5050   29.7880 C.2     1  UNL1       -0.0208
      3 C         -23.9060   -3.1730   29.1460 C.2     1  UNL1       -0.0042
      4 C         -23.9890   -4.5490   28.8530 C.2     1  UNL1       -0.0003
      5 C         -25.1370   -5.2800   29.2050 C.2     1  UNL1       -0.0000
      6 C         -26.2320   -4.6110   29.7840 C.2     1  UNL1       -0.0003
      7 C         -26.1550   -3.2320   30.0650 C.2     1  UNL1       -0.0042
      8 C         -25.3870   -0.6790   31.5710 C.3     1  UNL1        0.0785
      9 C         -25.1890    0.7730   32.0280 C.3     1  UNL1        0.0338
     10 C         -25.3360    0.6840   33.5440 C.3     1  UNL1        0.0216
     11 C         -24.8290   -0.7150   33.9050 C.3     1  UNL1        0.0887
     12 N         -24.7580   -1.4810   32.6460 N.3     1  UNL1       -0.2191
     13 C         -25.6880    1.6140   26.4610 C.3     1  UNL1        0.1426
     14 C         -26.2500    2.9200   26.3950 C.2     1  UNL1        0.0709
     15 C         -25.6420    4.0930   27.1230 C.2     1  UNL1        0.2638
     16 N         -25.6140    5.2520   26.4490 N.am    1  UNL1       -0.2000
     17 C         -25.0260    6.4790   26.9630 C.3     1  UNL1        0.1388
     18 O         -25.1430    3.9660   28.2430 O.2     1  UNL1       -0.2686
     19 C         -27.4380    3.0910   25.6450 C.2     1  UNL1        0.1035
     20 N         -28.0750    2.0890   25.0030 N.2     1  UNL1       -0.2118
     21 C         -27.5430    0.8490   25.0790 C.2     1  UNL1        0.2356
     22 O         -28.1930   -0.2080   24.4770 O.2     1  UNL1       -0.4585
     23 C         -29.4600    0.0050   23.8660 C.3     1  UNL1        0.2423
     24 C         -30.0650   -1.3770   23.5730 C.3     1  UNL1        0.2292
     25 O         -30.7290   -1.8780   24.7210 O.3     1  UNL1       -0.2162
     26 C         -26.3540    0.5760   25.7770 C.3     1  UNL1        0.2559
     27 F         -25.8600   -0.6810   25.7950 F       1  UNL1       -0.2253
     28 O         -24.2704    5.4004   32.7023 O.2     1  UNL1       -0.2501
     29 C         -23.6870    1.5604   27.7024 C.3     1  UNL1        0.1289
     30 C         -22.0728    2.4390   24.6152 C.3     1  UNL1        0.1753
     31 C         -24.7543    1.9052   31.2337 C.3     1  UNL1        0.0748
     32 C         -24.9296    3.1360   31.6413 C.3     1  UNL1        0.0291
     33 C         -23.4074    1.3959   28.9764 C.3     1  UNL1        0.1197
     34 C         -22.6980    1.8684   26.8427 C.3     1  UNL1        0.1812
     35 O         -23.0314    2.3170   25.6318 O.3     1  UNL1       -0.3412
     36 N         -24.0792    1.7831   30.0895 N.3     1  UNL1       -0.2169
     37 O         -26.2860    5.9576   33.6577 O.3     1  UNL1       -0.4444
     38 C         -25.4910    4.9969   32.9221 C.2     1  UNL1        0.3171
     39 N         -24.8455    1.2332   27.3442 N.3     1  UNL1       -0.2080
     40 S         -21.2205    1.3563   27.4990 S.3     1  UNL1       -0.0907
     41 C         -26.0287    3.5937   32.5644 C.3     1  UNL1        0.1110
     42 C         -22.2411    0.7685   28.8508 C.3     1  UNL1        0.1584
     43 C         -27.2581    6.6578   32.8291 C.3     1  UNL1        0.2556
     44 N         -21.8503   -0.4066   29.4227 N.3     1  UNL1       -0.1194
@<TRIPOS>BOND
     1     2     7    1
     2     2     1    1
     3     3     2    2
     4     4     3    1
     5     4     5    2
     6     5     6    1
     7     6     7    2
     8     8     1    1
     9     8     9    1
    10     8    12    1
    11     9    31    1
    12     9    10    1
    13    10    11    1
    14    12    11    1
    15    13    39    1
    16    14    13    1
    17    14    15    1
    18    15    18    2
    19    16    17    1
    20    16    15    1
    21    19    14    2
    22    20    21    2
    23    20    19    1
    24    21    26    1
    25    22    21    1
    26    23    22    1
    27    24    23    1
    28    24    25    1
    29    26    27    1
    30    26    13    1
    31    28    38    2
    32    29    39    1
    33    29    33    1
    34    30    35    1
    35    31    32    1
    36    32    41    1
    37    33    36    1
    38    34    35    1
    39    34    40    1
    40    34    29    1
    41    36    31    1
    42    38    37    1
    43    40    42    1
    44    41    38    1
    45    42    33    1
    46    42    44    1
    47    43    37    1
