@<TRIPOS>MOLECULE
outputs/IAG933/test6/raw/output_2449_IAG933_linker_design_.xyz
 43 47 0 0 0
SMALL
GASTEIGER

@<TRIPOS>ATOM
      1 C         -24.8550   -1.0120   30.1430 C.3     1  UNL1        0.1196
      2 C         -24.9730   -2.5050   29.7880 C.2     1  UNL1       -0.0025
      3 C         -23.9060   -3.1730   29.1460 C.2     1  UNL1       -0.0026
      4 C         -23.9890   -4.5490   28.8530 C.2     1  UNL1       -0.0003
      5 C         -25.1370   -5.2800   29.2050 C.2     1  UNL1       -0.0000
      6 C         -26.2320   -4.6110   29.7840 C.2     1  UNL1       -0.0003
      7 C         -26.1550   -3.2320   30.0650 C.2     1  UNL1       -0.0026
      8 C         -25.3870   -0.6790   31.5710 C.3     1  UNL1        0.0955
      9 C         -25.1890    0.7730   32.0280 C.3     1  UNL1        0.0209
     10 C         -25.3360    0.6840   33.5440 C.3     1  UNL1        0.0203
     11 C         -24.8290   -0.7150   33.9050 C.3     1  UNL1        0.0888
     12 N         -24.7580   -1.4810   32.6460 N.3     1  UNL1       -0.2174
     13 C         -25.6880    1.6140   26.4610 C.2     1  UNL1        0.0393
     14 C         -26.2500    2.9200   26.3950 C.2     1  UNL1        0.0766
     15 C         -25.6420    4.0930   27.1230 C.2     1  UNL1        0.2664
     16 N         -25.6140    5.2520   26.4490 N.am    1  UNL1       -0.1997
     17 C         -25.0260    6.4790   26.9630 C.3     1  UNL1        0.1388
     18 O         -25.1430    3.9660   28.2430 O.2     1  UNL1       -0.2683
     19 C         -27.4380    3.0910   25.6450 C.2     1  UNL1        0.1067
     20 N         -28.0750    2.0890   25.0030 N.2     1  UNL1       -0.2081
     21 C         -27.5430    0.8490   25.0790 C.2     1  UNL1        0.2533
     22 O         -28.1930   -0.2080   24.4770 O.2     1  UNL1       -0.4558
     23 C         -29.4600    0.0050   23.8660 C.3     1  UNL1        0.2426
     24 C         -30.0650   -1.3770   23.5730 C.3     1  UNL1        0.2292
     25 O         -30.7290   -1.8780   24.7210 O.3     1  UNL1       -0.2162
     26 C         -26.3540    0.5760   25.7770 C.2     1  UNL1        0.1931
     27 F         -25.8600   -0.6810   25.7950 F       1  UNL1       -0.1992
     28 C         -30.9789    2.3798   28.0278 C.2     1  UNL1        0.0013
     29 C         -22.8963    0.6196   28.8335 C.2     1  UNL1        0.0150
     30 C         -29.7117   -0.1337   27.8781 C.2     1  UNL1        0.0166
     31 C         -21.9634    1.9951   27.1034 C.2     1  UNL1        0.0001
     32 C         -24.3509    0.6949   28.4145 C.2     1  UNL1        0.0557
     33 C         -21.7333    1.1344   28.2142 C.2     1  UNL1        0.0013
     34 O         -27.5287   -1.3068   29.2353 O.2     1  UNL1       -0.2500
     35 C         -29.7548    2.1451   28.6926 C.2     1  UNL1        0.0166
     36 C         -26.9048   -0.1833   29.0801 C.2     1  UNL1        0.3315
     37 C         -24.4081    1.4569   27.1476 C.2     1  UNL1        0.0163
     38 N         -25.4224   -0.1548   29.1146 N.am    1  UNL1       -0.2380
     39 N         -27.7124    0.9384   29.0249 N.am    1  UNL1       -0.1619
     40 C         -31.5487    1.3223   27.2518 C.2     1  UNL1        0.0001
     41 C         -30.9438    0.0568   27.1973 C.2     1  UNL1        0.0013
     42 C         -23.2935    2.1568   26.5897 C.2     1  UNL1        0.0013
     43 C         -29.0666    0.9341   28.5479 C.2     1  UNL1        0.0749
@<TRIPOS>BOND
     1     1    38    1
     2     2     7    1
     3     2     1    1
     4     3     2    2
     5     4     3    1
     6     4     5    2
     7     5     6    1
     8     6     7    2
     9     8     1    1
    10     8     9    1
    11     8    12    1
    12     9    10    1
    13    10    11    1
    14    12    11    1
    15    13    37    1
    16    14    13    1
    17    14    15    1
    18    15    18    2
    19    16    17    1
    20    16    15    1
    21    19    14    2
    22    20    21    2
    23    20    19    1
    24    21    26    1
    25    22    21    1
    26    23    22    1
    27    24    23    1
    28    24    25    1
    29    26    27    1
    30    26    13    2
    31    28    35    1
    32    30    43    1
    33    31    33    1
    34    32    29    1
    35    32    38    1
    36    33    29    2
    37    36    38   am
    38    36    34    2
    39    37    32    2
    40    39    36    1
    41    40    28    2
    42    41    40    1
    43    41    30    2
    44    42    31    2
    45    42    37    1
    46    43    35    2
    47    43    39    1
