@<TRIPOS>MOLECULE
No_245-gen_results/8p0m/2024-11-27-11-27-31/
 15 16 0 0 0
SMALL
GASTEIGER

@<TRIPOS>ATOM
      1 C         -28.0162   -0.8135   28.8779 C.3     1  UNL1        0.0217
      2 C         -28.4690   -0.7850   29.8287 C.3     1  UNL1        0.0043
      3 C         -26.5042   -0.7777   28.8766 C.2     1  UNL1       -0.0485
      4 C         -25.7622   -0.0022   27.9705 C.2     1  UNL1       -0.0352
      5 C         -27.9832   -1.4903   31.0818 C.3     1  UNL1        0.0007
      6 C         -26.6062   -1.5983   31.1298 C.3     1  UNL1        0.0043
      7 C         -25.8085   -1.2512   30.0553 C.3     1  UNL1        0.0217
      8 C         -25.2496    1.2841   28.2369 C.3     1  UNL1        0.0180
      9 C         -24.8265    1.6106   29.3285 C.3     1  UNL1        0.0043
     10 C         -25.9451    2.2751   27.5916 C.3     1  UNL1        0.0037
     11 C         -23.8072    1.2136   27.3515 C.3     1  UNL1        0.0040
     12 C         -23.6118    1.9965   26.3489 C.3     1  UNL1        0.0003
     13 C         -27.2988    2.4361   28.1229 C.3     1  UNL1        0.0003
     14 C         -25.4282    3.2819   26.7281 C.3     1  UNL1        0.0003
     15 C         -24.2946    3.1115   25.9909 C.3     1  UNL1        0.0000
@<TRIPOS>BOND
     1     1     2    1
     2     1     3    1
     3     3     4    2
     4     2     5    1
     5     5     6    1
     6     3     7    1
     7     6     7    1
     8     4     8    1
     9     8     9    1
    10     8    10    1
    11     8    11    1
    12    11    12    1
    13    10    13    1
    14    10    14    1
    15    14    15    1
    16    15    12    1
