@<TRIPOS>MOLECULE
No_2453-gen_results/8p0m/2024-11-27-11-27-31/
 12 12 0 0 0
SMALL
GASTEIGER

@<TRIPOS>ATOM
      1 C         -28.0162   -0.8135   28.8779 C.ar    1  UNL1        0.0046
      2 C         -28.4690   -0.7850   29.8287 C.ar    1  UNL1        0.0554
      3 C         -26.5455   -0.8762   28.8500 C.ar    1  UNL1        0.0001
      4 C         -25.8974   -0.8267   29.8894 C.ar    1  UNL1        0.0000
      5 C         -27.9129   -0.8385   31.1942 C.ar    1  UNL1        0.0046
      6 C         -26.5519   -0.8324   31.1775 C.ar    1  UNL1        0.0001
      7 C         -30.0638   -0.8434   30.1137 C.2     1  UNL1        0.2690
      8 N         -30.6706   -1.7645   30.3576 N.am    1  UNL1       -0.1745
      9 C         -31.9602   -1.9357   30.2162 C.2     1  UNL1        0.0844
     10 O         -30.5404    0.3119   30.1888 O.2     1  UNL1       -0.2680
     11 C         -32.7241   -1.7884   29.4578 C.2     1  UNL1       -0.0079
     12 C         -34.1367   -2.0462   29.4230 C.3     1  UNL1        0.0321
@<TRIPOS>BOND
     1     2     7    1
     2     7     8   am
     3     8     9    1
     4     7    10    2
     5     9    11    2
     6    11    12    1
     7     1     2   ar
     8     2     5   ar
     9     5     6   ar
    10     6     4   ar
    11     4     3   ar
    12     3     1   ar
