@<TRIPOS>MOLECULE
No_2454-gen_results/8p0m/2024-11-27-11-27-31/
 10 10 0 0 0
SMALL
GASTEIGER

@<TRIPOS>ATOM
      1 O         -28.1229   -1.3353   28.4874 O.2     1  UNL1       -0.2733
      2 C         -27.4806   -0.4044   28.7094 C.2     1  UNL1        0.2416
      3 N         -26.4599   -0.1104   28.0051 N.am    1  UNL1       -0.2027
      4 C         -25.8102    0.6599   28.0792 C.3     1  UNL1        0.1169
      5 C         -24.5746    0.9445   27.2765 C.2     1  UNL1       -0.0095
      6 C         -27.5365    0.2439   30.0828 C.3     1  UNL1        0.0869
      7 C         -23.5490    1.8994   27.6353 C.2     1  UNL1       -0.0287
      8 C         -22.3871    1.9582   26.9169 C.3     1  UNL1        0.0304
      9 C         -26.7116    1.3269   30.2931 C.3     1  UNL1        0.0117
     10 C         -25.6360    1.5407   29.3309 C.3     1  UNL1        0.0267
@<TRIPOS>BOND
     1     1     2    2
     2     2     3   am
     3     3     4    1
     4     4     5    1
     5     2     6    1
     6     5     7    2
     7     7     8    1
     8     4    10    1
     9     9    10    1
    10     9     6    1
