@<TRIPOS>MOLECULE
No_2455-gen_results/8p0m/2024-11-27-11-27-31/
 13 14 0 0 0
SMALL
GASTEIGER

@<TRIPOS>ATOM
      1 O         -28.1229   -1.3353   28.4874 O.2     1  UNL1       -0.2749
      2 C         -27.4806   -0.4044   28.7094 C.2     1  UNL1        0.2257
      3 C         -26.3804   -0.0867   27.9394 C.3     1  UNL1        0.0859
      4 N         -27.4232    0.1749   30.0549 N.am    1  UNL1       -0.2773
      5 C         -25.4065    0.7421   28.2860 C.3     1  UNL1        0.0212
      6 C         -24.3010    1.1589   27.4854 C.3     1  UNL1        0.0245
      7 C         -23.2507    1.9038   28.0519 C.3     1  UNL1        0.1152
      8 N         -23.3091    1.9789   29.4181 N.am    1  UNL1       -0.2054
      9 C         -24.2261    1.5168   30.2792 C.2     1  UNL1        0.2426
     10 C         -25.2741    0.8219   29.6817 C.3     1  UNL1        0.0985
     11 C         -26.3766    0.5612   30.5550 C.3     1  UNL1        0.1025
     12 O         -24.0296    1.8369   31.4987 O.2     1  UNL1       -0.2733
     13 C         -28.4654   -0.5552   30.9430 C.3     1  UNL1        0.1149
@<TRIPOS>BOND
     1     1     2    2
     2     2     3    1
     3     2     4   am
     4     3     5    1
     5     6     7    1
     6     8     9   am
     7     5    10    1
     8     9    10    1
     9     4    11    1
    10    10    11    1
    11     9    12    2
    12     4    13    1
    13     8     7    1
    14     6     5    1
