@<TRIPOS>MOLECULE
outputs/IAG933/test6/raw/output_2456_IAG933_linker_design_.xyz
 45 49 0 0 0
SMALL
GASTEIGER

@<TRIPOS>ATOM
      1 C         -24.8550   -1.0120   30.1430 C.3     1  UNL1        0.0437
      2 C         -24.9730   -2.5050   29.7880 C.2     1  UNL1       -0.0208
      3 C         -23.9060   -3.1730   29.1460 C.2     1  UNL1       -0.0042
      4 C         -23.9890   -4.5490   28.8530 C.2     1  UNL1       -0.0003
      5 C         -25.1370   -5.2800   29.2050 C.2     1  UNL1       -0.0000
      6 C         -26.2320   -4.6110   29.7840 C.2     1  UNL1       -0.0003
      7 C         -26.1550   -3.2320   30.0650 C.2     1  UNL1       -0.0042
      8 C         -25.3870   -0.6790   31.5710 C.3     1  UNL1        0.0771
      9 C         -25.1890    0.7730   32.0280 C.3     1  UNL1        0.0182
     10 C         -25.3360    0.6840   33.5440 C.3     1  UNL1        0.0202
     11 C         -24.8290   -0.7150   33.9050 C.3     1  UNL1        0.0887
     12 N         -24.7580   -1.4810   32.6460 N.3     1  UNL1       -0.2191
     13 C         -25.6880    1.6140   26.4610 C.2     1  UNL1        0.0156
     14 C         -26.2500    2.9200   26.3950 C.2     1  UNL1        0.0726
     15 C         -25.6420    4.0930   27.1230 C.2     1  UNL1        0.2661
     16 N         -25.6140    5.2520   26.4490 N.am    1  UNL1       -0.1997
     17 C         -25.0260    6.4790   26.9630 C.3     1  UNL1        0.1388
     18 O         -25.1430    3.9660   28.2430 O.2     1  UNL1       -0.2683
     19 C         -27.4380    3.0910   25.6450 C.2     1  UNL1        0.1064
     20 N         -28.0750    2.0890   25.0030 N.2     1  UNL1       -0.2081
     21 C         -27.5430    0.8490   25.0790 C.2     1  UNL1        0.2530
     22 O         -28.1930   -0.2080   24.4770 O.2     1  UNL1       -0.4558
     23 C         -29.4600    0.0050   23.8660 C.3     1  UNL1        0.2426
     24 C         -30.0650   -1.3770   23.5730 C.3     1  UNL1        0.2292
     25 O         -30.7290   -1.8780   24.7210 O.3     1  UNL1       -0.2162
     26 C         -26.3540    0.5760   25.7770 C.2     1  UNL1        0.1891
     27 F         -25.8600   -0.6810   25.7950 F       1  UNL1       -0.1996
     28 O         -24.1149    5.8022   33.1893 O.2     1  UNL1       -0.2855
     29 C         -25.7256    4.0964   32.5086 C.2     1  UNL1        0.0901
     30 C         -27.9320    4.0522   33.2778 C.2     1  UNL1        0.2690
     31 C         -24.3641    1.4732   26.9422 C.3     1  UNL1        0.0249
     32 C         -24.0910    0.5811   27.8816 C.3     1  UNL1        0.0044
     33 C         -21.7994    1.7251   27.2070 C.3     1  UNL1        0.0003
     34 C         -21.9894    1.6497   28.6534 C.3     1  UNL1        0.0000
     35 C         -25.1763    1.9996   31.0320 C.3     1  UNL1        0.0072
     36 C         -26.3827    5.6130   34.2336 C.2     1  UNL1        0.0478
     37 C         -23.2276    2.3226   26.5557 C.3     1  UNL1        0.0041
     38 C         -22.8180    2.2914   25.1105 C.3     1  UNL1        0.0003
     39 O         -29.1089    3.6334   32.9153 O.2     1  UNL1       -0.2680
     40 N         -26.9145    3.4672   32.6975 N.am    1  UNL1       -0.1766
     41 C         -23.2662    1.2135   28.9568 C.3     1  UNL1        0.0003
     42 C         -27.6682    5.0443   34.2042 C.2     1  UNL1        0.0631
     43 C         -25.4008    5.2181   33.2895 C.2     1  UNL1        0.2070
     44 C         -24.7936    3.4067   31.5343 C.3     1  UNL1        0.0466
     45 C         -24.1295    1.7317   30.1042 C.3     1  UNL1        0.0004
@<TRIPOS>BOND
     1     2     7    1
     2     2     1    1
     3     3     2    2
     4     4     3    1
     5     4     5    2
     6     5     6    1
     7     6     7    2
     8     8     1    1
     9     8     9    1
    10     8    12    1
    11     9    35    1
    12     9    10    1
    13    10    11    1
    14    12    11    1
    15    14    13    1
    16    14    15    1
    17    15    18    2
    18    16    17    1
    19    16    15    1
    20    19    14    2
    21    20    21    2
    22    20    19    1
    23    21    26    1
    24    22    21    1
    25    23    22    1
    26    24    23    1
    27    24    25    1
    28    26    27    1
    29    26    13    2
    30    28    43    1
    31    29    40    1
    32    29    43    2
    33    30    42    1
    34    31    13    1
    35    31    32    1
    36    32    41    1
    37    33    34    1
    38    34    41    1
    39    35    45    1
    40    35    44    1
    41    37    38    1
    42    37    31    1
    43    37    33    1
    44    39    30    2
    45    40    30    1
    46    41    45    1
    47    42    36    2
    48    43    36    1
    49    44    29    1
