@<TRIPOS>MOLECULE
outputs/IAG933/test6/raw/output_2457_IAG933_linker_design_.xyz
 48 51 0 0 0
SMALL
GASTEIGER

@<TRIPOS>ATOM
      1 C         -24.8550   -1.0120   30.1430 C.3     1  UNL1        0.0697
      2 C         -24.9730   -2.5050   29.7880 C.2     1  UNL1       -0.0184
      3 C         -23.9060   -3.1730   29.1460 C.2     1  UNL1       -0.0041
      4 C         -23.9890   -4.5490   28.8530 C.2     1  UNL1       -0.0003
      5 C         -25.1370   -5.2800   29.2050 C.2     1  UNL1       -0.0000
      6 C         -26.2320   -4.6110   29.7840 C.2     1  UNL1       -0.0003
      7 C         -26.1550   -3.2320   30.0650 C.2     1  UNL1       -0.0041
      8 C         -25.3870   -0.6790   31.5710 C.3     1  UNL1        0.0795
      9 C         -25.1890    0.7730   32.0280 C.3     1  UNL1        0.0193
     10 C         -25.3360    0.6840   33.5440 C.3     1  UNL1        0.0202
     11 C         -24.8290   -0.7150   33.9050 C.3     1  UNL1        0.0887
     12 N         -24.7580   -1.4810   32.6460 N.3     1  UNL1       -0.2190
     13 C         -25.6880    1.6140   26.4610 C.3     1  UNL1        0.0921
     14 C         -26.2500    2.9200   26.3950 C.2     1  UNL1        0.0589
     15 C         -25.6420    4.0930   27.1230 C.2     1  UNL1        0.2628
     16 N         -25.6140    5.2520   26.4490 N.am    1  UNL1       -0.2000
     17 C         -25.0260    6.4790   26.9630 C.3     1  UNL1        0.1388
     18 O         -25.1430    3.9660   28.2430 O.2     1  UNL1       -0.2686
     19 C         -27.4380    3.0910   25.6450 C.2     1  UNL1        0.1025
     20 N         -28.0750    2.0890   25.0030 N.2     1  UNL1       -0.2118
     21 C         -27.5430    0.8490   25.0790 C.2     1  UNL1        0.2344
     22 O         -28.1930   -0.2080   24.4770 O.2     1  UNL1       -0.4585
     23 C         -29.4600    0.0050   23.8660 C.3     1  UNL1        0.2423
     24 C         -30.0650   -1.3770   23.5730 C.3     1  UNL1        0.2292
     25 O         -30.7290   -1.8780   24.7210 O.3     1  UNL1       -0.2162
     26 C         -26.3540    0.5760   25.7770 C.3     1  UNL1        0.2440
     27 F         -25.8600   -0.6810   25.7950 F       1  UNL1       -0.2265
     28 C         -27.1432    0.6042   29.3150 C.3     1  UNL1        0.1875
     29 N         -30.7112   -1.9533   30.1124 N.am    1  UNL1       -0.1858
     30 C         -21.5031    1.4580   27.8125 C.2     1  UNL1       -0.0003
     31 C         -27.7171   -0.5720   28.7035 C.3     1  UNL1        0.1117
     32 O         -30.0590   -0.3668   27.7621 O.2     1  UNL1       -0.2864
     33 O         -25.8968    0.8993   29.1025 O.3     1  UNL1       -0.3456
     34 C         -21.8552    2.0104   26.5147 C.2     1  UNL1       -0.0003
     35 C         -27.7696    1.6014   29.9687 C.2     1  UNL1        0.2371
     36 C         -23.8653    0.7128   28.0977 C.2     1  UNL1        0.0014
     37 C         -22.5235    0.8171   28.6247 C.2     1  UNL1       -0.0022
     38 C         -23.2231    1.9720   26.0722 C.2     1  UNL1       -0.0041
     39 C         -24.2481    1.3383   26.8933 C.2     1  UNL1       -0.0168
     40 O         -28.8686   -1.1069   31.0089 O.2     1  UNL1       -0.2654
     41 N         -32.0698   -1.3792   29.8489 N.3     1  UNL1       -0.0136
     42 C         -31.7571   -2.6587   32.1446 C.3     1  UNL1        0.0232
     43 C         -29.6497   -1.1983   30.0956 C.2     1  UNL1        0.2993
     44 C         -30.9142   -3.1134   30.9469 C.3     1  UNL1        0.0953
     45 C         -29.3166   -0.4506   28.7754 C.2     1  UNL1        0.2303
     46 C         -29.7310   -4.0476   31.3176 C.3     1  UNL1        0.0232
     47 C         -24.9725    0.0524   28.9676 C.3     1  UNL1        0.1429
     48 O         -28.2181    1.6236   31.1624 O.2     1  UNL1       -0.2856
@<TRIPOS>BOND
     1     1    47    1
     2     2     7    1
     3     2     1    1
     4     3     2    2
     5     4     3    1
     6     4     5    2
     7     5     6    1
     8     6     7    2
     9     8     1    1
    10     8     9    1
    11     8    12    1
    12     9    10    1
    13    10    11    1
    14    12    11    1
    15    13    39    1
    16    14    13    1
    17    14    15    1
    18    15    18    2
    19    16    17    1
    20    16    15    1
    21    19    14    2
    22    20    21    2
    23    20    19    1
    24    21    26    1
    25    22    21    1
    26    23    22    1
    27    24    23    1
    28    24    25    1
    29    26    27    1
    30    26    13    1
    31    28    31    1
    32    28    35    1
    33    29    44    1
    34    30    37    1
    35    31    45    1
    36    32    45    2
    37    33    28    1
    38    34    30    2
    39    35    48    2
    40    36    37    2
    41    36    47    1
    42    38    34    1
    43    38    39    2
    44    39    36    1
    45    41    29    1
    46    43    29   am
    47    43    40    2
    48    44    46    1
    49    44    42    1
    50    45    43    1
    51    47    33    1
