@<TRIPOS>MOLECULE
outputs/IAG933/test6/raw/output_246_IAG933_linker_design_.xyz
 42 46 0 0 0
SMALL
GASTEIGER

@<TRIPOS>ATOM
      1 C         -24.8550   -1.0120   30.1430 C.3     1  UNL1        0.0965
      2 C         -24.9730   -2.5050   29.7880 C.2     1  UNL1       -0.0064
      3 C         -23.9060   -3.1730   29.1460 C.2     1  UNL1       -0.0029
      4 C         -23.9890   -4.5490   28.8530 C.2     1  UNL1       -0.0003
      5 C         -25.1370   -5.2800   29.2050 C.2     1  UNL1       -0.0000
      6 C         -26.2320   -4.6110   29.7840 C.2     1  UNL1       -0.0003
      7 C         -26.1550   -3.2320   30.0650 C.2     1  UNL1       -0.0029
      8 C         -25.3870   -0.6790   31.5710 C.3     1  UNL1        0.0916
      9 C         -25.1890    0.7730   32.0280 C.3     1  UNL1        0.0206
     10 C         -25.3360    0.6840   33.5440 C.3     1  UNL1        0.0203
     11 C         -24.8290   -0.7150   33.9050 C.3     1  UNL1        0.0888
     12 N         -24.7580   -1.4810   32.6460 N.3     1  UNL1       -0.2178
     13 C         -25.6880    1.6140   26.4610 C.3     1  UNL1        0.0921
     14 C         -26.2500    2.9200   26.3950 C.2     1  UNL1        0.0589
     15 C         -25.6420    4.0930   27.1230 C.2     1  UNL1        0.2628
     16 N         -25.6140    5.2520   26.4490 N.am    1  UNL1       -0.2000
     17 C         -25.0260    6.4790   26.9630 C.3     1  UNL1        0.1388
     18 O         -25.1430    3.9660   28.2430 O.2     1  UNL1       -0.2686
     19 C         -27.4380    3.0910   25.6450 C.2     1  UNL1        0.1025
     20 N         -28.0750    2.0890   25.0030 N.2     1  UNL1       -0.2118
     21 C         -27.5430    0.8490   25.0790 C.2     1  UNL1        0.2344
     22 O         -28.1930   -0.2080   24.4770 O.2     1  UNL1       -0.4585
     23 C         -29.4600    0.0050   23.8660 C.3     1  UNL1        0.2423
     24 C         -30.0650   -1.3770   23.5730 C.3     1  UNL1        0.2292
     25 O         -30.7290   -1.8780   24.7210 O.3     1  UNL1       -0.2162
     26 C         -26.3540    0.5760   25.7770 C.3     1  UNL1        0.2440
     27 F         -25.8600   -0.6810   25.7950 F       1  UNL1       -0.2265
     28 C         -22.9130    0.4217   28.6397 C.2     1  UNL1       -0.0246
     29 C         -25.4868    0.6574   28.7701 C.3     1  UNL1        0.0987
     30 C         -21.6360    0.9992   28.2839 C.3     1  UNL1        0.0517
     31 C         -21.9940    1.9850   25.8660 C.2     1  UNL1       -0.0046
     32 C         -27.2975    0.7815   29.9276 C.3     1  UNL1        0.0631
     33 C         -24.3676    1.3698   26.7820 C.2     1  UNL1       -0.0180
     34 N         -25.9272   -0.0454   29.6001 N.3     1  UNL1       -0.2666
     35 O         -29.5794    1.8171   29.7156 O.3     1  UNL1       -0.3537
     36 C         -24.1266    0.7965   28.0483 C.2     1  UNL1       -0.0136
     37 C         -28.6403    2.8065   29.2564 C.3     1  UNL1        0.1435
     38 C         -28.1903   -0.0134   28.8577 C.3     1  UNL1        0.0481
     39 C         -21.2638    1.6797   27.0688 C.2     1  UNL1       -0.0214
     40 C         -29.5806    0.6781   28.9043 C.3     1  UNL1        0.1435
     41 C         -23.4727    1.8177   25.8124 C.2     1  UNL1       -0.0045
     42 C         -27.4107    2.4390   30.1390 C.3     1  UNL1        0.0481
@<TRIPOS>BOND
     1     1    34    1
     2     2     7    1
     3     2     1    1
     4     3     2    2
     5     4     3    1
     6     4     5    2
     7     5     6    1
     8     6     7    2
     9     8     1    1
    10     8     9    1
    11     8    12    1
    12     9    10    1
    13    10    11    1
    14    12    11    1
    15    13    33    1
    16    14    13    1
    17    14    15    1
    18    15    18    2
    19    16    17    1
    20    16    15    1
    21    19    14    2
    22    20    21    2
    23    20    19    1
    24    21    26    1
    25    22    21    1
    26    23    22    1
    27    24    23    1
    28    24    25    1
    29    26    27    1
    30    26    13    1
    31    29    34    1
    32    30    28    1
    33    31    39    2
    34    32    42    1
    35    33    36    1
    36    34    32    1
    37    36    28    2
    38    36    29    1
    39    37    35    1
    40    37    42    1
    41    38    40    1
    42    38    32    1
    43    39    30    1
    44    40    35    1
    45    41    31    1
    46    41    33    2
