@<TRIPOS>MOLECULE
outputs/IAG933/test6/raw/output_2461_IAG933_linker_design_.xyz
 41 45 0 0 0
SMALL
GASTEIGER

@<TRIPOS>ATOM
      1 C         -24.8550   -1.0120   30.1430 C.3     1  UNL1        0.0580
      2 C         -24.9730   -2.5050   29.7880 C.2     1  UNL1       -0.0197
      3 C         -23.9060   -3.1730   29.1460 C.2     1  UNL1       -0.0042
      4 C         -23.9890   -4.5490   28.8530 C.2     1  UNL1       -0.0003
      5 C         -25.1370   -5.2800   29.2050 C.2     1  UNL1       -0.0000
      6 C         -26.2320   -4.6110   29.7840 C.2     1  UNL1       -0.0003
      7 C         -26.1550   -3.2320   30.0650 C.2     1  UNL1       -0.0042
      8 C         -25.3870   -0.6790   31.5710 C.3     1  UNL1        0.0799
      9 C         -25.1890    0.7730   32.0280 C.3     1  UNL1        0.0380
     10 C         -25.3360    0.6840   33.5440 C.3     1  UNL1        0.0219
     11 C         -24.8290   -0.7150   33.9050 C.3     1  UNL1        0.0888
     12 N         -24.7580   -1.4810   32.6460 N.3     1  UNL1       -0.2190
     13 C         -25.6880    1.6140   26.4610 C.2     1  UNL1        0.0195
     14 C         -26.2500    2.9200   26.3950 C.2     1  UNL1        0.0727
     15 C         -25.6420    4.0930   27.1230 C.2     1  UNL1        0.2661
     16 N         -25.6140    5.2520   26.4490 N.am    1  UNL1       -0.1997
     17 C         -25.0260    6.4790   26.9630 C.3     1  UNL1        0.1388
     18 O         -25.1430    3.9660   28.2430 O.2     1  UNL1       -0.2683
     19 C         -27.4380    3.0910   25.6450 C.2     1  UNL1        0.1064
     20 N         -28.0750    2.0890   25.0030 N.2     1  UNL1       -0.2081
     21 C         -27.5430    0.8490   25.0790 C.2     1  UNL1        0.2530
     22 O         -28.1930   -0.2080   24.4770 O.2     1  UNL1       -0.4558
     23 C         -29.4600    0.0050   23.8660 C.3     1  UNL1        0.2426
     24 C         -30.0650   -1.3770   23.5730 C.3     1  UNL1        0.2292
     25 O         -30.7290   -1.8780   24.7210 O.3     1  UNL1       -0.2162
     26 C         -26.3540    0.5760   25.7770 C.2     1  UNL1        0.1892
     27 F         -25.8600   -0.6810   25.7950 F       1  UNL1       -0.1996
     28 C         -26.2153    3.3827   31.4948 C.2     1  UNL1       -0.0064
     29 O         -22.9835   -0.1397   28.5693 O.3     1  UNL1       -0.4429
     30 C         -25.2291    2.1849   31.3227 C.3     1  UNL1        0.0963
     31 C         -28.4830    4.6828   32.4069 C.2     1  UNL1       -0.0000
     32 O         -21.6312    1.5579   27.6261 O.2     1  UNL1       -0.2375
     33 C         -25.2432    0.2675   29.3346 C.3     1  UNL1        0.1187
     34 C         -24.3757    1.3391   27.2103 C.3     1  UNL1        0.0741
     35 C         -21.9579    0.7649   28.2861 C.2     1  UNL1        0.4181
     36 C         -28.4558    4.2965   31.0504 C.2     1  UNL1       -0.0003
     37 C         -24.3168    0.1214   28.0577 C.3     1  UNL1        0.1899
     38 C         -27.3403    4.6218   33.2072 C.2     1  UNL1       -0.0003
     39 C         -27.2756    3.6994   30.5823 C.2     1  UNL1       -0.0029
     40 C         -26.1303    4.1004   32.7070 C.2     1  UNL1       -0.0029
     41 N         -25.3463    1.7326   29.9015 N.3     1  UNL1       -0.2124
@<TRIPOS>BOND
     1     1     2    1
     2     1     8    1
     3     2     7    1
     4     3     2    2
     5     4     3    1
     6     4     5    2
     7     5     6    1
     8     6     7    2
     9     8     9    1
    10     8    12    1
    11     9    10    1
    12    10    11    1
    13    12    11    1
    14    13    34    1
    15    14    13    1
    16    14    15    1
    17    15    18    2
    18    16    17    1
    19    16    15    1
    20    19    14    2
    21    20    21    2
    22    20    19    1
    23    21    26    1
    24    22    21    1
    25    23    22    1
    26    24    23    1
    27    24    25    1
    28    26    27    1
    29    26    13    2
    30    28    40    1
    31    30    28    1
    32    30     9    1
    33    31    38    1
    34    32    35    2
    35    33    37    1
    36    33    41    1
    37    33     1    1
    38    35    29    1
    39    36    31    2
    40    37    34    1
    41    37    29    1
    42    39    36    1
    43    39    28    2
    44    40    38    2
    45    41    30    1
