@<TRIPOS>MOLECULE
outputs/IAG933/test6/raw/output_2462_IAG933_linker_design_.xyz
 45 50 0 0 0
SMALL
GASTEIGER

@<TRIPOS>ATOM
      1 C         -24.8550   -1.0120   30.1430 C.3     1  UNL1        0.0697
      2 C         -24.9730   -2.5050   29.7880 C.2     1  UNL1       -0.0184
      3 C         -23.9060   -3.1730   29.1460 C.2     1  UNL1       -0.0041
      4 C         -23.9890   -4.5490   28.8530 C.2     1  UNL1       -0.0003
      5 C         -25.1370   -5.2800   29.2050 C.2     1  UNL1       -0.0000
      6 C         -26.2320   -4.6110   29.7840 C.2     1  UNL1       -0.0003
      7 C         -26.1550   -3.2320   30.0650 C.2     1  UNL1       -0.0041
      8 C         -25.3870   -0.6790   31.5710 C.3     1  UNL1        0.0795
      9 C         -25.1890    0.7730   32.0280 C.3     1  UNL1        0.0193
     10 C         -25.3360    0.6840   33.5440 C.3     1  UNL1        0.0202
     11 C         -24.8290   -0.7150   33.9050 C.3     1  UNL1        0.0887
     12 N         -24.7580   -1.4810   32.6460 N.3     1  UNL1       -0.2190
     13 C         -25.6880    1.6140   26.4610 C.3     1  UNL1        0.1111
     14 C         -26.2500    2.9200   26.3950 C.2     1  UNL1        0.0603
     15 C         -25.6420    4.0930   27.1230 C.2     1  UNL1        0.2628
     16 N         -25.6140    5.2520   26.4490 N.am    1  UNL1       -0.2000
     17 C         -25.0260    6.4790   26.9630 C.3     1  UNL1        0.1388
     18 O         -25.1430    3.9660   28.2430 O.2     1  UNL1       -0.2686
     19 C         -27.4380    3.0910   25.6450 C.2     1  UNL1        0.1025
     20 N         -28.0750    2.0890   25.0030 N.2     1  UNL1       -0.2118
     21 C         -27.5430    0.8490   25.0790 C.2     1  UNL1        0.2345
     22 O         -28.1930   -0.2080   24.4770 O.2     1  UNL1       -0.4585
     23 C         -29.4600    0.0050   23.8660 C.3     1  UNL1        0.2423
     24 C         -30.0650   -1.3770   23.5730 C.3     1  UNL1        0.2292
     25 O         -30.7290   -1.8780   24.7210 O.3     1  UNL1       -0.2162
     26 C         -26.3540    0.5760   25.7770 C.3     1  UNL1        0.2454
     27 F         -25.8600   -0.6810   25.7950 F       1  UNL1       -0.2265
     28 C         -25.2551   -0.0553   29.0629 C.3     1  UNL1        0.1397
     29 C         -27.7969   -0.1624   28.9636 C.3     1  UNL1        0.1165
     30 C         -23.6084    1.2220   27.4972 C.3     1  UNL1        0.1796
     31 C         -31.0040    1.8859   28.9612 C.2     1  UNL1        0.0111
     32 C         -28.9100    0.8088   29.4220 C.2     1  UNL1       -0.0047
     33 C         -30.9117    2.5567   30.1760 C.2     1  UNL1        0.0577
     34 C         -29.8548    2.3824   31.0442 C.2     1  UNL1        0.0111
     35 CL        -32.3501    3.5813   30.7101 Cl      1  UNL1       -0.0822
     36 N         -23.4746    2.1700   25.4370 N.2     1  UNL1       -0.0820
     37 N         -23.9130    0.5418   28.6543 N.3     1  UNL1       -0.2275
     38 C         -22.3096    1.4884   27.2085 C.2     1  UNL1        0.2523
     39 C         -22.6094    0.3403   29.0958 C.3     1  UNL1        0.2055
     40 C         -28.8369    1.5242   30.6260 C.2     1  UNL1       -0.0020
     41 C         -30.0525    0.9378   28.6237 C.2     1  UNL1       -0.0020
     42 O         -22.1509    2.1097   25.9423 O.2     1  UNL1       -0.3376
     43 N         -21.5928    1.0014   28.3008 N.2     1  UNL1       -0.2194
     44 N         -26.5555    0.4224   29.4515 N.3     1  UNL1       -0.1983
     45 C         -24.3078    1.6524   26.4496 C.2     1  UNL1        0.1061
@<TRIPOS>BOND
     1     1    28    1
     2     2     7    1
     3     2     1    1
     4     3     2    2
     5     4     3    1
     6     4     5    2
     7     5     6    1
     8     6     7    2
     9     8     1    1
    10     8     9    1
    11     8    12    1
    12     9    10    1
    13    10    11    1
    14    12    11    1
    15    13    45    1
    16    14    13    1
    17    14    15    1
    18    15    18    2
    19    16    17    1
    20    16    15    1
    21    19    14    2
    22    20    21    2
    23    20    19    1
    24    21    26    1
    25    22    21    1
    26    23    22    1
    27    24    23    1
    28    24    25    1
    29    26    27    1
    30    26    13    1
    31    28    44    1
    32    29    32    1
    33    29    44    1
    34    30    45    1
    35    30    37    1
    36    31    33    1
    37    32    40    2
    38    33    35    1
    39    33    34    2
    40    36    42    1
    41    36    45    2
    42    37    28    1
    43    37    39    1
    44    38    30    1
    45    38    43    2
    46    40    34    1
    47    41    31    2
    48    41    32    1
    49    42    38    1
    50    43    39    1
