@<TRIPOS>MOLECULE
outputs/IAG933/test6/raw/output_2463_IAG933_linker_design_.xyz
 47 50 0 0 0
SMALL
GASTEIGER

@<TRIPOS>ATOM
      1 C         -24.8550   -1.0120   30.1430 C.3     1  UNL1        0.0627
      2 C         -24.9730   -2.5050   29.7880 C.2     1  UNL1       -0.0191
      3 C         -23.9060   -3.1730   29.1460 C.2     1  UNL1       -0.0042
      4 C         -23.9890   -4.5490   28.8530 C.2     1  UNL1       -0.0003
      5 C         -25.1370   -5.2800   29.2050 C.2     1  UNL1       -0.0000
      6 C         -26.2320   -4.6110   29.7840 C.2     1  UNL1       -0.0003
      7 C         -26.1550   -3.2320   30.0650 C.2     1  UNL1       -0.0042
      8 C         -25.3870   -0.6790   31.5710 C.3     1  UNL1        0.0788
      9 C         -25.1890    0.7730   32.0280 C.3     1  UNL1        0.0193
     10 C         -25.3360    0.6840   33.5440 C.3     1  UNL1        0.0202
     11 C         -24.8290   -0.7150   33.9050 C.3     1  UNL1        0.0887
     12 N         -24.7580   -1.4810   32.6460 N.3     1  UNL1       -0.2191
     13 C         -25.6880    1.6140   26.4610 C.2     1  UNL1        0.0398
     14 C         -26.2500    2.9200   26.3950 C.2     1  UNL1        0.0764
     15 C         -25.6420    4.0930   27.1230 C.2     1  UNL1        0.2664
     16 N         -25.6140    5.2520   26.4490 N.am    1  UNL1       -0.1997
     17 C         -25.0260    6.4790   26.9630 C.3     1  UNL1        0.1388
     18 O         -25.1430    3.9660   28.2430 O.2     1  UNL1       -0.2683
     19 C         -27.4380    3.0910   25.6450 C.2     1  UNL1        0.1067
     20 N         -28.0750    2.0890   25.0030 N.2     1  UNL1       -0.2081
     21 C         -27.5430    0.8490   25.0790 C.2     1  UNL1        0.2533
     22 O         -28.1930   -0.2080   24.4770 O.2     1  UNL1       -0.4558
     23 C         -29.4600    0.0050   23.8660 C.3     1  UNL1        0.2426
     24 C         -30.0650   -1.3770   23.5730 C.3     1  UNL1        0.2292
     25 O         -30.7290   -1.8780   24.7210 O.3     1  UNL1       -0.2162
     26 C         -26.3540    0.5760   25.7770 C.2     1  UNL1        0.1929
     27 F         -25.8600   -0.6810   25.7950 F       1  UNL1       -0.1992
     28 C         -29.5177    0.5943   30.6510 C.3     1  UNL1        0.0367
     29 C         -28.3563    1.5776   30.2635 C.3     1  UNL1        0.1821
     30 O         -28.6314   -1.7180   29.3050 O.3     1  UNL1       -0.4335
     31 O         -23.6168    1.9515   25.0090 O.3     1  UNL1       -0.3144
     32 C         -30.5073   -0.6349   30.4612 C.3     1  UNL1        0.0501
     33 O         -22.1243    1.6987   26.8862 O.2     1  UNL1       -0.4436
     34 C         -29.7041   -1.9097   30.2835 C.3     1  UNL1        0.2103
     35 C         -24.3202    0.5716   28.2768 C.2     1  UNL1        0.0305
     36 C         -22.9493    0.4760   28.7242 C.2     1  UNL1        0.1745
     37 C         -29.5426    0.6692   32.1987 C.3     1  UNL1        0.0028
     38 C         -23.3649    1.7641   26.4429 C.3     1  UNL1        0.3127
     39 O         -28.8491   -0.5684   28.1798 O.2     1  UNL1       -0.2246
     40 F         -22.5101   -0.2693   29.8028 F       1  UNL1       -0.2011
     41 C         -28.0054   -0.5946   28.7299 C.2     1  UNL1        0.4214
     42 C         -25.3329   -0.0382   28.9813 C.3     1  UNL1        0.1283
     43 C         -22.3705    2.4245   24.5335 C.3     1  UNL1        0.1783
     44 N         -26.7313    0.0990   28.7446 N.am    1  UNL1       -0.1655
     45 C         -21.9283    1.0591   28.0316 C.2     1  UNL1        0.2046
     46 O         -28.7257    2.8379   30.9532 O.3     1  UNL1       -0.2204
     47 C         -24.4736    1.3196   27.0937 C.2     1  UNL1        0.0496
@<TRIPOS>BOND
     1     1    42    1
     2     2     7    1
     3     2     1    1
     4     3     2    2
     5     4     3    1
     6     4     5    2
     7     5     6    1
     8     6     7    2
     9     8     1    1
    10     8     9    1
    11     8    12    1
    12     9    10    1
    13    10    11    1
    14    12    11    1
    15    13    47    1
    16    14    13    1
    17    14    15    1
    18    15    18    2
    19    16    17    1
    20    16    15    1
    21    19    14    2
    22    20    21    2
    23    20    19    1
    24    21    26    1
    25    22    21    1
    26    23    22    1
    27    24    23    1
    28    24    25    1
    29    26    27    1
    30    26    13    2
    31    28    37    1
    32    29    28    1
    33    29    46    1
    34    30    34    1
    35    32    28    1
    36    33    45    1
    37    34    32    1
    38    35    36    1
    39    35    42    1
    40    36    40    1
    41    38    31    1
    42    38    33    1
    43    38    47    1
    44    39    41    2
    45    41    44    1
    46    41    30    1
    47    42    44    1
    48    43    31    1
    49    45    36    2
    50    47    35    2
