@<TRIPOS>MOLECULE
No_2465-gen_results/8p0m/2024-11-27-11-27-31/
 27 30 0 0 0
SMALL
GASTEIGER

@<TRIPOS>ATOM
      1 C         -28.0162   -0.8135   28.8779 C.ar    1  UNL1        0.0114
      2 C         -27.0636   -0.1190   28.6079 C.ar    1  UNL1        0.0009
      3 C         -25.7647   -0.3897   29.0360 C.ar    1  UNL1        0.0001
      4 C         -25.5296   -1.5303   29.9014 C.ar    1  UNL1        0.0009
      5 C         -26.6577   -2.2915   30.2035 C.ar    1  UNL1        0.0114
      6 C         -27.8548   -1.9555   29.7630 C.ar    1  UNL1        0.0577
      7 C         -24.5441    0.4126   28.7379 C.ar    1  UNL1        0.0000
      8 C         -24.4731    1.2064   27.7114 C.ar    1  UNL1       -0.0000
      9 C         -25.5225    1.5146   26.8271 C.ar    1  UNL1       -0.0000
     10 C         -23.1407    1.8483   27.3980 C.ar    1  UNL1       -0.0000
     11 C         -22.1032    1.7194   28.3183 C.ar    1  UNL1        0.0000
     12 C         -23.3748    0.1881   29.5505 C.ar    1  UNL1        0.0000
     13 C         -22.1585    0.8893   29.3102 C.ar    1  UNL1        0.0000
     14 C         -26.3228    2.4292   27.2374 C.ar    1  UNL1       -0.0003
     15 C         -25.7260    0.7689   25.6612 C.ar    1  UNL1       -0.0003
     16 C         -26.8254    0.9094   24.8578 C.ar    1  UNL1       -0.0043
     17 C         -27.4403    2.8454   26.3259 C.ar    1  UNL1       -0.0043
     18 C         -27.6299    2.0829   25.1914 C.ar    1  UNL1       -0.0218
     19 CL        -29.3401   -2.7416   30.1074 Cl      1  UNL1       -0.0822
     20 C         -28.7919    2.3358   24.3088 C.3     1  UNL1        0.0310
     21 C         -30.0350    2.0472   24.7494 C.3     1  UNL1        0.0310
     22 C         -31.1410    2.2184   24.0019 C.ar    1  UNL1       -0.0218
     23 C         -30.9334    2.7735   22.6577 C.ar    1  UNL1       -0.0043
     24 C         -32.1179    2.9516   21.8845 C.ar    1  UNL1       -0.0003
     25 C         -33.3751    2.6859   22.3488 C.ar    1  UNL1       -0.0000
     26 C         -33.5758    2.2111   23.6224 C.ar    1  UNL1       -0.0003
     27 C         -32.4830    2.0313   24.4034 C.ar    1  UNL1       -0.0043
@<TRIPOS>BOND
     1     3     7    1
     2     8     9    1
     3     6    19    1
     4    18    20    1
     5    20    21    1
     6    21    22    1
     7     1     2   ar
     8     2     3   ar
     9     3     4   ar
    10     4     5   ar
    11     5     6   ar
    12     6     1   ar
    13     9    14   ar
    14    14    17   ar
    15    17    18   ar
    16    18    16   ar
    17    16    15   ar
    18    15     9   ar
    19    22    23   ar
    20    23    24   ar
    21    24    25   ar
    22    25    26   ar
    23    26    27   ar
    24    27    22   ar
    25     7     8   ar
    26     8    10   ar
    27    10    11   ar
    28    11    13   ar
    29    13    12   ar
    30    12     7   ar
