@<TRIPOS>MOLECULE
No_2466-gen_results/8p0m/2024-11-27-11-27-31/
 15 16 0 0 0
SMALL
GASTEIGER

@<TRIPOS>ATOM
      1 O         -28.1229   -1.3353   28.4874 O.2     1  UNL1       -0.2684
      2 C         -27.0637   -0.8242   28.8687 C.2     1  UNL1        0.2645
      3 C         -26.4017   -0.0623   28.6224 C.ar    1  UNL1        0.0511
      4 N         -26.5721   -1.5845   30.1172 N.am    1  UNL1       -0.2013
      5 C         -25.0209    0.3561   29.0444 C.ar    1  UNL1       -0.0121
      6 C         -24.6541   -0.3468   30.2523 C.3     1  UNL1        0.0499
      7 C         -25.4243   -1.3432   30.6966 C.3     1  UNL1        0.1201
      8 C         -26.6993    0.8154   27.3435 C.ar    1  UNL1        0.0042
      9 C         -25.8211    1.5527   26.7172 C.ar    1  UNL1        0.0001
     10 C         -24.5526    1.9190   27.3303 C.ar    1  UNL1        0.0035
     11 C         -24.1132    1.2417   28.4594 C.ar    1  UNL1        0.0677
     12 C         -22.7850    1.5153   28.9567 C.3     1  UNL1        0.4183
     13 F         -22.1736    2.2922   28.1713 F       1  UNL1       -0.1659
     14 F         -22.9413    2.2887   30.0974 F       1  UNL1       -0.1659
     15 F         -22.1132    0.4461   29.2515 F       1  UNL1       -0.1659
@<TRIPOS>BOND
     1     1     2    2
     2     2     3    1
     3     2     4   am
     4     6     7    1
     5    11    12    1
     6    12    13    1
     7    12    14    1
     8    12    15    1
     9     5     6    1
    10     7     4    1
    11     3     5   ar
    12     5    11   ar
    13    11    10   ar
    14    10     9   ar
    15     9     8   ar
    16     8     3   ar
