@<TRIPOS>MOLECULE
outputs/IAG933/test6/raw/output_2467_IAG933_linker_design_.xyz
 43 46 0 0 0
SMALL
GASTEIGER

@<TRIPOS>ATOM
      1 C         -24.8550   -1.0120   30.1430 C.3     1  UNL1        0.0618
      2 C         -24.9730   -2.5050   29.7880 C.2     1  UNL1       -0.0170
      3 C         -23.9060   -3.1730   29.1460 C.2     1  UNL1       -0.0039
      4 C         -23.9890   -4.5490   28.8530 C.2     1  UNL1       -0.0003
      5 C         -25.1370   -5.2800   29.2050 C.2     1  UNL1       -0.0000
      6 C         -26.2320   -4.6110   29.7840 C.2     1  UNL1       -0.0003
      7 C         -26.1550   -3.2320   30.0650 C.2     1  UNL1       -0.0039
      8 C         -25.3870   -0.6790   31.5710 C.3     1  UNL1        0.0809
      9 C         -25.1890    0.7730   32.0280 C.3     1  UNL1        0.0195
     10 C         -25.3360    0.6840   33.5440 C.3     1  UNL1        0.0203
     11 C         -24.8290   -0.7150   33.9050 C.3     1  UNL1        0.0887
     12 N         -24.7580   -1.4810   32.6460 N.3     1  UNL1       -0.2188
     13 C         -25.6880    1.6140   26.4610 C.2     1  UNL1        0.0401
     14 C         -26.2500    2.9200   26.3950 C.2     1  UNL1        0.0766
     15 C         -25.6420    4.0930   27.1230 C.2     1  UNL1        0.2664
     16 N         -25.6140    5.2520   26.4490 N.am    1  UNL1       -0.1997
     17 C         -25.0260    6.4790   26.9630 C.3     1  UNL1        0.1388
     18 O         -25.1430    3.9660   28.2430 O.2     1  UNL1       -0.2683
     19 C         -27.4380    3.0910   25.6450 C.2     1  UNL1        0.1067
     20 N         -28.0750    2.0890   25.0030 N.2     1  UNL1       -0.2081
     21 C         -27.5430    0.8490   25.0790 C.2     1  UNL1        0.2533
     22 O         -28.1930   -0.2080   24.4770 O.2     1  UNL1       -0.4558
     23 C         -29.4600    0.0050   23.8660 C.3     1  UNL1        0.2426
     24 C         -30.0650   -1.3770   23.5730 C.3     1  UNL1        0.2292
     25 O         -30.7290   -1.8780   24.7210 O.3     1  UNL1       -0.2162
     26 C         -26.3540    0.5760   25.7770 C.2     1  UNL1        0.1931
     27 F         -25.8600   -0.6810   25.7950 F       1  UNL1       -0.1992
     28 C         -22.9720    0.1805   29.1798 C.2     1  UNL1       -0.0035
     29 O         -20.4874    2.1714   27.2966 O.3     1  UNL1       -0.2151
     30 C         -28.2885    2.4599   31.4408 C.2     1  UNL1       -0.0256
     31 C         -28.0312    3.6388   32.0972 C.2     1  UNL1       -0.0049
     32 C         -24.3644   -0.0384   29.2466 C.2     1  UNL1       -0.0019
     33 C         -23.2583    1.4768   27.1302 C.2     1  UNL1        0.0574
     34 C         -28.8142    2.4224   30.1257 C.3     1  UNL1        0.0357
     35 N         -26.4220    1.0560   28.8570 N.am    1  UNL1       -0.1795
     36 C         -25.0886    0.7707   28.5443 C.2     1  UNL1        0.0705
     37 O         -28.0983   -0.5355   28.5510 O.2     1  UNL1       -0.2730
     38 C         -28.3318    1.9789   28.9444 C.3     1  UNL1        0.0918
     39 C         -27.7751    0.5981   28.8064 C.2     1  UNL1        0.2459
     40 CL        -22.6507    2.2664   25.6720 Cl      1  UNL1       -0.0824
     41 C         -21.0523    1.2711   28.1456 C.3     1  UNL1        0.2094
     42 C         -24.6826    1.3085   27.2722 C.2     1  UNL1        0.0279
     43 C         -22.4937    0.9561   28.1615 C.2     1  UNL1        0.0209
@<TRIPOS>BOND
     1     1    32    1
     2     2     7    1
     3     2     1    1
     4     3     2    2
     5     4     3    1
     6     4     5    2
     7     5     6    1
     8     6     7    2
     9     8     1    1
    10     8     9    1
    11     8    12    1
    12     9    10    1
    13    10    11    1
    14    12    11    1
    15    13    42    1
    16    14    13    1
    17    14    15    1
    18    15    18    2
    19    16    17    1
    20    16    15    1
    21    19    14    2
    22    20    21    2
    23    20    19    1
    24    21    26    1
    25    22    21    1
    26    23    22    1
    27    24    23    1
    28    24    25    1
    29    26    27    1
    30    26    13    2
    31    28    32    1
    32    29    41    1
    33    30    31    2
    34    33    42    2
    35    33    43    1
    36    34    30    1
    37    36    35    1
    38    36    32    2
    39    37    39    2
    40    38    34    1
    41    39    35    1
    42    39    38    1
    43    40    33    1
    44    41    43    1
    45    42    36    1
    46    43    28    2
