@<TRIPOS>MOLECULE
No_2468-gen_results/8p0m/2024-11-27-11-27-31/
 10 10 0 0 0
SMALL
GASTEIGER

@<TRIPOS>ATOM
      1 C         -28.0162   -0.8135   28.8779 C.ar    1  UNL1        0.0012
      2 C         -27.0636   -0.1190   28.6079 C.ar    1  UNL1        0.0000
      3 C         -25.7923   -0.4302   29.0761 C.ar    1  UNL1        0.0000
      4 C         -25.5756   -1.5654   29.9363 C.ar    1  UNL1        0.0000
      5 C         -26.7354   -2.3004   30.2173 C.ar    1  UNL1        0.0012
      6 C         -27.9184   -1.9537   29.7629 C.ar    1  UNL1        0.0153
      7 C         -28.9516   -2.8779   30.2436 C.2     1  UNL1        0.0805
      8 N         -28.7900   -4.0997   30.5296 N.2     1  UNL1       -0.1527
      9 C         -30.3095   -2.3527   30.3740 C.3     1  UNL1        0.0477
     10 C         -31.3071   -3.2254   30.7135 C.3     1  UNL1        0.0068
@<TRIPOS>BOND
     1     6     7    1
     2     7     8    2
     3     7     9    1
     4     9    10    1
     5     1     2   ar
     6     2     3   ar
     7     3     4   ar
     8     4     5   ar
     9     5     6   ar
    10     6     1   ar
