@<TRIPOS>MOLECULE
outputs/IAG933/test6/raw/output_247_IAG933_linker_design_.xyz
 45 48 0 0 0
SMALL
GASTEIGER

@<TRIPOS>ATOM
      1 C         -24.8550   -1.0120   30.1430 C.3     1  UNL1        0.0616
      2 C         -24.9730   -2.5050   29.7880 C.2     1  UNL1       -0.0170
      3 C         -23.9060   -3.1730   29.1460 C.2     1  UNL1       -0.0039
      4 C         -23.9890   -4.5490   28.8530 C.2     1  UNL1       -0.0003
      5 C         -25.1370   -5.2800   29.2050 C.2     1  UNL1       -0.0000
      6 C         -26.2320   -4.6110   29.7840 C.2     1  UNL1       -0.0003
      7 C         -26.1550   -3.2320   30.0650 C.2     1  UNL1       -0.0039
      8 C         -25.3870   -0.6790   31.5710 C.3     1  UNL1        0.0809
      9 C         -25.1890    0.7730   32.0280 C.3     1  UNL1        0.0195
     10 C         -25.3360    0.6840   33.5440 C.3     1  UNL1        0.0203
     11 C         -24.8290   -0.7150   33.9050 C.3     1  UNL1        0.0887
     12 N         -24.7580   -1.4810   32.6460 N.3     1  UNL1       -0.2188
     13 C         -25.6880    1.6140   26.4610 C.2     1  UNL1        0.0400
     14 C         -26.2500    2.9200   26.3950 C.2     1  UNL1        0.0766
     15 C         -25.6420    4.0930   27.1230 C.2     1  UNL1        0.2664
     16 N         -25.6140    5.2520   26.4490 N.am    1  UNL1       -0.1997
     17 C         -25.0260    6.4790   26.9630 C.3     1  UNL1        0.1388
     18 O         -25.1430    3.9660   28.2430 O.2     1  UNL1       -0.2683
     19 C         -27.4380    3.0910   25.6450 C.2     1  UNL1        0.1067
     20 N         -28.0750    2.0890   25.0030 N.2     1  UNL1       -0.2081
     21 C         -27.5430    0.8490   25.0790 C.2     1  UNL1        0.2533
     22 O         -28.1930   -0.2080   24.4770 O.2     1  UNL1       -0.4558
     23 C         -29.4600    0.0050   23.8660 C.3     1  UNL1        0.2426
     24 C         -30.0650   -1.3770   23.5730 C.3     1  UNL1        0.2292
     25 O         -30.7290   -1.8780   24.7210 O.3     1  UNL1       -0.2162
     26 C         -26.3540    0.5760   25.7770 C.2     1  UNL1        0.1931
     27 F         -25.8600   -0.6810   25.7950 F       1  UNL1       -0.1992
     28 C         -26.6470    1.1158   28.6925 C.3     1  UNL1        0.1129
     29 F         -21.2408    1.3562   27.7417 F       1  UNL1       -0.2004
     30 N         -22.0249   -0.5414   29.7245 N.pl3   1  UNL1       -0.1260
     31 C         -28.1362    0.9241   28.8328 C.2     1  UNL1        0.2483
     32 F         -22.9565    2.1134   25.7040 F       1  UNL1       -0.2018
     33 O         -28.5438    0.5603   31.9133 O.2     1  UNL1       -0.1541
     34 N         -28.6276    1.8559   29.6380 N.am    1  UNL1       -0.1616
     35 C         -22.5240    0.9785   27.8609 C.ar    1  UNL1        0.1836
     36 C         -28.7008    3.2638   29.2066 C.3     1  UNL1        0.1418
     37 C         -28.5106    3.1204   32.0523 C.3     1  UNL1        0.1999
     38 O         -28.8094   -0.0247   28.3042 O.2     1  UNL1       -0.2729
     39 C         -24.7835    1.2286   27.1710 C.ar    1  UNL1        0.0285
     40 C         -23.3650    1.4855   26.8954 C.ar    1  UNL1        0.1684
     41 O         -30.5550    1.7445   31.5336 O.2     1  UNL1       -0.1541
     42 S         -29.1108    1.6992   31.1991 S.O2    1  UNL1        0.0609
     43 C         -24.3574   -0.0297   29.1279 C.ar    1  UNL1       -0.0014
     44 C         -22.9709    0.1599   28.9273 C.ar    1  UNL1        0.1147
     45 C         -25.2541    0.6637   28.3434 C.ar    1  UNL1       -0.0130
@<TRIPOS>BOND
     1     1    43    1
     2     2     7    1
     3     2     1    1
     4     3     2    2
     5     4     3    1
     6     4     5    2
     7     5     6    1
     8     6     7    2
     9     8     1    1
    10     8     9    1
    11     8    12    1
    12     9    10    1
    13    10    11    1
    14    12    11    1
    15    13    39    1
    16    14    13    1
    17    14    15    1
    18    15    18    2
    19    16    17    1
    20    16    15    1
    21    19    14    2
    22    20    21    2
    23    20    19    1
    24    21    26    1
    25    22    21    1
    26    23    22    1
    27    24    23    1
    28    24    25    1
    29    26    27    1
    30    26    13    2
    31    28    31    1
    32    29    35    1
    33    31    34   am
    34    32    40    1
    35    34    42    1
    36    35    44   ar
    37    36    34    1
    38    38    31    2
    39    39    45   ar
    40    40    39   ar
    41    40    35   ar
    42    42    41    2
    43    42    33    2
    44    42    37    1
    45    44    43   ar
    46    44    30    1
    47    45    28    1
    48    45    43   ar
