@<TRIPOS>MOLECULE
No_2476-gen_results/8p0m/2024-11-27-11-27-31/
 35 37 0 0 0
SMALL
GASTEIGER

@<TRIPOS>ATOM
      1 C         -28.0162   -0.8135   28.8779 C.2     1  UNL1        0.2717
      2 C         -27.0636   -0.1189   28.6079 C.ar    1  UNL1        0.0555
      3 C         -25.7923   -0.4302   29.0761 C.ar    1  UNL1        0.0048
      4 C         -24.5456    0.3494   28.8225 C.ar    1  UNL1        0.0081
      5 C         -24.6586    1.4196   27.8878 C.ar    1  UNL1        0.0975
      6 C         -25.9471    1.6811   27.3792 C.ar    1  UNL1        0.0081
      7 C         -27.0439    0.9739   27.6871 C.ar    1  UNL1        0.0048
      8 N         -29.1797   -0.1202   29.1288 N.am    1  UNL1       -0.1332
      9 C         -30.2095   -0.7652   29.7428 C.2     1  UNL1        0.3254
     10 C         -23.4456    2.1545   27.6087 C.2     1  UNL1        0.4766
     11 N         -22.2487    1.7329   28.0877 N.pl3   1  UNL1        0.2047
     12 N         -23.4757    3.0344   26.5940 N.pl3   1  UNL1        0.2047
     13 O         -27.8943   -1.8259   29.6348 O.2     1  UNL1       -0.2679
     14 C         -31.4007   -0.8818   28.9985 C.2     1  UNL1        0.3048
     15 O         -31.4585   -0.4366   27.9644 O.2     1  UNL1       -0.2648
     16 N         -32.4530   -1.6411   29.5257 N.am    1  UNL1       -0.2720
     17 C         -33.6407   -1.9046   28.7727 C.3     1  UNL1        0.0981
     18 O         -30.1267   -1.0614   30.9685 O.2     1  UNL1       -0.2629
     19 C         -34.1607   -3.0188   28.9547 C.3     1  UNL1        0.0422
     20 C         -33.9253   -3.6845   30.0593 C.3     1  UNL1        0.0081
     21 C         -32.6815   -3.5771   30.8021 C.3     1  UNL1        0.0246
     22 C         -32.2050   -2.3743   30.7262 C.3     1  UNL1        0.0942
     23 C         -35.3904   -3.4105   28.1545 C.ar    1  UNL1       -0.0208
     24 C         -35.4051   -4.0655   27.2628 C.ar    1  UNL1       -0.0042
     25 C         -36.5266   -4.4108   26.3775 C.ar    1  UNL1       -0.0003
     26 C         -36.6243   -2.7263   28.5168 C.ar    1  UNL1       -0.0042
     27 C         -37.7725   -2.9613   27.8095 C.ar    1  UNL1       -0.0003
     28 C         -37.7097   -3.8074   26.7163 C.ar    1  UNL1       -0.0000
     29 C         -32.1387   -4.6566   31.5511 C.3     1  UNL1        0.0277
     30 C         -30.9699   -4.5462   32.0602 C.2     1  UNL1       -0.0261
     31 C         -30.6760   -4.5562   33.3595 C.2     1  UNL1       -0.0046
     32 C         -30.0361   -4.1150   34.0512 C.2     1  UNL1       -0.0003
     33 C         -29.9429   -4.2322   35.5283 C.2     1  UNL1       -0.0000
     34 C         -30.8333   -5.0867   36.0648 C.2     1  UNL1       -0.0000
     35 C         -31.6881   -5.7500   35.2780 C.2     1  UNL1       -0.0000
@<TRIPOS>BOND
     1     1     2    1
     2     1     8   am
     3     8     9   am
     4     5    10    1
     5    10    11    2
     6    10    12    1
     7     1    13    2
     8     9    14    1
     9    14    15    2
    10    14    16   am
    11    16    17    1
    12     9    18    2
    13    17    19    1
    14    19    20    1
    15    16    22    1
    16    21    22    1
    17    19    23    1
    18    21    29    1
    19    29    30    1
    20    30    31    2
    21    31    32    1
    22    32    33    2
    23    33    34    1
    24    34    35    2
    25    20    21    1
    26    23    24   ar
    27    24    25   ar
    28    25    28   ar
    29    28    27   ar
    30    27    26   ar
    31    26    23   ar
    32     2     3   ar
    33     3     4   ar
    34     4     5   ar
    35     5     6   ar
    36     6     7   ar
    37     7     2   ar
