@<TRIPOS>MOLECULE
No_2478-gen_results/8p0m/2024-11-27-11-27-31/
 15 16 0 0 0
SMALL
GASTEIGER

@<TRIPOS>ATOM
      1 C         -28.0162   -0.8135   28.8779 C.ar    1  UNL1        0.0054
      2 C         -28.4690   -0.7850   29.8287 C.ar    1  UNL1        0.0536
      3 C         -26.5042   -0.7777   28.8766 C.ar    1  UNL1        0.0115
      4 C         -25.8103   -0.8531   30.1028 C.ar    1  UNL1        0.0577
      5 C         -27.9906   -0.8916   31.2257 C.ar    1  UNL1        0.0054
      6 C         -26.6042   -0.8676   31.2652 C.ar    1  UNL1        0.0115
      7 CL        -24.1648   -0.7915   30.1717 Cl      1  UNL1       -0.0822
      8 C         -30.0988   -0.8363   29.8511 C.2     1  UNL1        0.2490
      9 N         -30.7002   -1.8027   30.2428 N.am    1  UNL1       -0.2761
     10 C         -30.1915   -2.7943   30.7826 C.3     1  UNL1        0.0937
     11 C         -31.0996   -4.0092   30.9794 C.3     1  UNL1        0.0216
     12 C         -32.0976   -1.9114   29.9654 C.3     1  UNL1        0.0937
     13 O         -30.5252    0.2426   29.3902 O.2     1  UNL1       -0.2699
     14 C         -32.8117   -3.0584   30.1150 C.3     1  UNL1        0.0216
     15 C         -32.3260   -4.0744   30.7558 C.3     1  UNL1        0.0035
@<TRIPOS>BOND
     1     4     7    1
     2     2     8    1
     3     8     9   am
     4     9    10    1
     5     9    12    1
     6     8    13    2
     7    11    15    1
     8    14    15    1
     9    10    11    1
    10    14    12    1
    11     1     2   ar
    12     2     5   ar
    13     5     6   ar
    14     6     4   ar
    15     4     3   ar
    16     3     1   ar
