@<TRIPOS>MOLECULE
No_2479-gen_results/8p0m/2024-11-27-11-27-31/
 28 30 0 0 0
SMALL
GASTEIGER

@<TRIPOS>ATOM
      1 C         -28.0162   -0.8135   28.8779 C.ar    1  UNL1        0.0407
      2 C         -28.4690   -0.7850   29.8287 C.ar    1  UNL1        0.0744
      3 C         -26.5455   -0.8762   28.8500 C.ar    1  UNL1        0.1383
      4 C         -25.8974   -0.8267   29.8894 C.ar    1  UNL1        0.0361
      5 C         -27.9129   -0.8385   31.1942 C.ar    1  UNL1        0.0041
      6 C         -26.5519   -0.8324   31.1775 C.ar    1  UNL1        0.0030
      7 C         -30.0664   -0.7969   29.9410 C.3     1  UNL1        0.4187
      8 F         -30.5082    0.0287   30.8804 F       1  UNL1       -0.1659
      9 F         -30.4761   -2.0484   30.1831 F       1  UNL1       -0.1659
     10 F         -30.7118   -0.3168   28.9158 F       1  UNL1       -0.1659
     11 C         -24.3774   -0.8302   29.9521 C.ar    1  UNL1        0.0304
     12 C         -23.8117    0.5033   30.0113 C.ar    1  UNL1        0.0028
     13 C         -22.5614    0.6891   29.3460 C.ar    1  UNL1        0.0068
     14 C         -21.8094   -0.4575   29.0019 C.ar    1  UNL1        0.0368
     15 C         -22.3930   -1.6913   28.9751 C.ar    1  UNL1        0.0363
     16 C         -23.7095   -1.8589   29.3640 C.ar    1  UNL1        0.1407
     17 F         -24.1939   -3.0301   29.2551 F       1  UNL1       -0.2042
     18 BR        -20.0489   -0.1282   28.4757 Br      1  UNL1       -0.0489
     19 O         -25.9428   -0.8044   27.5991 O.3     1  UNL1       -0.4788
     20 C         -26.3237    0.0744   26.6284 C.3     1  UNL1        0.1703
     21 C         -25.6182   -0.0940   25.4228 C.3     1  UNL1        0.0476
     22 C         -27.2033    1.0709   26.7264 C.3     1  UNL1        0.0698
     23 C         -27.4065    1.8396   27.7651 C.ar    1  UNL1       -0.0186
     24 C         -26.4431    2.3524   28.7035 C.ar    1  UNL1       -0.0041
     25 C         -26.7061    3.2683   29.7672 C.ar    1  UNL1       -0.0003
     26 C         -28.0693    3.4665   30.0726 C.ar    1  UNL1       -0.0000
     27 C         -29.0891    2.9894   29.2439 C.ar    1  UNL1       -0.0003
     28 C         -28.7754    2.1906   28.1678 C.ar    1  UNL1       -0.0041
@<TRIPOS>BOND
     1     2     7    1
     2     7     8    1
     3     7     9    1
     4     7    10    1
     5     4    11    1
     6    16    17    1
     7    14    18    1
     8     3    19    1
     9    19    20    1
    10    20    21    1
    11    20    22    1
    12    22    23    1
    13    11    12   ar
    14    12    13   ar
    15    13    14   ar
    16    14    15   ar
    17    15    16   ar
    18    16    11   ar
    19    23    24   ar
    20    24    25   ar
    21    25    26   ar
    22    26    27   ar
    23    27    28   ar
    24    28    23   ar
    25     1     2   ar
    26     2     5   ar
    27     5     6   ar
    28     6     4   ar
    29     4     3   ar
    30     3     1   ar
