@<TRIPOS>MOLECULE
outputs/IAG933/test6/raw/output_2481_IAG933_linker_design_.xyz
 44 48 0 0 0
SMALL
GASTEIGER

@<TRIPOS>ATOM
      1 C         -24.8550   -1.0120   30.1430 C.3     1  UNL1        0.0639
      2 C         -24.9730   -2.5050   29.7880 C.2     1  UNL1       -0.0170
      3 C         -23.9060   -3.1730   29.1460 C.2     1  UNL1       -0.0039
      4 C         -23.9890   -4.5490   28.8530 C.2     1  UNL1       -0.0003
      5 C         -25.1370   -5.2800   29.2050 C.2     1  UNL1       -0.0000
      6 C         -26.2320   -4.6110   29.7840 C.2     1  UNL1       -0.0003
      7 C         -26.1550   -3.2320   30.0650 C.2     1  UNL1       -0.0039
      8 C         -25.3870   -0.6790   31.5710 C.3     1  UNL1        0.0810
      9 C         -25.1890    0.7730   32.0280 C.3     1  UNL1        0.0195
     10 C         -25.3360    0.6840   33.5440 C.3     1  UNL1        0.0203
     11 C         -24.8290   -0.7150   33.9050 C.3     1  UNL1        0.0887
     12 N         -24.7580   -1.4810   32.6460 N.3     1  UNL1       -0.2188
     13 C         -25.6880    1.6140   26.4610 C.2     1  UNL1        0.0545
     14 C         -26.2500    2.9200   26.3950 C.2     1  UNL1        0.0780
     15 C         -25.6420    4.0930   27.1230 C.2     1  UNL1        0.2665
     16 N         -25.6140    5.2520   26.4490 N.am    1  UNL1       -0.1997
     17 C         -25.0260    6.4790   26.9630 C.3     1  UNL1        0.1388
     18 O         -25.1430    3.9660   28.2430 O.2     1  UNL1       -0.2683
     19 C         -27.4380    3.0910   25.6450 C.2     1  UNL1        0.1068
     20 N         -28.0750    2.0890   25.0030 N.2     1  UNL1       -0.2081
     21 C         -27.5430    0.8490   25.0790 C.2     1  UNL1        0.2533
     22 O         -28.1930   -0.2080   24.4770 O.2     1  UNL1       -0.4558
     23 C         -29.4600    0.0050   23.8660 C.3     1  UNL1        0.2426
     24 C         -30.0650   -1.3770   23.5730 C.3     1  UNL1        0.2292
     25 O         -30.7290   -1.8780   24.7210 O.3     1  UNL1       -0.2162
     26 C         -26.3540    0.5760   25.7770 C.2     1  UNL1        0.1945
     27 F         -25.8600   -0.6810   25.7950 F       1  UNL1       -0.1992
     28 CL        -29.3847    1.3942   30.6134 Cl      1  UNL1       -0.0921
     29 C         -23.0277    0.1480   28.7269 C.ar    1  UNL1        0.1294
     30 C         -30.4104    0.4622   27.8034 C.3     1  UNL1        0.0404
     31 N         -22.9703    1.0777   27.7031 N.ar    1  UNL1       -0.2886
     32 C         -24.3906    1.4152   27.3221 C.ar    1  UNL1        0.0729
     33 N         -21.8567   -0.3241   29.2344 N.pl3   1  UNL1       -0.1905
     34 C         -29.3732   -1.3012   30.2923 C.3     1  UNL1        0.2865
     35 C         -24.2982   -0.0796   29.2396 C.ar    1  UNL1        0.0235
     36 C         -20.5277   -0.1455   28.5713 C.3     1  UNL1        0.2610
     37 O         -20.4252    1.2420   28.2438 O.3     1  UNL1       -0.3102
     38 O         -30.8084   -1.3467   30.3773 O.3     1  UNL1       -0.1952
     39 C         -27.6898   -0.5791   28.6635 C.1     1  UNL1        0.0079
     40 C         -26.6269    0.0233   28.4337 C.1     1  UNL1       -0.0433
     41 C         -29.6010    0.4363   29.1191 C.3     1  UNL1        0.1630
     42 C         -25.2623    0.7393   28.4325 C.ar    1  UNL1        0.0581
     43 N         -28.9400   -0.8199   29.0619 N.pl3   1  UNL1       -0.2269
     44 C         -21.6011    1.7466   27.4969 C.3     1  UNL1        0.2582
@<TRIPOS>BOND
     1     1    35    1
     2     2     7    1
     3     2     1    1
     4     3     2    2
     5     4     3    1
     6     4     5    2
     7     5     6    1
     8     6     7    2
     9     8     1    1
    10     8     9    1
    11     8    12    1
    12     9    10    1
    13    10    11    1
    14    12    11    1
    15    13    32    1
    16    14    13    1
    17    14    15    1
    18    15    18    2
    19    16    17    1
    20    16    15    1
    21    19    14    2
    22    20    21    2
    23    20    19    1
    24    21    26    1
    25    22    21    1
    26    23    22    1
    27    24    23    1
    28    24    25    1
    29    26    27    1
    30    26    13    2
    31    29    33    1
    32    29    35   ar
    33    31    29   ar
    34    32    31   ar
    35    32    42   ar
    36    34    38    1
    37    36    33    1
    38    37    36    1
    39    39    43    1
    40    40    39    3
    41    41    30    1
    42    41    28    1
    43    42    40    1
    44    42    35   ar
    45    43    41    1
    46    43    34    1
    47    44    31    1
    48    44    37    1
