@<TRIPOS>MOLECULE
outputs/IAG933/test6/raw/output_2482_IAG933_linker_design_.xyz
 42 45 0 0 0
SMALL
GASTEIGER

@<TRIPOS>ATOM
      1 C         -24.8550   -1.0120   30.1430 C.3     1  UNL1        0.0415
      2 C         -24.9730   -2.5050   29.7880 C.2     1  UNL1       -0.0211
      3 C         -23.9060   -3.1730   29.1460 C.2     1  UNL1       -0.0042
      4 C         -23.9890   -4.5490   28.8530 C.2     1  UNL1       -0.0003
      5 C         -25.1370   -5.2800   29.2050 C.2     1  UNL1       -0.0000
      6 C         -26.2320   -4.6110   29.7840 C.2     1  UNL1       -0.0003
      7 C         -26.1550   -3.2320   30.0650 C.2     1  UNL1       -0.0042
      8 C         -25.3870   -0.6790   31.5710 C.3     1  UNL1        0.0769
      9 C         -25.1890    0.7730   32.0280 C.3     1  UNL1        0.0192
     10 C         -25.3360    0.6840   33.5440 C.3     1  UNL1        0.0202
     11 C         -24.8290   -0.7150   33.9050 C.3     1  UNL1        0.0887
     12 N         -24.7580   -1.4810   32.6460 N.3     1  UNL1       -0.2191
     13 C         -25.6880    1.6140   26.4610 C.2     1  UNL1        0.0262
     14 C         -26.2500    2.9200   26.3950 C.2     1  UNL1        0.0731
     15 C         -25.6420    4.0930   27.1230 C.2     1  UNL1        0.2661
     16 N         -25.6140    5.2520   26.4490 N.am    1  UNL1       -0.1997
     17 C         -25.0260    6.4790   26.9630 C.3     1  UNL1        0.1388
     18 O         -25.1430    3.9660   28.2430 O.2     1  UNL1       -0.2683
     19 C         -27.4380    3.0910   25.6450 C.2     1  UNL1        0.1064
     20 N         -28.0750    2.0890   25.0030 N.2     1  UNL1       -0.2081
     21 C         -27.5430    0.8490   25.0790 C.2     1  UNL1        0.2530
     22 O         -28.1930   -0.2080   24.4770 O.2     1  UNL1       -0.4558
     23 C         -29.4600    0.0050   23.8660 C.3     1  UNL1        0.2426
     24 C         -30.0650   -1.3770   23.5730 C.3     1  UNL1        0.2292
     25 O         -30.7290   -1.8780   24.7210 O.3     1  UNL1       -0.2162
     26 C         -26.3540    0.5760   25.7770 C.2     1  UNL1        0.1896
     27 F         -25.8600   -0.6810   25.7950 F       1  UNL1       -0.1996
     28 O         -27.9886   -0.8929   29.0963 O.3     1  UNL1       -0.2093
     29 N         -27.8965    2.5061   29.1526 N.pl3   1  UNL1        0.2023
     30 C         -21.2111    1.4855   27.5290 C.3     1  UNL1        0.2111
     31 O         -23.6485    1.8383   25.0698 O.2     1  UNL1       -0.2498
     32 C         -25.5720   -0.0225   29.1920 C.3     1  UNL1        0.0519
     33 C         -22.3387    1.4570   28.5163 C.3     1  UNL1        0.0803
     34 C         -27.8294    1.3255   29.7701 C.2     1  UNL1        0.4833
     35 C         -23.2414    1.5707   26.1570 C.2     1  UNL1        0.3207
     36 C         -24.4357    1.2928   27.0730 C.3     1  UNL1        0.1263
     37 O         -21.7119    1.6875   26.1380 O.3     1  UNL1       -0.4482
     38 C         -23.2206    0.6526   28.9413 C.3     1  UNL1        0.1566
     39 C         -24.5265    0.6374   28.4372 C.3     1  UNL1        0.0487
     40 O         -22.7325    0.0405   30.0876 O.3     1  UNL1       -0.2230
     41 N         -28.4845    1.1941   31.0185 N.pl3   1  UNL1        0.2023
     42 C         -27.1213    0.0883   29.3055 C.3     1  UNL1        0.2722
@<TRIPOS>BOND
     1     1    32    1
     2     2     7    1
     3     2     1    1
     4     3     2    2
     5     4     3    1
     6     4     5    2
     7     5     6    1
     8     6     7    2
     9     8     1    1
    10     8     9    1
    11     8    12    1
    12     9    10    1
    13    10    11    1
    14    12    11    1
    15    14    13    1
    16    14    15    1
    17    15    18    2
    18    16    17    1
    19    16    15    1
    20    19    14    2
    21    20    21    2
    22    20    19    1
    23    21    26    1
    24    22    21    1
    25    23    22    1
    26    24    23    1
    27    24    25    1
    28    26    27    1
    29    26    13    2
    30    29    34    2
    31    30    33    1
    32    31    35    2
    33    32    42    1
    34    33    38    1
    35    34    41    1
    36    35    36    1
    37    36    13    1
    38    36    39    1
    39    37    35    1
    40    37    30    1
    41    38    40    1
    42    39    38    1
    43    39    32    1
    44    42    28    1
    45    42    34    1
