@<TRIPOS>MOLECULE
outputs/IAG933/test6/raw/output_2485_IAG933_linker_design_.xyz
 44 48 0 0 0
SMALL
GASTEIGER

@<TRIPOS>ATOM
      1 C         -24.8550   -1.0120   30.1430 C.3     1  UNL1        0.0438
      2 C         -24.9730   -2.5050   29.7880 C.2     1  UNL1       -0.0208
      3 C         -23.9060   -3.1730   29.1460 C.2     1  UNL1       -0.0042
      4 C         -23.9890   -4.5490   28.8530 C.2     1  UNL1       -0.0003
      5 C         -25.1370   -5.2800   29.2050 C.2     1  UNL1       -0.0000
      6 C         -26.2320   -4.6110   29.7840 C.2     1  UNL1       -0.0003
      7 C         -26.1550   -3.2320   30.0650 C.2     1  UNL1       -0.0042
      8 C         -25.3870   -0.6790   31.5710 C.3     1  UNL1        0.0791
      9 C         -25.1890    0.7730   32.0280 C.3     1  UNL1        0.0429
     10 C         -25.3360    0.6840   33.5440 C.3     1  UNL1        0.0222
     11 C         -24.8290   -0.7150   33.9050 C.3     1  UNL1        0.0888
     12 N         -24.7580   -1.4810   32.6460 N.3     1  UNL1       -0.2191
     13 C         -25.6880    1.6140   26.4610 C.2     1  UNL1        0.0407
     14 C         -26.2500    2.9200   26.3950 C.2     1  UNL1        0.0744
     15 C         -25.6420    4.0930   27.1230 C.2     1  UNL1        0.2219
     16 N         -25.6140    5.2520   26.4490 N.2     1  UNL1       -0.2357
     17 C         -25.0260    6.4790   26.9630 C.3     1  UNL1        0.1550
     18 O         -25.1430    3.9660   28.2430 O.2     1  UNL1       -0.4614
     19 C         -27.4380    3.0910   25.6450 C.2     1  UNL1        0.1068
     20 N         -28.0750    2.0890   25.0030 N.2     1  UNL1       -0.2081
     21 C         -27.5430    0.8490   25.0790 C.2     1  UNL1        0.2533
     22 O         -28.1930   -0.2080   24.4770 O.2     1  UNL1       -0.4558
     23 C         -29.4600    0.0050   23.8660 C.3     1  UNL1        0.2426
     24 C         -30.0650   -1.3770   23.5730 C.3     1  UNL1        0.2292
     25 O         -30.7290   -1.8780   24.7210 O.3     1  UNL1       -0.2162
     26 C         -26.3540    0.5760   25.7770 C.2     1  UNL1        0.1931
     27 F         -25.8600   -0.6810   25.7950 F       1  UNL1       -0.1992
     28 C         -24.9124    5.8315   33.1602 C.3     1  UNL1        0.0723
     29 C         -22.0294    0.4926   28.8181 C.2     1  UNL1        0.0201
     30 C         -27.0719    4.9435   33.7557 C.3     1  UNL1        0.0896
     31 C         -22.0913    1.8826   27.1068 C.2     1  UNL1        0.0906
     32 C         -26.4628    5.4297   31.5675 C.3     1  UNL1        0.0758
     33 C         -23.3248    2.3026   28.4369 C.2     1  UNL1        0.0367
     34 C         -25.3941    4.8068   31.1590 C.3     1  UNL1        0.0601
     35 C         -24.5132    4.7626   32.4022 C.3     1  UNL1        0.0224
     36 N         -26.2750    5.8161   32.8311 N.3     1  UNL1       -0.2714
     37 C         -21.5120    0.8889   27.6605 C.2     1  UNL1        0.0196
     38 C         -25.2935    4.1676   29.6771 C.3     1  UNL1        0.2008
     39 C         -25.8132    2.7250   29.9598 C.3     1  UNL1        0.2138
     40 C         -23.0880    1.2938   29.1525 C.2     1  UNL1        0.0774
     41 O         -27.1707    2.7363   29.5181 O.3     1  UNL1       -0.2172
     42 C         -24.8649    2.0472   30.9972 C.3     1  UNL1        0.1385
     43 N         -23.8239    1.3480   30.0822 N.2     1  UNL1       -0.2696
     44 N         -21.8946    2.5063   25.9312 N.pl3   1  UNL1       -0.1280
@<TRIPOS>BOND
     1     2     7    1
     2     2     1    1
     3     3     2    2
     4     4     3    1
     5     4     5    2
     6     5     6    1
     7     6     7    2
     8     8     1    1
     9     8     9    1
    10     8    12    1
    11     9    42    1
    12     9    10    1
    13    10    11    1
    14    12    11    1
    15    14    13    1
    16    14    15    1
    17    15    18    1
    18    16    17    1
    19    16    15    2
    20    19    14    2
    21    20    21    2
    22    20    19    1
    23    21    26    1
    24    22    21    1
    25    23    22    1
    26    24    23    1
    27    24    25    1
    28    26    27    1
    29    26    13    2
    30    29    40    1
    31    31    37    1
    32    31    33    2
    33    32    36    1
    34    33    40    1
    35    34    38    1
    36    34    32    1
    37    34    35    1
    38    35    28    1
    39    36    28    1
    40    36    30    1
    41    37    29    2
    42    38    18    1
    43    38    39    1
    44    39    41    1
    45    39    42    1
    46    40    43    2
    47    42    43    1
    48    44    31    1
