@<TRIPOS>MOLECULE
outputs/IAG933/test6/raw/output_2486_IAG933_linker_design_.xyz
 50 55 0 0 0
SMALL
GASTEIGER

@<TRIPOS>ATOM
      1 C         -24.8550   -1.0120   30.1430 C.3     1  UNL1        0.2429
      2 C         -24.9730   -2.5050   29.7880 C.2     1  UNL1        0.0254
      3 C         -23.9060   -3.1730   29.1460 C.2     1  UNL1       -0.0003
      4 C         -23.9890   -4.5490   28.8530 C.2     1  UNL1       -0.0002
      5 C         -25.1370   -5.2800   29.2050 C.2     1  UNL1       -0.0000
      6 C         -26.2320   -4.6110   29.7840 C.2     1  UNL1       -0.0002
      7 C         -26.1550   -3.2320   30.0650 C.2     1  UNL1       -0.0003
      8 C         -25.3870   -0.6790   31.5710 C.3     1  UNL1        0.1239
      9 C         -25.1890    0.7730   32.0280 C.3     1  UNL1        0.0235
     10 C         -25.3360    0.6840   33.5440 C.3     1  UNL1        0.0204
     11 C         -24.8290   -0.7150   33.9050 C.3     1  UNL1        0.0889
     12 N         -24.7580   -1.4810   32.6460 N.3     1  UNL1       -0.2149
     13 C         -25.6880    1.6140   26.4610 C.2     1  UNL1        0.0709
     14 C         -26.2500    2.9200   26.3950 C.2     1  UNL1        0.0752
     15 C         -25.6420    4.0930   27.1230 C.2     1  UNL1        0.2282
     16 N         -25.6140    5.2520   26.4490 N.2     1  UNL1       -0.2353
     17 C         -25.0260    6.4790   26.9630 C.3     1  UNL1        0.1550
     18 O         -25.1430    3.9660   28.2430 O.2     1  UNL1       -0.4228
     19 C         -27.4380    3.0910   25.6450 C.2     1  UNL1        0.1066
     20 N         -28.0750    2.0890   25.0030 N.2     1  UNL1       -0.2081
     21 C         -27.5430    0.8490   25.0790 C.2     1  UNL1        0.2531
     22 O         -28.1930   -0.2080   24.4770 O.2     1  UNL1       -0.4558
     23 C         -29.4600    0.0050   23.8660 C.3     1  UNL1        0.2426
     24 C         -30.0650   -1.3770   23.5730 C.3     1  UNL1        0.2292
     25 O         -30.7290   -1.8780   24.7210 O.3     1  UNL1       -0.2162
     26 C         -26.3540    0.5760   25.7770 C.2     1  UNL1        0.1935
     27 F         -25.8600   -0.6810   25.7950 F       1  UNL1       -0.1994
     28 C         -26.9256    6.9092   31.1057 C.3     1  UNL1        0.1137
     29 C         -28.6367    5.3450   29.4610 C.2     1  UNL1       -0.0159
     30 C         -28.2031    2.6501   29.4970 C.3     1  UNL1        0.0153
     31 C         -31.5142    3.5648   26.5695 C.3     1  UNL1        0.0000
     32 N         -23.4916   -0.4936   29.9275 N.pl3   1  UNL1       -0.0299
     33 N         -26.6307    5.5431   30.7875 N.pl3   1  UNL1       -0.2887
     34 C         -27.5262    4.8110   30.1225 C.2     1  UNL1        0.0305
     35 C         -21.9501    0.7093   28.7514 C.2     1  UNL1        0.0928
     36 C         -30.9298    4.9748   26.5624 C.3     1  UNL1        0.0003
     37 C         -21.3900    1.5270   27.8055 C.2     1  UNL1        0.0099
     38 C         -29.2740    3.1593   28.7832 C.3     1  UNL1        0.0053
     39 F         -23.4953    3.0438   25.4019 F       1  UNL1       -0.2040
     40 C         -24.3188    1.4044   26.9646 C.3     1  UNL1        0.2889
     41 C         -23.2884    2.1896   26.3892 C.2     1  UNL1        0.1706
     42 C         -25.7768    3.7184   29.4882 C.2     1  UNL1        0.2096
     43 C         -23.2672    0.2770   28.8191 C.2     1  UNL1        0.3571
     44 C         -25.3906    5.0855   30.9577 C.3     1  UNL1        0.2226
     45 C         -29.7194    5.1973   27.3050 C.3     1  UNL1        0.0044
     46 C         -29.2571    4.5436   28.5233 C.3     1  UNL1        0.0230
     47 N         -24.2443    0.4922   27.9836 N.2     1  UNL1       -0.0547
     48 C         -27.1913    3.6055   29.7193 C.3     1  UNL1        0.1116
     49 N         -24.9662    3.9756   30.4269 N.2     1  UNL1       -0.2183
     50 C         -22.0012    2.1980   26.8307 C.2     1  UNL1        0.0301
@<TRIPOS>BOND
     1     1    32    1
     2     2     7    1
     3     2     1    1
     4     3     2    2
     5     4     3    1
     6     4     5    2
     7     5     6    1
     8     6     7    2
     9     8     1    1
    10     8     9    1
    11     8    12    1
    12     9    10    1
    13    10    11    1
    14    12    11    1
    15    14    13    1
    16    14    15    1
    17    15    18    1
    18    16    17    1
    19    16    15    2
    20    18    42    1
    21    19    14    2
    22    20    21    2
    23    20    19    1
    24    21    26    1
    25    22    21    1
    26    23    22    1
    27    24    23    1
    28    24    25    1
    29    26    27    1
    30    26    13    2
    31    29    34    2
    32    33    44    1
    33    33    28    1
    34    34    33    1
    35    35    43    1
    36    36    31    1
    37    36    45    1
    38    37    35    2
    39    38    30    1
    40    39    41    1
    41    40    13    1
    42    40    47    1
    43    41    50    2
    44    41    40    1
    45    42    48    1
    46    42    49    2
    47    43    32    1
    48    46    45    1
    49    46    38    1
    50    46    29    1
    51    47    43    2
    52    48    30    1
    53    48    34    1
    54    49    44    1
    55    50    37    1
