@<TRIPOS>MOLECULE
outputs/IAG933/test6/raw/output_2487_IAG933_linker_design_.xyz
 42 45 0 0 0
SMALL
GASTEIGER

@<TRIPOS>ATOM
      1 C         -24.8550   -1.0120   30.1430 C.3     1  UNL1        0.0654
      2 C         -24.9730   -2.5050   29.7880 C.2     1  UNL1       -0.0190
      3 C         -23.9060   -3.1730   29.1460 C.2     1  UNL1       -0.0042
      4 C         -23.9890   -4.5490   28.8530 C.2     1  UNL1       -0.0003
      5 C         -25.1370   -5.2800   29.2050 C.2     1  UNL1       -0.0000
      6 C         -26.2320   -4.6110   29.7840 C.2     1  UNL1       -0.0003
      7 C         -26.1550   -3.2320   30.0650 C.2     1  UNL1       -0.0042
      8 C         -25.3870   -0.6790   31.5710 C.3     1  UNL1        0.0789
      9 C         -25.1890    0.7730   32.0280 C.3     1  UNL1        0.0193
     10 C         -25.3360    0.6840   33.5440 C.3     1  UNL1        0.0202
     11 C         -24.8290   -0.7150   33.9050 C.3     1  UNL1        0.0887
     12 N         -24.7580   -1.4810   32.6460 N.3     1  UNL1       -0.2191
     13 C         -25.6880    1.6140   26.4610 C.2     1  UNL1        0.0866
     14 C         -26.2500    2.9200   26.3950 C.2     1  UNL1        0.0899
     15 C         -25.6420    4.0930   27.1230 C.2     1  UNL1        0.2676
     16 N         -25.6140    5.2520   26.4490 N.am    1  UNL1       -0.1997
     17 C         -25.0260    6.4790   26.9630 C.3     1  UNL1        0.1388
     18 O         -25.1430    3.9660   28.2430 O.2     1  UNL1       -0.2683
     19 C         -27.4380    3.0910   25.6450 C.2     1  UNL1        0.1080
     20 N         -28.0750    2.0890   25.0030 N.2     1  UNL1       -0.2080
     21 C         -27.5430    0.8490   25.0790 C.2     1  UNL1        0.2546
     22 O         -28.1930   -0.2080   24.4770 O.2     1  UNL1       -0.4558
     23 C         -29.4600    0.0050   23.8660 C.3     1  UNL1        0.2426
     24 C         -30.0650   -1.3770   23.5730 C.3     1  UNL1        0.2292
     25 O         -30.7290   -1.8780   24.7210 O.3     1  UNL1       -0.2162
     26 C         -26.3540    0.5760   25.7770 C.2     1  UNL1        0.2063
     27 F         -25.8600   -0.6810   25.7950 F       1  UNL1       -0.1979
     28 C         -28.7282    2.0593   30.0219 C.3     1  UNL1        0.0334
     29 C         -23.1817    1.1824   26.7000 C.3     1  UNL1        0.0911
     30 O         -25.7398    3.9914   30.9430 O.2     1  UNL1       -0.2698
     31 C         -26.9079    3.5226   30.9849 C.2     1  UNL1        0.2806
     32 N         -27.7247    3.9309   31.9631 N.am    1  UNL1       -0.0863
     33 N         -26.3253    1.5139   29.5270 N.am    1  UNL1       -0.1963
     34 O         -27.5089   -0.4071   28.8571 O.2     1  UNL1       -0.2715
     35 N         -24.6812    0.9841   27.2951 N.pl3   1  UNL1       -0.2991
     36 C         -22.9093    1.2761   29.1479 C.3     1  UNL1        0.0017
     37 C         -22.2221    0.0333   29.0207 C.3     1  UNL1        0.0017
     38 C         -26.5536    0.2246   28.9905 C.2     1  UNL1        0.2602
     39 C         -27.3078    2.4917   30.0278 C.3     1  UNL1        0.1745
     40 C         -22.3016    0.7315   27.8826 C.3     1  UNL1        0.0182
     41 C         -25.0394   -0.1543   28.6998 C.3     1  UNL1        0.1569
     42 C         -21.0154    1.5597   27.8037 C.3     1  UNL1        0.0017
@<TRIPOS>BOND
     1     1    41    1
     2     2     7    1
     3     2     1    1
     4     3     2    2
     5     4     3    1
     6     4     5    2
     7     5     6    1
     8     6     7    2
     9     8     1    1
    10     8     9    1
    11     8    12    1
    12     9    10    1
    13    10    11    1
    14    12    11    1
    15    13    35    1
    16    14    13    1
    17    14    15    1
    18    15    18    2
    19    16    17    1
    20    16    15    1
    21    19    14    2
    22    20    21    2
    23    20    19    1
    24    21    26    1
    25    22    21    1
    26    23    22    1
    27    24    23    1
    28    24    25    1
    29    26    27    1
    30    26    13    2
    31    29    35    1
    32    29    40    1
    33    30    31    2
    34    31    32    1
    35    33    39    1
    36    34    38    2
    37    35    41    1
    38    37    36    1
    39    38    33    1
    40    39    28    1
    41    39    31    1
    42    40    37    1
    43    40    36    1
    44    41    38    1
    45    42    40    1
