@<TRIPOS>MOLECULE
No_2488-gen_results/8p0m/2024-11-27-11-27-31/
 12 12 0 0 0
SMALL
GASTEIGER

@<TRIPOS>ATOM
      1 C         -28.0162   -0.8135   28.8779 C.2     1  UNL1       -0.0160
      2 C         -27.0636   -0.1189   28.6079 C.2     1  UNL1       -0.0471
      3 C         -26.8756    1.1325   28.9134 C.3     1  UNL1        0.0228
      4 C         -25.6883    1.9515   28.5672 C.3     1  UNL1        0.0194
      5 C         -24.6394    1.2834   27.8753 C.3     1  UNL1        0.0921
      6 C         -23.4556    1.9996   27.5653 C.1     1  UNL1        0.0721
      7 C         -25.8432   -0.7373   27.9210 C.3     1  UNL1        0.0228
      8 C         -24.6903   -0.0521   27.5832 C.3     1  UNL1        0.0194
      9 N         -22.2280    2.1389   27.8751 N.1     1  UNL1       -0.1959
     10 C         -27.8925   -1.3835   30.3421 C.3     1  UNL1        0.1132
     11 C         -28.8902   -1.1951   31.1830 C.3     1  UNL1        0.0253
     12 N         -27.5799   -2.8431   30.2427 N.3     1  UNL1       -0.1282
@<TRIPOS>BOND
     1     1     2    2
     2     2     3    1
     3     3     4    1
     4     4     5    1
     5     5     6    1
     6     2     7    1
     7     5     8    1
     8     7     8    1
     9     6     9    3
    10     1    10    1
    11    10    11    1
    12    10    12    1
