@<TRIPOS>MOLECULE
outputs/IAG933/test6/raw/output_2490_IAG933_linker_design_.xyz
 43 47 0 0 0
SMALL
GASTEIGER

@<TRIPOS>ATOM
      1 C         -24.8550   -1.0120   30.1430 C.3     1  UNL1        0.1139
      2 C         -24.9730   -2.5050   29.7880 C.2     1  UNL1       -0.0050
      3 C         -23.9060   -3.1730   29.1460 C.2     1  UNL1       -0.0029
      4 C         -23.9890   -4.5490   28.8530 C.2     1  UNL1       -0.0003
      5 C         -25.1370   -5.2800   29.2050 C.2     1  UNL1       -0.0000
      6 C         -26.2320   -4.6110   29.7840 C.2     1  UNL1       -0.0003
      7 C         -26.1550   -3.2320   30.0650 C.2     1  UNL1       -0.0029
      8 C         -25.3870   -0.6790   31.5710 C.3     1  UNL1        0.0930
      9 C         -25.1890    0.7730   32.0280 C.3     1  UNL1        0.0206
     10 C         -25.3360    0.6840   33.5440 C.3     1  UNL1        0.0203
     11 C         -24.8290   -0.7150   33.9050 C.3     1  UNL1        0.0888
     12 N         -24.7580   -1.4810   32.6460 N.3     1  UNL1       -0.2177
     13 C         -25.6880    1.6140   26.4610 C.3     1  UNL1        0.1309
     14 C         -26.2500    2.9200   26.3950 C.2     1  UNL1        0.0697
     15 C         -25.6420    4.0930   27.1230 C.2     1  UNL1        0.2637
     16 N         -25.6140    5.2520   26.4490 N.am    1  UNL1       -0.2000
     17 C         -25.0260    6.4790   26.9630 C.3     1  UNL1        0.1388
     18 O         -25.1430    3.9660   28.2430 O.2     1  UNL1       -0.2686
     19 C         -27.4380    3.0910   25.6450 C.2     1  UNL1        0.1035
     20 N         -28.0750    2.0890   25.0030 N.2     1  UNL1       -0.2118
     21 C         -27.5430    0.8490   25.0790 C.2     1  UNL1        0.2355
     22 O         -28.1930   -0.2080   24.4770 O.2     1  UNL1       -0.4585
     23 C         -29.4600    0.0050   23.8660 C.3     1  UNL1        0.2423
     24 C         -30.0650   -1.3770   23.5730 C.3     1  UNL1        0.2292
     25 O         -30.7290   -1.8780   24.7210 O.3     1  UNL1       -0.2162
     26 C         -26.3540    0.5760   25.7770 C.3     1  UNL1        0.2547
     27 F         -25.8600   -0.6810   25.7950 F       1  UNL1       -0.2254
     28 C         -25.6587    0.6630   28.5675 C.3     1  UNL1        0.1584
     29 N         -24.7520    0.0626   29.1591 N.3     1  UNL1       -0.1807
     30 C         -23.5120    1.2410   27.6608 C.3     1  UNL1        0.2062
     31 C         -22.6977    1.8574   25.4468 C.2     1  UNL1        0.3045
     32 N         -23.3602    0.4220   28.6765 N.3     1  UNL1       -0.1227
     33 C         -28.5097    2.1405   30.5275 C.2     1  UNL1       -0.0002
     34 C         -26.9838    0.8819   29.0485 C.2     1  UNL1        0.0088
     35 C         -29.3441    0.2127   29.3237 C.2     1  UNL1       -0.0002
     36 C         -28.0638    0.0156   28.7665 C.2     1  UNL1       -0.0016
     37 C         -29.5582    1.2609   30.2475 C.2     1  UNL1       -0.0000
     38 F         -21.8142    2.2804   24.6229 F       1  UNL1       -0.1698
     39 N         -24.8865    1.2259   27.4683 N.3     1  UNL1       -0.2314
     40 F         -21.3012    2.1397   27.3700 F       1  UNL1       -0.2010
     41 C         -22.5084    1.7626   26.8501 C.2     1  UNL1        0.2057
     42 F         -23.7346    1.5506   24.8153 F       1  UNL1       -0.1698
     43 C         -27.2889    2.0285   29.8481 C.2     1  UNL1       -0.0016
@<TRIPOS>BOND
     1     1     2    1
     2     2     7    1
     3     3     2    2
     4     4     3    1
     5     4     5    2
     6     5     6    1
     7     6     7    2
     8     8     1    1
     9     8     9    1
    10     8    12    1
    11     9    10    1
    12    10    11    1
    13    12    11    1
    14    13    14    1
    15    14    15    1
    16    15    18    2
    17    16    17    1
    18    16    15    1
    19    19    14    2
    20    20    21    2
    21    20    19    1
    22    21    26    1
    23    22    21    1
    24    23    22    1
    25    24    23    1
    26    24    25    1
    27    26    27    1
    28    26    13    1
    29    28    34    1
    30    28    29    1
    31    29     1    1
    32    30    41    1
    33    30    32    1
    34    31    41    2
    35    32    29    1
    36    34    43    1
    37    35    37    2
    38    36    34    2
    39    36    35    1
    40    37    33    1
    41    38    31    1
    42    39    13    1
    43    39    30    1
    44    39    28    1
    45    41    40    1
    46    42    31    1
    47    43    33    2
