@<TRIPOS>MOLECULE
No_2491-gen_results/8p0m/2024-11-27-11-27-31/
 16 17 0 0 0
SMALL
GASTEIGER

@<TRIPOS>ATOM
      1 C         -28.0162   -0.8135   28.8779 C.ar    1  UNL1       -0.0003
      2 C         -28.4690   -0.7850   29.8287 C.ar    1  UNL1       -0.0000
      3 C         -26.5455   -0.8762   28.8500 C.ar    1  UNL1       -0.0043
      4 C         -25.8041   -1.0324   30.0571 C.ar    1  UNL1       -0.0218
      5 C         -26.5373   -1.0386   31.2171 C.ar    1  UNL1       -0.0043
      6 C         -27.8843   -0.9532   31.1862 C.ar    1  UNL1       -0.0003
      7 C         -24.3655   -1.1134   30.0483 C.3     1  UNL1        0.0310
      8 C         -23.6925    0.1188   29.9185 C.3     1  UNL1        0.0307
      9 C         -23.1776    0.5817   28.7884 C.2     1  UNL1       -0.0258
     10 C         -23.0256    1.9043   28.3707 C.2     1  UNL1       -0.0046
     11 C         -24.0281    2.3124   27.6835 C.ar    1  UNL1       -0.0003
     12 C         -24.4066    3.6871   27.7228 C.ar    1  UNL1       -0.0000
     13 C         -24.5544    1.5249   26.6536 C.ar    1  UNL1       -0.0000
     14 C         -25.6533    1.8690   26.1232 C.ar    1  UNL1       -0.0000
     15 C         -25.5559    4.0930   26.9957 C.ar    1  UNL1       -0.0000
     16 C         -26.1712    3.1721   26.1391 C.ar    1  UNL1       -0.0000
@<TRIPOS>BOND
     1     4     7    1
     2     7     8    1
     3     8     9    1
     4     9    10    2
     5    10    11    1
     6    11    12   ar
     7    12    15   ar
     8    15    16   ar
     9    16    14   ar
    10    14    13   ar
    11    13    11   ar
    12     1     2   ar
    13     2     6   ar
    14     6     5   ar
    15     5     4   ar
    16     4     3   ar
    17     3     1   ar
