@<TRIPOS>MOLECULE
No_2492-gen_results/8p0m/2024-11-27-11-27-31/
 35 39 0 0 0
SMALL
GASTEIGER

@<TRIPOS>ATOM
      1 C         -28.0162   -0.8135   28.8779 C.ar    1  UNL1        0.0023
      2 C         -27.0636   -0.1189   28.6079 C.ar    1  UNL1       -0.0002
      3 C         -26.9716    0.7139   27.5060 C.ar    1  UNL1       -0.0017
      4 C         -28.1053    0.7744   26.6421 C.ar    1  UNL1        0.0091
      5 C         -29.2008    0.1044   27.0527 C.ar    1  UNL1        0.1364
      6 C         -29.2096   -0.6029   28.1853 C.ar    1  UNL1        0.0293
      7 F         -30.2808    0.2156   26.2913 F       1  UNL1       -0.2045
      8 C         -25.7162   -0.2143   29.4079 C.ar    1  UNL1       -0.0000
      9 C         -25.4115   -1.0242   30.0565 C.ar    1  UNL1       -0.0000
     10 C         -24.1408   -1.1410   30.8368 C.ar    1  UNL1       -0.0000
     11 C         -23.1947   -0.1347   30.6608 C.ar    1  UNL1        0.0000
     12 C         -23.5357    0.9137   29.7572 C.ar    1  UNL1       -0.0000
     13 C         -24.8090    0.9435   29.0845 C.ar    1  UNL1       -0.0000
     14 C         -28.0271    1.6507   25.4694 C.3     1  UNL1        0.0497
     15 C         -28.0938    2.7652   25.5599 C.ar    1  UNL1       -0.0046
     16 C         -27.9760    0.8948   24.2287 C.3     1  UNL1        0.0307
     17 C         -27.6413    3.6264   26.6858 C.ar    1  UNL1       -0.0027
     18 C         -28.2743    4.8612   26.9830 C.ar    1  UNL1       -0.0002
     19 C         -29.1541    5.3382   25.9857 C.ar    1  UNL1        0.0013
     20 C         -29.6426    4.5682   24.9884 C.ar    1  UNL1        0.0146
     21 C         -29.1594    3.4075   24.8281 C.ar    1  UNL1        0.0502
     22 N         -29.6379    2.6815   23.7782 N.am    1  UNL1       -0.2578
     23 C         -29.0669    1.4889   23.4226 C.3     1  UNL1        0.0989
     24 C         -30.7630    3.0548   22.9604 C.2     1  UNL1        0.2466
     25 C         -31.9423    3.4983   23.6543 C.3     1  UNL1        0.1681
     26 N         -32.9185    3.9635   22.9965 N.3     1  UNL1       -0.2643
     27 C         -33.8392    4.8607   23.4023 C.3     1  UNL1        0.0726
     28 C         -33.8750    5.0393   24.8162 C.3     1  UNL1        0.0201
     29 C         -32.8875    4.4787   25.6266 C.3     1  UNL1        0.0359
     30 C         -31.8829    3.7687   25.0797 C.3     1  UNL1        0.1842
     31 F         -32.2249    2.5019   25.6253 F       1  UNL1       -0.2353
     32 C         -33.4552    4.0777   26.9807 C.3     1  UNL1        0.0029
     33 C         -32.9647    3.7304   21.4980 C.3     1  UNL1        0.0726
     34 O         -30.7218    2.7385   21.7896 O.2     1  UNL1       -0.2730
     35 C         -33.6839    2.6810   21.1110 C.3     1  UNL1        0.0188
@<TRIPOS>BOND
     1     5     7    1
     2     2     8    1
     3     4    14    1
     4    14    15    1
     5    14    16    1
     6    21    22    1
     7    16    23    1
     8    22    23    1
     9    22    24   am
    10    24    25    1
    11    25    26    1
    12    26    27    1
    13    28    29    1
    14    25    30    1
    15    29    30    1
    16    30    31    1
    17    29    32    1
    18    26    33    1
    19    24    34    2
    20    33    35    1
    21    28    27    1
    22     1     2   ar
    23     2     3   ar
    24     3     4   ar
    25     4     5   ar
    26     5     6   ar
    27     6     1   ar
    28    15    17   ar
    29    17    18   ar
    30    18    19   ar
    31    19    20   ar
    32    20    21   ar
    33    21    15   ar
    34     8     9   ar
    35     9    10   ar
    36    10    11   ar
    37    11    12   ar
    38    12    13   ar
    39    13     8   ar
