@<TRIPOS>MOLECULE
No_2493-gen_results/8p0m/2024-11-27-11-27-31/
 9 9 0 0 0
SMALL
GASTEIGER

@<TRIPOS>ATOM
      1 C         -28.0162   -0.8135   28.8779 C.ar    1  UNL1        0.0066
      2 C         -28.4690   -0.7850   29.8287 C.ar    1  UNL1        0.0798
      3 C         -27.0871    0.2903   28.6377 C.ar    1  UNL1        0.0002
      4 C         -26.8317    1.2487   29.5869 C.ar    1  UNL1        0.0000
      5 C         -29.4442   -1.9481   30.1840 C.2     1  UNL1        0.3878
      6 C         -27.4956    1.1303   30.8222 C.ar    1  UNL1        0.0002
      7 C         -28.3376    0.0364   31.0331 C.ar    1  UNL1        0.0066
      8 O         -30.3927   -1.8339   29.8638 O.co2   1  UNL1       -0.2406
      9 O         -28.9097   -3.0039   30.8383 O.co2   1  UNL1       -0.2406
@<TRIPOS>BOND
     1     2     5    1
     2     5     8   ar
     3     5     9   ar
     4     1     2   ar
     5     2     7   ar
     6     7     6   ar
     7     6     4   ar
     8     4     3   ar
     9     3     1   ar
