@<TRIPOS>MOLECULE
No_2496-gen_results/8p0m/2024-11-27-11-27-31/
 27 29 0 0 0
SMALL
GASTEIGER

@<TRIPOS>ATOM
      1 C         -28.0162   -0.8135   28.8779 C.2     1  UNL1        0.2647
      2 C         -27.0636   -0.1190   28.6079 C.ar    1  UNL1        0.0550
      3 C         -27.0010    0.6913   27.4910 C.ar    1  UNL1        0.0045
      4 C         -25.8548    1.4825   27.0830 C.ar    1  UNL1        0.0040
      5 C         -24.9008    1.3893   27.5922 C.ar    1  UNL1        0.0714
      6 C         -24.6783    0.5764   28.8299 C.ar    1  UNL1        0.0040
      7 C         -25.7704   -0.2051   29.2800 C.ar    1  UNL1        0.0045
      8 N         -27.8865   -1.5554   30.0331 N.am    1  UNL1       -0.2030
      9 O         -29.1686   -0.6321   28.4890 O.2     1  UNL1       -0.2684
     10 C         -28.9941   -2.4320   30.5741 C.3     1  UNL1        0.1025
     11 C         -23.7578    2.3490   27.2199 C.3     1  UNL1        0.4186
     12 F         -22.9817    2.6445   28.1739 F       1  UNL1       -0.1659
     13 F         -24.1535    3.4846   26.7688 F       1  UNL1       -0.1659
     14 F         -22.9508    1.7633   26.2717 F       1  UNL1       -0.1659
     15 C         -28.8017   -3.7882   30.2873 C.3     1  UNL1        0.0539
     16 C         -30.0226   -4.5665   30.0862 C.3     1  UNL1        0.1358
     17 BR        -30.8489   -5.1367   29.0710 Br      1  UNL1       -0.0591
     18 N         -30.3777   -4.9532   31.5742 N.pl3   1  UNL1       -0.2777
     19 C         -30.7500   -4.0965   32.4075 C.2     1  UNL1        0.0614
     20 C         -29.9173   -1.8505   31.4223 C.3     1  UNL1        0.0491
     21 C         -30.3238   -2.7460   32.5780 C.2     1  UNL1       -0.0083
     22 C         -30.2581   -6.3717   31.8376 C.ar    1  UNL1        0.0522
     23 C         -29.8918   -6.7110   33.0701 C.ar    1  UNL1        0.0148
     24 C         -30.6306   -7.4140   33.7074 C.ar    1  UNL1        0.0013
     25 C         -31.4912   -8.4116   33.0516 C.ar    1  UNL1        0.0001
     26 C         -31.7269   -8.1453   31.6737 C.ar    1  UNL1        0.0013
     27 C         -31.1535   -7.1789   31.1818 C.ar    1  UNL1        0.0148
@<TRIPOS>BOND
     1     1     2    1
     2     1     8   am
     3     1     9    2
     4     8    10    1
     5     5    11    1
     6    11    12    1
     7    11    13    1
     8    11    14    1
     9    10    15    1
    10    15    16    1
    11    16    17    1
    12    16    18    1
    13    18    19    1
    14    10    20    1
    15    19    21    2
    16    20    21    1
    17    18    22    1
    18     2     3   ar
    19     3     4   ar
    20     4     5   ar
    21     5     6   ar
    22     6     7   ar
    23     7     2   ar
    24    22    23   ar
    25    23    24   ar
    26    24    25   ar
    27    25    26   ar
    28    26    27   ar
    29    27    22   ar
