@<TRIPOS>MOLECULE
outputs/IAG933/test6/raw/output_2497_IAG933_linker_design_.xyz
 43 47 0 0 0
SMALL
GASTEIGER

@<TRIPOS>ATOM
      1 C         -24.8550   -1.0120   30.1430 C.3     1  UNL1        0.1120
      2 C         -24.9730   -2.5050   29.7880 C.2     1  UNL1       -0.0030
      3 C         -23.9060   -3.1730   29.1460 C.2     1  UNL1       -0.0026
      4 C         -23.9890   -4.5490   28.8530 C.2     1  UNL1       -0.0003
      5 C         -25.1370   -5.2800   29.2050 C.2     1  UNL1       -0.0000
      6 C         -26.2320   -4.6110   29.7840 C.2     1  UNL1       -0.0003
      7 C         -26.1550   -3.2320   30.0650 C.2     1  UNL1       -0.0026
      8 C         -25.3870   -0.6790   31.5710 C.3     1  UNL1        0.0951
      9 C         -25.1890    0.7730   32.0280 C.3     1  UNL1        0.0209
     10 C         -25.3360    0.6840   33.5440 C.3     1  UNL1        0.0203
     11 C         -24.8290   -0.7150   33.9050 C.3     1  UNL1        0.0888
     12 N         -24.7580   -1.4810   32.6460 N.3     1  UNL1       -0.2174
     13 C         -25.6880    1.6140   26.4610 C.3     1  UNL1        0.0947
     14 C         -26.2500    2.9200   26.3950 C.2     1  UNL1        0.0590
     15 C         -25.6420    4.0930   27.1230 C.2     1  UNL1        0.2628
     16 N         -25.6140    5.2520   26.4490 N.am    1  UNL1       -0.2000
     17 C         -25.0260    6.4790   26.9630 C.3     1  UNL1        0.1388
     18 O         -25.1430    3.9660   28.2430 O.2     1  UNL1       -0.2686
     19 C         -27.4380    3.0910   25.6450 C.2     1  UNL1        0.1025
     20 N         -28.0750    2.0890   25.0030 N.2     1  UNL1       -0.2118
     21 C         -27.5430    0.8490   25.0790 C.2     1  UNL1        0.2344
     22 O         -28.1930   -0.2080   24.4770 O.2     1  UNL1       -0.4585
     23 C         -29.4600    0.0050   23.8660 C.3     1  UNL1        0.2423
     24 C         -30.0650   -1.3770   23.5730 C.3     1  UNL1        0.2292
     25 O         -30.7290   -1.8780   24.7210 O.3     1  UNL1       -0.2162
     26 C         -26.3540    0.5760   25.7770 C.3     1  UNL1        0.2441
     27 F         -25.8600   -0.6810   25.7950 F       1  UNL1       -0.2265
     28 N         -29.8349    0.6827   29.1708 N.3     1  UNL1       -0.2641
     29 C         -24.9110    1.1821   27.4816 C.2     1  UNL1        0.0137
     30 CL        -22.5511    2.0003   25.9456 Cl      1  UNL1       -0.0855
     31 C         -29.4389    2.1294   28.9405 C.3     1  UNL1        0.1049
     32 C         -23.3460    1.2083   27.2028 C.2     1  UNL1        0.0516
     33 C         -21.4412    0.7703   28.4943 C.3     1  UNL1        0.0273
     34 N         -24.2507   -0.0268   29.2225 N.pl3   1  UNL1       -0.2955
     35 C         -31.2274    0.1949   28.8637 C.3     1  UNL1        0.1049
     36 C         -26.7100    0.2250   28.8498 C.1     1  UNL1       -0.0901
     37 C         -27.7780   -0.4753   28.8309 C.2     1  UNL1        0.0339
     38 C         -31.6655    0.8823   27.5294 C.3     1  UNL1        0.1595
     39 C         -29.1278   -0.1080   28.1092 C.3     1  UNL1        0.1073
     40 C         -25.2954    0.5095   28.5666 C.2     1  UNL1        0.0803
     41 C         -30.6903    2.9512   28.4447 C.3     1  UNL1        0.1595
     42 O         -31.6851    2.2777   27.7551 O.3     1  UNL1       -0.3508
     43 C         -22.9276    0.2804   28.3472 C.3     1  UNL1        0.1064
@<TRIPOS>BOND
     1     1     2    1
     2     2     7    1
     3     3     2    2
     4     4     3    1
     5     4     5    2
     6     5     6    1
     7     6     7    2
     8     8     1    1
     9     8     9    1
    10     8    12    1
    11     9    10    1
    12    10    11    1
    13    12    11    1
    14    13    29    1
    15    14    13    1
    16    14    15    1
    17    15    18    2
    18    16    17    1
    19    16    15    1
    20    19    14    2
    21    20    21    2
    22    20    19    1
    23    21    26    1
    24    22    21    1
    25    23    22    1
    26    24    23    1
    27    24    25    1
    28    26    27    1
    29    26    13    1
    30    29    40    1
    31    30    32    1
    32    31    28    1
    33    32    29    2
    34    32    43    1
    35    34     1    1
    36    35    28    1
    37    37    36    2
    38    38    42    1
    39    38    35    1
    40    39    37    1
    41    39    28    1
    42    40    36    2
    43    40    34    1
    44    41    31    1
    45    42    41    1
    46    43    33    1
    47    43    34    1
