@<TRIPOS>MOLECULE
outputs/IAG933/test6/raw/output_2498_IAG933_linker_design_.xyz
 45 50 0 0 0
SMALL
GASTEIGER

@<TRIPOS>ATOM
      1 C         -24.8550   -1.0120   30.1430 C.3     1  UNL1        0.0942
      2 C         -24.9730   -2.5050   29.7880 C.2     1  UNL1       -0.0161
      3 C         -23.9060   -3.1730   29.1460 C.2     1  UNL1       -0.0041
      4 C         -23.9890   -4.5490   28.8530 C.2     1  UNL1       -0.0003
      5 C         -25.1370   -5.2800   29.2050 C.2     1  UNL1       -0.0000
      6 C         -26.2320   -4.6110   29.7840 C.2     1  UNL1       -0.0003
      7 C         -26.1550   -3.2320   30.0650 C.2     1  UNL1       -0.0041
      8 C         -25.3870   -0.6790   31.5710 C.3     1  UNL1        0.0843
      9 C         -25.1890    0.7730   32.0280 C.3     1  UNL1        0.0482
     10 C         -25.3360    0.6840   33.5440 C.3     1  UNL1        0.0227
     11 C         -24.8290   -0.7150   33.9050 C.3     1  UNL1        0.0888
     12 N         -24.7580   -1.4810   32.6460 N.3     1  UNL1       -0.2189
     13 C         -25.6880    1.6140   26.4610 C.3     1  UNL1        0.0953
     14 C         -26.2500    2.9200   26.3950 C.2     1  UNL1        0.0590
     15 C         -25.6420    4.0930   27.1230 C.2     1  UNL1        0.2628
     16 N         -25.6140    5.2520   26.4490 N.am    1  UNL1       -0.2000
     17 C         -25.0260    6.4790   26.9630 C.3     1  UNL1        0.1388
     18 O         -25.1430    3.9660   28.2430 O.2     1  UNL1       -0.2686
     19 C         -27.4380    3.0910   25.6450 C.2     1  UNL1        0.1025
     20 N         -28.0750    2.0890   25.0030 N.2     1  UNL1       -0.2118
     21 C         -27.5430    0.8490   25.0790 C.2     1  UNL1        0.2344
     22 O         -28.1930   -0.2080   24.4770 O.2     1  UNL1       -0.4585
     23 C         -29.4600    0.0050   23.8660 C.3     1  UNL1        0.2423
     24 C         -30.0650   -1.3770   23.5730 C.3     1  UNL1        0.2292
     25 O         -30.7290   -1.8780   24.7210 O.3     1  UNL1       -0.2162
     26 C         -26.3540    0.5760   25.7770 C.3     1  UNL1        0.2441
     27 F         -25.8600   -0.6810   25.7950 F       1  UNL1       -0.2265
     28 C         -23.2508    2.3269   25.7294 C.2     1  UNL1        0.1750
     29 C         -22.0859    1.2065   27.3792 C.2     1  UNL1        0.1257
     30 C         -20.8967    0.6444   28.1025 C.3     1  UNL1        0.0964
     31 C         -25.7672    3.0920   31.3672 C.3     1  UNL1        0.1987
     32 F         -24.9195    5.4034   31.7943 F       1  UNL1       -0.1543
     33 N         -27.1727    3.0617   30.9814 N.3     1  UNL1       -0.1108
     34 N         -25.7135    3.5944   32.6853 N.3     1  UNL1       -0.1100
     35 F         -25.2099    5.8545   33.5814 F       1  UNL1       -0.1543
     36 C         -21.3768   -0.4211   29.0924 C.3     1  UNL1        0.1529
     37 F         -26.9802    5.4330   32.5837 F       1  UNL1       -0.1543
     38 C         -25.7070    5.0720   32.7102 C.3     1  UNL1        0.4771
     39 C         -23.4597    0.9231   27.7916 C.2     1  UNL1        0.0586
     40 C         -25.0068    1.6128   30.6849 C.3     1  UNL1        0.1534
     41 O         -21.9747    2.0338   26.2903 O.2     1  UNL1       -0.4551
     42 O         -22.5035   -0.0984   29.8893 O.3     1  UNL1       -0.3300
     43 O         -25.0845    1.2801   29.1443 O.3     1  UNL1       -0.3300
     44 C         -23.9242    0.1321   29.0725 C.3     1  UNL1        0.2144
     45 C         -24.2312    1.5769   26.6999 C.2     1  UNL1        0.0257
@<TRIPOS>BOND
     1     1     2    1
     2     1     8    1
     3     2     7    1
     4     3     2    2
     5     4     3    1
     6     4     5    2
     7     5     6    1
     8     6     7    2
     9     8     9    1
    10     8    12    1
    11     9    10    1
    12    10    11    1
    13    12    11    1
    14    13    45    1
    15    14    13    1
    16    14    15    1
    17    15    18    2
    18    16    17    1
    19    16    15    1
    20    19    14    2
    21    20    21    2
    22    20    19    1
    23    21    26    1
    24    22    21    1
    25    23    22    1
    26    24    23    1
    27    24    25    1
    28    26    27    1
    29    26    13    1
    30    28    41    1
    31    28    45    2
    32    29    39    2
    33    29    30    1
    34    30    36    1
    35    31    33    1
    36    31    34    1
    37    32    38    1
    38    34    38    1
    39    36    42    1
    40    37    38    1
    41    38    35    1
    42    40    31    1
    43    40     9    1
    44    41    29    1
    45    43    40    1
    46    44    39    1
    47    44    43    1
    48    44    42    1
    49    44     1    1
    50    45    39    1
