@<TRIPOS>MOLECULE
outputs/IAG933/test6/raw/output_25_IAG933_linker_design_.xyz
 41 44 0 0 0
SMALL
GASTEIGER

@<TRIPOS>ATOM
      1 C         -24.8550   -1.0120   30.1430 C.3     1  UNL1        0.1196
      2 C         -24.9730   -2.5050   29.7880 C.2     1  UNL1       -0.0024
      3 C         -23.9060   -3.1730   29.1460 C.2     1  UNL1       -0.0026
      4 C         -23.9890   -4.5490   28.8530 C.2     1  UNL1       -0.0003
      5 C         -25.1370   -5.2800   29.2050 C.2     1  UNL1       -0.0000
      6 C         -26.2320   -4.6110   29.7840 C.2     1  UNL1       -0.0003
      7 C         -26.1550   -3.2320   30.0650 C.2     1  UNL1       -0.0026
      8 C         -25.3870   -0.6790   31.5710 C.3     1  UNL1        0.0957
      9 C         -25.1890    0.7730   32.0280 C.3     1  UNL1        0.0209
     10 C         -25.3360    0.6840   33.5440 C.3     1  UNL1        0.0203
     11 C         -24.8290   -0.7150   33.9050 C.3     1  UNL1        0.0888
     12 N         -24.7580   -1.4810   32.6460 N.3     1  UNL1       -0.2174
     13 C         -25.6880    1.6140   26.4610 C.2     1  UNL1        0.0249
     14 C         -26.2500    2.9200   26.3950 C.2     1  UNL1        0.0730
     15 C         -25.6420    4.0930   27.1230 C.2     1  UNL1        0.2661
     16 N         -25.6140    5.2520   26.4490 N.am    1  UNL1       -0.1997
     17 C         -25.0260    6.4790   26.9630 C.3     1  UNL1        0.1388
     18 O         -25.1430    3.9660   28.2430 O.2     1  UNL1       -0.2683
     19 C         -27.4380    3.0910   25.6450 C.2     1  UNL1        0.1064
     20 N         -28.0750    2.0890   25.0030 N.2     1  UNL1       -0.2081
     21 C         -27.5430    0.8490   25.0790 C.2     1  UNL1        0.2530
     22 O         -28.1930   -0.2080   24.4770 O.2     1  UNL1       -0.4558
     23 C         -29.4600    0.0050   23.8660 C.3     1  UNL1        0.2426
     24 C         -30.0650   -1.3770   23.5730 C.3     1  UNL1        0.2292
     25 O         -30.7290   -1.8780   24.7210 O.3     1  UNL1       -0.2162
     26 C         -26.3540    0.5760   25.7770 C.2     1  UNL1        0.1896
     27 F         -25.8600   -0.6810   25.7950 F       1  UNL1       -0.1996
     28 C         -20.9261    0.9048   28.0431 C.3     1  UNL1        0.3368
     29 C         -24.5836    1.3593   27.4989 C.3     1  UNL1        0.1117
     30 O         -28.8959   -1.0287   28.2492 O.3     1  UNL1       -0.1273
     31 C         -26.6958   -0.2384   28.6763 C.1     1  UNL1        0.0336
     32 F         -22.6286   -0.1629   30.1774 F       1  UNL1       -0.2072
     33 C         -24.4968    0.8494   28.9919 C.3     1  UNL1        0.1424
     34 F         -20.3762    1.9217   27.5299 F       1  UNL1       -0.1957
     35 C         -23.1403    0.4700   29.1449 C.2     1  UNL1        0.1407
     36 C         -27.8381   -0.5902   28.4396 C.1     1  UNL1        0.1140
     37 N         -25.4474   -0.1595   29.1502 N.pl3   1  UNL1       -0.2577
     38 C         -23.2352    1.5970   27.1868 C.2     1  UNL1        0.1818
     39 C         -22.3281    0.9186   28.1293 C.2     1  UNL1        0.1012
     40 O         -20.1784   -0.1019   28.4967 O.3     1  UNL1       -0.1789
     41 O         -22.8018    2.3263   26.2609 O.2     1  UNL1       -0.2910
@<TRIPOS>BOND
     1     1    37    1
     2     2     7    1
     3     2     1    1
     4     3     2    2
     5     4     3    1
     6     4     5    2
     7     5     6    1
     8     6     7    2
     9     8     1    1
    10     8     9    1
    11     8    12    1
    12     9    10    1
    13    10    11    1
    14    12    11    1
    15    14    13    1
    16    14    15    1
    17    15    18    2
    18    16    17    1
    19    16    15    1
    20    19    14    2
    21    20    21    2
    22    20    19    1
    23    21    26    1
    24    22    21    1
    25    23    22    1
    26    24    23    1
    27    24    25    1
    28    26    27    1
    29    26    13    2
    30    28    34    1
    31    28    39    1
    32    28    40    1
    33    29    13    1
    34    29    33    1
    35    30    36    1
    36    31    37    1
    37    33    35    1
    38    33    37    1
    39    35    32    1
    40    36    31    3
    41    38    29    1
    42    38    39    1
    43    39    35    2
    44    41    38    2
