@<TRIPOS>MOLECULE
No_250-gen_results/8p0m/2024-11-27-11-27-31/
 20 21 0 0 0
SMALL
GASTEIGER

@<TRIPOS>ATOM
      1 C         -28.0162   -0.8135   28.8779 C.ar    1  UNL1        0.0111
      2 C         -28.4690   -0.7850   29.8287 C.ar    1  UNL1        0.0577
      3 C         -26.5042   -0.7777   28.8766 C.ar    1  UNL1       -0.0031
      4 C         -25.8103   -0.8531   30.1028 C.ar    1  UNL1       -0.0190
      5 C         -27.9906   -0.8916   31.2257 C.ar    1  UNL1        0.0111
      6 C         -26.6042   -0.8676   31.2652 C.ar    1  UNL1       -0.0031
      7 CL        -30.2937   -0.8377   29.8355 Cl      1  UNL1       -0.0822
      8 C         -24.3700   -0.8208   30.1393 C.3     1  UNL1        0.0377
      9 C         -23.6317   -0.3592   29.1003 C.ar    1  UNL1       -0.0191
     10 C         -22.2244   -0.3444   29.2073 C.ar    1  UNL1       -0.0040
     11 C         -21.4445    0.1931   28.1507 C.ar    1  UNL1       -0.0004
     12 C         -22.0444    1.1619   27.3082 C.ar    1  UNL1        0.0038
     13 C         -23.4481    1.3455   27.3633 C.ar    1  UNL1        0.0711
     14 C         -24.2304    0.7111   28.3200 C.ar    1  UNL1       -0.0001
     15 C         -23.9705    2.3843   26.4448 C.3     1  UNL1        0.4186
     16 F         -24.7242    3.0544   26.7656 F       1  UNL1       -0.1659
     17 F         -24.3538    1.5977   25.3312 F       1  UNL1       -0.1659
     18 F         -22.8910    3.0187   25.7633 F       1  UNL1       -0.1659
     19 C         -23.9438   -0.2555   31.4887 C.3     1  UNL1        0.0088
     20 C         -24.0451   -2.4510   30.0944 C.3     1  UNL1        0.0088
@<TRIPOS>BOND
     1     2     7    1
     2     4     8    1
     3     8     9    1
     4    13    15    1
     5    15    16    1
     6    15    17    1
     7    15    18    1
     8     8    19    1
     9     8    20    1
    10     9    10   ar
    11    10    11   ar
    12    11    12   ar
    13    12    13   ar
    14    13    14   ar
    15    14     9   ar
    16     1     2   ar
    17     2     5   ar
    18     5     6   ar
    19     6     4   ar
    20     4     3   ar
    21     3     1   ar
