@<TRIPOS>MOLECULE
outputs/IAG933/test6/raw/output_2500_IAG933_linker_design_.xyz
 42 46 0 0 0
SMALL
GASTEIGER

@<TRIPOS>ATOM
      1 C         -24.8550   -1.0120   30.1430 C.3     1  UNL1        0.0968
      2 C         -24.9730   -2.5050   29.7880 C.2     1  UNL1       -0.0064
      3 C         -23.9060   -3.1730   29.1460 C.2     1  UNL1       -0.0029
      4 C         -23.9890   -4.5490   28.8530 C.2     1  UNL1       -0.0003
      5 C         -25.1370   -5.2800   29.2050 C.2     1  UNL1       -0.0000
      6 C         -26.2320   -4.6110   29.7840 C.2     1  UNL1       -0.0003
      7 C         -26.1550   -3.2320   30.0650 C.2     1  UNL1       -0.0029
      8 C         -25.3870   -0.6790   31.5710 C.3     1  UNL1        0.0916
      9 C         -25.1890    0.7730   32.0280 C.3     1  UNL1        0.0206
     10 C         -25.3360    0.6840   33.5440 C.3     1  UNL1        0.0203
     11 C         -24.8290   -0.7150   33.9050 C.3     1  UNL1        0.0888
     12 N         -24.7580   -1.4810   32.6460 N.3     1  UNL1       -0.2178
     13 C         -25.6880    1.6140   26.4610 C.3     1  UNL1        0.0900
     14 C         -26.2500    2.9200   26.3950 C.2     1  UNL1        0.0586
     15 C         -25.6420    4.0930   27.1230 C.2     1  UNL1        0.2627
     16 N         -25.6140    5.2520   26.4490 N.am    1  UNL1       -0.2000
     17 C         -25.0260    6.4790   26.9630 C.3     1  UNL1        0.1388
     18 O         -25.1430    3.9660   28.2430 O.2     1  UNL1       -0.2686
     19 C         -27.4380    3.0910   25.6450 C.2     1  UNL1        0.1025
     20 N         -28.0750    2.0890   25.0030 N.2     1  UNL1       -0.2118
     21 C         -27.5430    0.8490   25.0790 C.2     1  UNL1        0.2344
     22 O         -28.1930   -0.2080   24.4770 O.2     1  UNL1       -0.4585
     23 C         -29.4600    0.0050   23.8660 C.3     1  UNL1        0.2423
     24 C         -30.0650   -1.3770   23.5730 C.3     1  UNL1        0.2292
     25 O         -30.7290   -1.8780   24.7210 O.3     1  UNL1       -0.2162
     26 C         -26.3540    0.5760   25.7770 C.3     1  UNL1        0.2437
     27 F         -25.8600   -0.6810   25.7950 F       1  UNL1       -0.2265
     28 C         -22.9118    1.5944   25.9267 C.2     1  UNL1        0.3368
     29 C         -28.7018   -0.5919   29.9960 C.3     1  UNL1        0.1153
     30 C         -29.7832    0.3158   29.4630 C.3     1  UNL1        0.0252
     31 O         -21.6196    1.9658   26.2422 O.3     1  UNL1       -0.4453
     32 C         -21.3270    1.4677   27.5694 C.3     1  UNL1        0.2146
     33 C         -22.8492    0.0761   29.3380 C.3     1  UNL1        0.0813
     34 C         -22.5478    0.9241   28.0688 C.3     1  UNL1        0.0879
     35 N         -27.5827   -0.6100   29.0038 N.am    1  UNL1       -0.2040
     36 O         -26.9547    1.5732   29.7661 O.2     1  UNL1       -0.2715
     37 N         -24.3187   -0.0464   29.3108 N.3     1  UNL1       -0.2593
     38 O         -23.3621    1.4579   24.7786 O.2     1  UNL1       -0.2453
     39 C         -26.6285    0.5626   29.0836 C.2     1  UNL1        0.2598
     40 C         -25.2051    0.7214   28.4950 C.3     1  UNL1        0.1559
     41 C         -23.5406    1.2794   27.1068 C.2     1  UNL1        0.0523
     42 C         -24.8117    1.1797   27.3950 C.2     1  UNL1       -0.0116
@<TRIPOS>BOND
     1     1     2    1
     2     2     7    1
     3     3     2    2
     4     4     3    1
     5     4     5    2
     6     5     6    1
     7     6     7    2
     8     8     1    1
     9     8     9    1
    10     8    12    1
    11     9    10    1
    12    10    11    1
    13    12    11    1
    14    13    42    1
    15    14    13    1
    16    14    15    1
    17    15    18    2
    18    16    17    1
    19    16    15    1
    20    19    14    2
    21    20    21    2
    22    20    19    1
    23    21    26    1
    24    22    21    1
    25    23    22    1
    26    24    23    1
    27    24    25    1
    28    26    27    1
    29    26    13    1
    30    28    31    1
    31    28    41    1
    32    30    29    1
    33    31    32    1
    34    34    32    1
    35    34    33    1
    36    35    39    1
    37    35    29    1
    38    37    33    1
    39    37     1    1
    40    38    28    2
    41    39    36    2
    42    40    39    1
    43    40    37    1
    44    41    42    2
    45    41    34    1
    46    42    40    1
