@<TRIPOS>MOLECULE
outputs/IAG933/test6/raw/output_2506_IAG933_linker_design_.xyz
 42 46 0 0 0
SMALL
GASTEIGER

@<TRIPOS>ATOM
      1 C         -24.8550   -1.0120   30.1430 C.3     1  UNL1        0.1152
      2 C         -24.9730   -2.5050   29.7880 C.2     1  UNL1       -0.0027
      3 C         -23.9060   -3.1730   29.1460 C.2     1  UNL1       -0.0026
      4 C         -23.9890   -4.5490   28.8530 C.2     1  UNL1       -0.0003
      5 C         -25.1370   -5.2800   29.2050 C.2     1  UNL1       -0.0000
      6 C         -26.2320   -4.6110   29.7840 C.2     1  UNL1       -0.0003
      7 C         -26.1550   -3.2320   30.0650 C.2     1  UNL1       -0.0026
      8 C         -25.3870   -0.6790   31.5710 C.3     1  UNL1        0.0954
      9 C         -25.1890    0.7730   32.0280 C.3     1  UNL1        0.0209
     10 C         -25.3360    0.6840   33.5440 C.3     1  UNL1        0.0203
     11 C         -24.8290   -0.7150   33.9050 C.3     1  UNL1        0.0888
     12 N         -24.7580   -1.4810   32.6460 N.3     1  UNL1       -0.2174
     13 C         -25.6880    1.6140   26.4610 C.2     1  UNL1        0.0392
     14 C         -26.2500    2.9200   26.3950 C.2     1  UNL1        0.0766
     15 C         -25.6420    4.0930   27.1230 C.2     1  UNL1        0.2664
     16 N         -25.6140    5.2520   26.4490 N.am    1  UNL1       -0.1997
     17 C         -25.0260    6.4790   26.9630 C.3     1  UNL1        0.1388
     18 O         -25.1430    3.9660   28.2430 O.2     1  UNL1       -0.2683
     19 C         -27.4380    3.0910   25.6450 C.2     1  UNL1        0.1067
     20 N         -28.0750    2.0890   25.0030 N.2     1  UNL1       -0.2081
     21 C         -27.5430    0.8490   25.0790 C.2     1  UNL1        0.2533
     22 O         -28.1930   -0.2080   24.4770 O.2     1  UNL1       -0.4558
     23 C         -29.4600    0.0050   23.8660 C.3     1  UNL1        0.2426
     24 C         -30.0650   -1.3770   23.5730 C.3     1  UNL1        0.2292
     25 O         -30.7290   -1.8780   24.7210 O.3     1  UNL1       -0.2162
     26 C         -26.3540    0.5760   25.7770 C.2     1  UNL1        0.1931
     27 F         -25.8600   -0.6810   25.7950 F       1  UNL1       -0.1992
     28 C         -28.3477    0.2580   29.0321 C.2     1  UNL1        0.0217
     29 C         -23.2718    1.5212   26.9126 C.2     1  UNL1        0.0726
     30 C         -23.3733    0.5419   28.9128 C.3     1  UNL1        0.0672
     31 C         -22.4951    1.9725   25.8951 C.2     1  UNL1        0.3411
     32 C         -21.2535    1.6190   27.8558 C.3     1  UNL1        0.2317
     33 C         -28.2908    1.1510   30.2423 C.3     1  UNL1        0.1698
     34 C         -24.5663    1.2751   27.2925 C.2     1  UNL1        0.0181
     35 N         -25.6641   -0.0669   29.3403 N.pl3   1  UNL1       -0.2856
     36 C         -27.0123   -0.4366   28.6340 C.2     1  UNL1        0.0633
     37 O         -21.2305    2.0640   26.5104 O.3     1  UNL1       -0.4408
     38 C         -28.7785    3.3647   29.4471 C.3     1  UNL1        0.1746
     39 O         -22.7956    2.2203   24.7023 O.2     1  UNL1       -0.2449
     40 O         -27.7545    2.4629   29.9435 O.3     1  UNL1       -0.3463
     41 C         -22.5356    1.1820   28.0557 C.2     1  UNL1        0.0110
     42 C         -24.6333    0.5635   28.4841 C.2     1  UNL1        0.0334
@<TRIPOS>BOND
     1     1    35    1
     2     2     7    1
     3     2     1    1
     4     3     2    2
     5     4     3    1
     6     4     5    2
     7     5     6    1
     8     6     7    2
     9     8     1    1
    10     8     9    1
    11     8    12    1
    12     9    10    1
    13    10    11    1
    14    12    11    1
    15    13    34    1
    16    14    13    1
    17    14    15    1
    18    15    18    2
    19    16    17    1
    20    16    15    1
    21    19    14    2
    22    20    21    2
    23    20    19    1
    24    21    26    1
    25    22    21    1
    26    23    22    1
    27    24    23    1
    28    24    25    1
    29    26    27    1
    30    26    13    2
    31    28    33    1
    32    29    34    1
    33    29    41    2
    34    31    37    1
    35    31    29    1
    36    32    41    1
    37    34    42    2
    38    36    28    2
    39    36    35    1
    40    37    32    1
    41    38    40    1
    42    39    31    2
    43    40    33    1
    44    41    30    1
    45    42    30    1
    46    42    35    1
