@<TRIPOS>MOLECULE
outputs/IAG933/test6/raw/output_2508_IAG933_linker_design_.xyz
 45 49 0 0 0
SMALL
GASTEIGER

@<TRIPOS>ATOM
      1 C         -24.8550   -1.0120   30.1430 C.3     1  UNL1        0.0560
      2 C         -24.9730   -2.5050   29.7880 C.2     1  UNL1       -0.0197
      3 C         -23.9060   -3.1730   29.1460 C.2     1  UNL1       -0.0042
      4 C         -23.9890   -4.5490   28.8530 C.2     1  UNL1       -0.0003
      5 C         -25.1370   -5.2800   29.2050 C.2     1  UNL1       -0.0000
      6 C         -26.2320   -4.6110   29.7840 C.2     1  UNL1       -0.0003
      7 C         -26.1550   -3.2320   30.0650 C.2     1  UNL1       -0.0042
      8 C         -25.3870   -0.6790   31.5710 C.3     1  UNL1        0.0782
      9 C         -25.1890    0.7730   32.0280 C.3     1  UNL1        0.0192
     10 C         -25.3360    0.6840   33.5440 C.3     1  UNL1        0.0202
     11 C         -24.8290   -0.7150   33.9050 C.3     1  UNL1        0.0887
     12 N         -24.7580   -1.4810   32.6460 N.3     1  UNL1       -0.2191
     13 C         -25.6880    1.6140   26.4610 C.2     1  UNL1        0.0863
     14 C         -26.2500    2.9200   26.3950 C.2     1  UNL1        0.0899
     15 C         -25.6420    4.0930   27.1230 C.2     1  UNL1        0.2676
     16 N         -25.6140    5.2520   26.4490 N.am    1  UNL1       -0.1997
     17 C         -25.0260    6.4790   26.9630 C.3     1  UNL1        0.1388
     18 O         -25.1430    3.9660   28.2430 O.2     1  UNL1       -0.2683
     19 C         -27.4380    3.0910   25.6450 C.2     1  UNL1        0.1080
     20 N         -28.0750    2.0890   25.0030 N.2     1  UNL1       -0.2080
     21 C         -27.5430    0.8490   25.0790 C.2     1  UNL1        0.2546
     22 O         -28.1930   -0.2080   24.4770 O.2     1  UNL1       -0.4558
     23 C         -29.4600    0.0050   23.8660 C.3     1  UNL1        0.2426
     24 C         -30.0650   -1.3770   23.5730 C.3     1  UNL1        0.2292
     25 O         -30.7290   -1.8780   24.7210 O.3     1  UNL1       -0.2162
     26 C         -26.3540    0.5760   25.7770 C.2     1  UNL1        0.2062
     27 F         -25.8600   -0.6810   25.7950 F       1  UNL1       -0.1979
     28 C         -22.5181    0.4204   28.6057 C.3     1  UNL1        0.0212
     29 C         -29.1820    3.2510   28.5929 C.3     1  UNL1        0.0018
     30 C         -21.9910    2.0088   26.6509 C.3     1  UNL1        0.0215
     31 C         -29.1881    0.4681   30.9267 C.3     1  UNL1        0.0660
     32 C         -30.6169    2.9494   31.2899 C.3     1  UNL1        0.0001
     33 N         -26.0017    1.3037   29.4102 N.3     1  UNL1       -0.2114
     34 C         -28.2239    0.5454   29.6935 C.2     1  UNL1        0.1663
     35 N         -24.4575    1.6095   27.2076 N.pl3   1  UNL1       -0.3057
     36 C         -25.2890    0.0564   29.0565 C.3     1  UNL1        0.0965
     37 C         -29.0548    2.9651   31.2618 C.3     1  UNL1        0.0022
     38 C         -28.2191    3.0041   29.8360 C.3     1  UNL1        0.0231
     39 C         -28.8082    1.6136   31.9737 C.3     1  UNL1        0.0079
     40 C         -24.0409    0.8057   28.3619 C.3     1  UNL1        0.0892
     41 C         -27.3843    1.6995   29.5145 C.3     1  UNL1        0.1298
     42 C         -23.3551    1.4843   26.1778 C.3     1  UNL1        0.0908
     43 C         -30.1707    4.4194   28.8520 C.3     1  UNL1        0.0001
     44 C         -21.4996    1.3363   27.8931 C.3     1  UNL1        0.0035
     45 O         -28.2911   -0.3319   28.8269 O.2     1  UNL1       -0.2946
@<TRIPOS>BOND
     1     1    36    1
     2     2     7    1
     3     2     1    1
     4     3     2    2
     5     4     3    1
     6     4     5    2
     7     5     6    1
     8     6     7    2
     9     8     1    1
    10     8     9    1
    11     8    12    1
    12     9    10    1
    13    10    11    1
    14    12    11    1
    15    13    35    1
    16    14    13    1
    17    14    15    1
    18    15    18    2
    19    16    17    1
    20    16    15    1
    21    19    14    2
    22    20    21    2
    23    20    19    1
    24    21    26    1
    25    22    21    1
    26    23    22    1
    27    24    23    1
    28    24    25    1
    29    26    27    1
    30    26    13    2
    31    29    43    1
    32    30    44    1
    33    31    39    1
    34    34    31    1
    35    35    40    1
    36    36    33    1
    37    37    32    1
    38    37    39    1
    39    38    29    1
    40    38    37    1
    41    40    28    1
    42    40    36    1
    43    41    33    1
    44    41    34    1
    45    41    38    1
    46    42    30    1
    47    42    35    1
    48    44    28    1
    49    45    34    2
