@<TRIPOS>MOLECULE
outputs/IAG933/test6/raw/output_251_IAG933_linker_design_.xyz
 46 50 0 0 0
SMALL
GASTEIGER

@<TRIPOS>ATOM
      1 C         -24.8550   -1.0120   30.1430 C.3     1  UNL1        0.0988
      2 C         -24.9730   -2.5050   29.7880 C.2     1  UNL1       -0.0063
      3 C         -23.9060   -3.1730   29.1460 C.2     1  UNL1       -0.0029
      4 C         -23.9890   -4.5490   28.8530 C.2     1  UNL1       -0.0003
      5 C         -25.1370   -5.2800   29.2050 C.2     1  UNL1       -0.0000
      6 C         -26.2320   -4.6110   29.7840 C.2     1  UNL1       -0.0003
      7 C         -26.1550   -3.2320   30.0650 C.2     1  UNL1       -0.0029
      8 C         -25.3870   -0.6790   31.5710 C.3     1  UNL1        0.0916
      9 C         -25.1890    0.7730   32.0280 C.3     1  UNL1        0.0206
     10 C         -25.3360    0.6840   33.5440 C.3     1  UNL1        0.0203
     11 C         -24.8290   -0.7150   33.9050 C.3     1  UNL1        0.0888
     12 N         -24.7580   -1.4810   32.6460 N.3     1  UNL1       -0.2178
     13 C         -25.6880    1.6140   26.4610 C.3     1  UNL1        0.1458
     14 C         -26.2500    2.9200   26.3950 C.2     1  UNL1        0.0710
     15 C         -25.6420    4.0930   27.1230 C.2     1  UNL1        0.2638
     16 N         -25.6140    5.2520   26.4490 N.am    1  UNL1       -0.2000
     17 C         -25.0260    6.4790   26.9630 C.3     1  UNL1        0.1388
     18 O         -25.1430    3.9660   28.2430 O.2     1  UNL1       -0.2686
     19 C         -27.4380    3.0910   25.6450 C.2     1  UNL1        0.1035
     20 N         -28.0750    2.0890   25.0030 N.2     1  UNL1       -0.2118
     21 C         -27.5430    0.8490   25.0790 C.2     1  UNL1        0.2356
     22 O         -28.1930   -0.2080   24.4770 O.2     1  UNL1       -0.4585
     23 C         -29.4600    0.0050   23.8660 C.3     1  UNL1        0.2423
     24 C         -30.0650   -1.3770   23.5730 C.3     1  UNL1        0.2292
     25 O         -30.7290   -1.8780   24.7210 O.3     1  UNL1       -0.2162
     26 C         -26.3540    0.5760   25.7770 C.3     1  UNL1        0.2560
     27 F         -25.8600   -0.6810   25.7950 F       1  UNL1       -0.2253
     28 O         -29.8390    0.1197   26.7585 O.2     1  UNL1       -0.1724
     29 C         -21.4656    1.5273   27.4032 C.3     1  UNL1        0.0788
     30 C         -22.5963    2.0487   26.5504 C.3     1  UNL1        0.1507
     31 O         -30.5846   -2.5798   29.5769 O.co2   1  UNL1       -0.2437
     32 C         -30.8424   -1.7467   28.7145 C.2     1  UNL1        0.3885
     33 N         -24.8827    1.2698   27.3902 N.3     1  UNL1       -0.1753
     34 C         -21.7659    0.9185   28.6717 C.2     1  UNL1        0.0724
     35 O         -23.4029    2.3401   25.6488 O.3     1  UNL1       -0.3507
     36 O         -31.1445   -2.0542   27.5421 O.co2   1  UNL1       -0.2437
     37 C         -26.6282    0.4809   28.9131 C.3     1  UNL1        0.0844
     38 C         -27.4515    1.2348   29.6234 C.3     1  UNL1        0.0427
     39 N         -22.9577    0.5476   29.0103 N.2     1  UNL1       -0.2422
     40 S         -29.6973    0.5728   28.1874 S.O2    1  UNL1        0.0008
     41 C         -22.2957    2.3347   24.9418 C.3     1  UNL1        0.1719
     42 C         -24.2389    0.7660   28.4554 C.3     1  UNL1        0.2418
     43 O         -29.6894    2.0368   28.4448 O.2     1  UNL1       -0.1724
     44 C         -27.9363   -0.0440   28.8374 C.3     1  UNL1        0.1458
     45 C         -30.7654   -0.2928   29.2305 C.3     1  UNL1        0.2639
     46 N         -25.3021   -0.0262   29.1639 N.3     1  UNL1       -0.2364
@<TRIPOS>BOND
     1     1    46    1
     2     2     7    1
     3     2     1    1
     4     3     2    2
     5     4     3    1
     6     4     5    2
     7     5     6    1
     8     6     7    2
     9     8     1    1
    10     8     9    1
    11     8    12    1
    12     9    10    1
    13    10    11    1
    14    12    11    1
    15    13    33    1
    16    14    13    1
    17    14    15    1
    18    15    18    2
    19    16    17    1
    20    16    15    1
    21    19    14    2
    22    20    21    2
    23    20    19    1
    24    21    26    1
    25    22    21    1
    26    23    22    1
    27    24    23    1
    28    24    25    1
    29    26    27    1
    30    26    13    1
    31    28    40    2
    32    29    34    1
    33    30    29    1
    34    32    45    1
    35    32    31   ar
    36    34    39    2
    37    35    30    1
    38    36    32   ar
    39    37    46    1
    40    37    38    1
    41    40    43    2
    42    40    45    1
    43    41    35    1
    44    41    30    1
    45    42    33    1
    46    42    39    1
    47    42    46    1
    48    44    40    1
    49    44    37    1
    50    44    38    1
