@<TRIPOS>MOLECULE
No_2511-gen_results/8p0m/2024-11-27-11-27-31/
 35 38 0 0 0
SMALL
GASTEIGER

@<TRIPOS>ATOM
      1 C         -28.0162   -0.8135   28.8779 C.ar    1  UNL1        0.0009
      2 C         -28.4690   -0.7850   29.8287 C.ar    1  UNL1        0.0114
      3 C         -27.1356    0.2359   28.5352 C.ar    1  UNL1       -0.0002
      4 C         -26.8745    1.2825   29.3982 C.ar    1  UNL1        0.0009
      5 C         -28.3613    0.1987   30.9244 C.ar    1  UNL1        0.0577
      6 C         -27.5277    1.2234   30.6356 C.ar    1  UNL1        0.0114
      7 C         -26.3987    0.2949   27.2279 C.ar    1  UNL1       -0.0036
      8 C         -25.0392    0.2356   27.3538 C.ar    1  UNL1       -0.0184
      9 C         -26.8419    1.2723   26.2572 C.ar    1  UNL1        0.0019
     10 C         -24.1353    0.9376   26.5875 C.ar    1  UNL1       -0.0040
     11 C         -24.6368    1.7194   25.5290 C.ar    1  UNL1       -0.0003
     12 C         -25.9592    1.8671   25.3832 C.ar    1  UNL1        0.0001
     13 C         -28.2664    1.3946   25.9246 C.ar    1  UNL1        0.0272
     14 C         -28.8626    1.8876   25.1772 C.ar    1  UNL1        0.0022
     15 C         -30.0808    2.0745   24.8593 C.ar    1  UNL1       -0.0001
     16 C         -31.0347    1.4778   25.7580 C.ar    1  UNL1        0.0008
     17 C         -30.4994    0.7542   26.8298 C.ar    1  UNL1        0.0401
     18 C         -29.1029    0.6671   26.9941 C.ar    1  UNL1        0.1388
     19 F         -28.8631   -0.6601   26.9377 F       1  UNL1       -0.2044
     20 C         -31.4509    0.1363   27.7636 C.3     1  UNL1        0.1953
     21 N         -31.4503    0.6328   29.0412 N.pl3   1  UNL1       -0.2183
     22 C         -32.2074    0.1386   30.0713 C.ar    1  UNL1        0.0670
     23 CL        -32.2383   -1.1701   27.4119 Cl      1  UNL1       -0.0861
     24 C         -32.2062    0.8899   31.2683 C.ar    1  UNL1        0.0161
     25 C         -32.5717    0.3418   32.4836 C.ar    1  UNL1        0.0013
     26 C         -33.1194   -0.9919   32.3912 C.ar    1  UNL1        0.0001
     27 C         -33.0865   -1.7077   31.2285 C.ar    1  UNL1        0.0013
     28 C         -32.5110   -1.1595   30.1130 C.ar    1  UNL1        0.0161
     29 CL        -29.1211   -0.0547   32.4451 Cl      1  UNL1       -0.0822
     30 C         -24.4225   -0.6456   28.4182 C.3     1  UNL1        0.0442
     31 C         -23.3538   -0.3036   29.2083 C.3     1  UNL1        0.0081
     32 C         -22.7429    0.8940   29.1139 C.3     1  UNL1        0.0007
     33 C         -22.9588   -1.2518   30.2046 C.3     1  UNL1        0.0007
     34 C         -24.9939   -1.9635   28.5254 C.2     1  UNL1       -0.0221
     35 C         -24.5488   -2.9152   29.4064 C.2     1  UNL1       -0.0046
@<TRIPOS>BOND
     1     3     7    1
     2     9    13    1
     3    18    19    1
     4    17    20    1
     5    20    21    1
     6    20    23    1
     7     5    29    1
     8     8    30    1
     9    30    31    1
    10    31    32    1
    11    31    33    1
    12    30    34    1
    13    34    35    2
    14    21    22    1
    15    22    24   ar
    16    24    25   ar
    17    25    26   ar
    18    26    27   ar
    19    27    28   ar
    20    28    22   ar
    21    13    14   ar
    22    14    15   ar
    23    15    16   ar
    24    16    17   ar
    25    17    18   ar
    26    18    13   ar
    27     1     2   ar
    28     2     5   ar
    29     5     6   ar
    30     6     4   ar
    31     4     3   ar
    32     3     1   ar
    33     7     8   ar
    34     8    10   ar
    35    10    11   ar
    36    11    12   ar
    37    12     9   ar
    38     9     7   ar
