@<TRIPOS>MOLECULE
outputs/IAG933/test6/raw/output_2512_IAG933_linker_design_.xyz
 37 40 0 0 0
SMALL
GASTEIGER

@<TRIPOS>ATOM
      1 C         -24.8550   -1.0120   30.1430 C.3     1  UNL1        0.2433
      2 C         -24.9730   -2.5050   29.7880 C.2     1  UNL1        0.0254
      3 C         -23.9060   -3.1730   29.1460 C.2     1  UNL1       -0.0003
      4 C         -23.9890   -4.5490   28.8530 C.2     1  UNL1       -0.0002
      5 C         -25.1370   -5.2800   29.2050 C.2     1  UNL1       -0.0000
      6 C         -26.2320   -4.6110   29.7840 C.2     1  UNL1       -0.0002
      7 C         -26.1550   -3.2320   30.0650 C.2     1  UNL1       -0.0003
      8 C         -25.3870   -0.6790   31.5710 C.3     1  UNL1        0.1239
      9 C         -25.1890    0.7730   32.0280 C.3     1  UNL1        0.0235
     10 C         -25.3360    0.6840   33.5440 C.3     1  UNL1        0.0204
     11 C         -24.8290   -0.7150   33.9050 C.3     1  UNL1        0.0889
     12 N         -24.7580   -1.4810   32.6460 N.3     1  UNL1       -0.2149
     13 C         -25.6880    1.6140   26.4610 C.2     1  UNL1        0.1798
     14 C         -26.2500    2.9200   26.3950 C.2     1  UNL1        0.1136
     15 C         -25.6420    4.0930   27.1230 C.2     1  UNL1        0.2698
     16 N         -25.6140    5.2520   26.4490 N.am    1  UNL1       -0.1996
     17 C         -25.0260    6.4790   26.9630 C.3     1  UNL1        0.1388
     18 O         -25.1430    3.9660   28.2430 O.2     1  UNL1       -0.2682
     19 C         -27.4380    3.0910   25.6450 C.2     1  UNL1        0.1102
     20 N         -28.0750    2.0890   25.0030 N.2     1  UNL1       -0.2078
     21 C         -27.5430    0.8490   25.0790 C.2     1  UNL1        0.2568
     22 O         -28.1930   -0.2080   24.4770 O.2     1  UNL1       -0.4557
     23 C         -29.4600    0.0050   23.8660 C.3     1  UNL1        0.2426
     24 C         -30.0650   -1.3770   23.5730 C.3     1  UNL1        0.2292
     25 O         -30.7290   -1.8780   24.7210 O.3     1  UNL1       -0.2162
     26 C         -26.3540    0.5760   25.7770 C.2     1  UNL1        0.2298
     27 F         -25.8600   -0.6810   25.7950 F       1  UNL1       -0.1956
     28 N         -21.4350    1.6898   27.1456 N.2     1  UNL1       -0.2171
     29 C         -22.1607   -0.3489   29.1854 C.2     1  UNL1        0.0287
     30 N         -24.4841    1.3145   27.1716 N.pl3   1  UNL1       -0.1323
     31 C         -20.6048    1.0809   28.0150 C.2     1  UNL1        0.0775
     32 C         -20.7464   -0.0263   28.9276 C.3     1  UNL1        0.0813
     33 N         -25.3073   -0.1949   28.9818 N.pl3   1  UNL1       -0.0272
     34 CL        -23.0336    2.7014   25.3231 Cl      1  UNL1       -0.0378
     35 C         -23.2621    1.7692   26.6995 C.3     1  UNL1        0.3571
     36 C         -24.4012    0.4928   28.2609 C.2     1  UNL1        0.3531
     37 C         -23.2273    0.3378   28.7627 C.1     1  UNL1       -0.0201
@<TRIPOS>BOND
     1     1    33    1
     2     2     7    1
     3     2     1    1
     4     3     2    2
     5     4     3    1
     6     4     5    2
     7     5     6    1
     8     6     7    2
     9     8     1    1
    10     8     9    1
    11     8    12    1
    12     9    10    1
    13    10    11    1
    14    12    11    1
    15    13    30    1
    16    14    13    1
    17    14    15    1
    18    15    18    2
    19    16    17    1
    20    16    15    1
    21    19    14    2
    22    20    21    2
    23    20    19    1
    24    21    26    1
    25    22    21    1
    26    23    22    1
    27    24    23    1
    28    24    25    1
    29    26    27    1
    30    26    13    2
    31    28    31    2
    32    30    36    1
    33    31    32    1
    34    32    29    1
    35    35    34    1
    36    35    28    1
    37    35    30    1
    38    36    37    2
    39    36    33    1
    40    37    29    2
