@<TRIPOS>MOLECULE
outputs/IAG933/test6/raw/output_2514_IAG933_linker_design_.xyz
 45 49 0 0 0
SMALL
GASTEIGER

@<TRIPOS>ATOM
      1 C         -24.8550   -1.0120   30.1430 C.3     1  UNL1        0.0670
      2 C         -24.9730   -2.5050   29.7880 C.2     1  UNL1       -0.0187
      3 C         -23.9060   -3.1730   29.1460 C.2     1  UNL1       -0.0042
      4 C         -23.9890   -4.5490   28.8530 C.2     1  UNL1       -0.0003
      5 C         -25.1370   -5.2800   29.2050 C.2     1  UNL1       -0.0000
      6 C         -26.2320   -4.6110   29.7840 C.2     1  UNL1       -0.0003
      7 C         -26.1550   -3.2320   30.0650 C.2     1  UNL1       -0.0042
      8 C         -25.3870   -0.6790   31.5710 C.3     1  UNL1        0.0792
      9 C         -25.1890    0.7730   32.0280 C.3     1  UNL1        0.0193
     10 C         -25.3360    0.6840   33.5440 C.3     1  UNL1        0.0202
     11 C         -24.8290   -0.7150   33.9050 C.3     1  UNL1        0.0887
     12 N         -24.7580   -1.4810   32.6460 N.3     1  UNL1       -0.2190
     13 C         -25.6880    1.6140   26.4610 C.3     1  UNL1        0.1294
     14 C         -26.2500    2.9200   26.3950 C.2     1  UNL1        0.0696
     15 C         -25.6420    4.0930   27.1230 C.2     1  UNL1        0.2637
     16 N         -25.6140    5.2520   26.4490 N.am    1  UNL1       -0.2000
     17 C         -25.0260    6.4790   26.9630 C.3     1  UNL1        0.1388
     18 O         -25.1430    3.9660   28.2430 O.2     1  UNL1       -0.2686
     19 C         -27.4380    3.0910   25.6450 C.2     1  UNL1        0.1035
     20 N         -28.0750    2.0890   25.0030 N.2     1  UNL1       -0.2118
     21 C         -27.5430    0.8490   25.0790 C.2     1  UNL1        0.2355
     22 O         -28.1930   -0.2080   24.4770 O.2     1  UNL1       -0.4585
     23 C         -29.4600    0.0050   23.8660 C.3     1  UNL1        0.2423
     24 C         -30.0650   -1.3770   23.5730 C.3     1  UNL1        0.2292
     25 O         -30.7290   -1.8780   24.7210 O.3     1  UNL1       -0.2162
     26 C         -26.3540    0.5760   25.7770 C.3     1  UNL1        0.2546
     27 F         -25.8600   -0.6810   25.7950 F       1  UNL1       -0.2254
     28 C         -22.6619    0.7053   27.8311 C.3     1  UNL1        0.2242
     29 C         -28.9526    0.1873   28.8289 C.2     1  UNL1        0.1723
     30 C         -25.5558    0.4742   28.7053 C.3     1  UNL1        0.1306
     31 O         -28.0122   -0.5817   28.6184 O.2     1  UNL1       -0.4709
     32 C         -28.7568   -0.2828   31.7453 C.3     1  UNL1        0.2526
     33 N         -24.8648    1.2816   27.4378 N.3     1  UNL1       -0.2486
     34 O         -28.2168    0.8512   31.0563 O.2     1  UNL1       -0.4684
     35 C         -31.2486    1.7619   29.2983 C.2     1  UNL1        0.0033
     36 CL        -23.1681    2.2130   25.6208 Cl      1  UNL1       -0.0930
     37 C         -24.6314   -0.0335   29.2720 C.3     1  UNL1        0.1403
     38 C         -30.1629    0.0444   28.0282 C.2     1  UNL1        0.0400
     39 C         -28.9136    1.1653   29.9064 C.2     1  UNL1        0.1724
     40 C         -30.1241    1.8915   30.1204 C.2     1  UNL1        0.0400
     41 O         -23.3303    0.2989   29.0782 O.3     1  UNL1       -0.3390
     42 C         -23.6312    1.4653   27.0797 C.3     1  UNL1        0.1823
     43 C         -31.3438    0.7539   28.3399 C.2     1  UNL1        0.0033
     44 CL        -21.1588    1.5847   27.7991 Cl      1  UNL1       -0.0793
     45 C         -26.9016    0.2581   28.4386 C.3     1  UNL1        0.2238
@<TRIPOS>BOND
     1     1     2    1
     2     2     7    1
     3     3     2    2
     4     4     3    1
     5     4     5    2
     6     5     6    1
     7     6     7    2
     8     8     1    1
     9     8     9    1
    10     8    12    1
    11     9    10    1
    12    10    11    1
    13    12    11    1
    14    13    14    1
    15    14    15    1
    16    15    18    2
    17    16    17    1
    18    16    15    1
    19    19    14    2
    20    20    21    2
    21    20    19    1
    22    21    26    1
    23    22    21    1
    24    23    22    1
    25    24    23    1
    26    24    25    1
    27    26    27    1
    28    26    13    1
    29    28    44    1
    30    28    41    1
    31    29    39    1
    32    30    45    1
    33    30    37    1
    34    31    29    1
    35    33    13    1
    36    33    30    1
    37    34    32    1
    38    35    40    1
    39    37     1    1
    40    38    43    1
    41    38    29    2
    42    39    40    2
    43    39    34    1
    44    41    37    1
    45    42    36    1
    46    42    33    1
    47    42    28    1
    48    43    35    2
    49    45    31    1
