@<TRIPOS>MOLECULE
outputs/IAG933/test6/raw/output_2515_IAG933_linker_design_.xyz
 47 52 0 0 0
SMALL
GASTEIGER

@<TRIPOS>ATOM
      1 C         -24.8550   -1.0120   30.1430 C.3     1  UNL1        0.0412
      2 C         -24.9730   -2.5050   29.7880 C.2     1  UNL1       -0.0211
      3 C         -23.9060   -3.1730   29.1460 C.2     1  UNL1       -0.0042
      4 C         -23.9890   -4.5490   28.8530 C.2     1  UNL1       -0.0003
      5 C         -25.1370   -5.2800   29.2050 C.2     1  UNL1       -0.0000
      6 C         -26.2320   -4.6110   29.7840 C.2     1  UNL1       -0.0003
      7 C         -26.1550   -3.2320   30.0650 C.2     1  UNL1       -0.0042
      8 C         -25.3870   -0.6790   31.5710 C.3     1  UNL1        0.0769
      9 C         -25.1890    0.7730   32.0280 C.3     1  UNL1        0.0192
     10 C         -25.3360    0.6840   33.5440 C.3     1  UNL1        0.0202
     11 C         -24.8290   -0.7150   33.9050 C.3     1  UNL1        0.0887
     12 N         -24.7580   -1.4810   32.6460 N.3     1  UNL1       -0.2191
     13 C         -25.6880    1.6140   26.4610 C.3     1  UNL1        0.1301
     14 C         -26.2500    2.9200   26.3950 C.2     1  UNL1        0.0696
     15 C         -25.6420    4.0930   27.1230 C.2     1  UNL1        0.2637
     16 N         -25.6140    5.2520   26.4490 N.am    1  UNL1       -0.2000
     17 C         -25.0260    6.4790   26.9630 C.3     1  UNL1        0.1388
     18 O         -25.1430    3.9660   28.2430 O.2     1  UNL1       -0.2686
     19 C         -27.4380    3.0910   25.6450 C.2     1  UNL1        0.1035
     20 N         -28.0750    2.0890   25.0030 N.2     1  UNL1       -0.2118
     21 C         -27.5430    0.8490   25.0790 C.2     1  UNL1        0.2355
     22 O         -28.1930   -0.2080   24.4770 O.2     1  UNL1       -0.4585
     23 C         -29.4600    0.0050   23.8660 C.3     1  UNL1        0.2423
     24 C         -30.0650   -1.3770   23.5730 C.3     1  UNL1        0.2292
     25 O         -30.7290   -1.8780   24.7210 O.3     1  UNL1       -0.2162
     26 C         -26.3540    0.5760   25.7770 C.3     1  UNL1        0.2546
     27 F         -25.8600   -0.6810   25.7950 F       1  UNL1       -0.2254
     28 C         -27.8892    1.1791   28.9126 C.3     1  UNL1        0.0173
     29 N         -21.9958    0.7564   29.4581 N.3     1  UNL1       -0.1288
     30 C         -32.8924    1.1344   24.8521 C.3     1  UNL1        0.0015
     31 N         -30.2153    1.1623   27.8670 N.3     1  UNL1       -0.2716
     32 C         -31.9885    0.4294   26.0189 C.3     1  UNL1        0.0186
     33 C         -23.3296    1.5239   27.5351 C.3     1  UNL1        0.1942
     34 C         -30.2771   -0.3926   27.7359 C.3     1  UNL1        0.0722
     35 O         -22.5534    1.6864   26.4270 O.3     1  UNL1       -0.3367
     36 C         -24.1916   -0.1417   29.1120 C.3     1  UNL1        0.0416
     37 N         -24.7639    1.3446   27.5311 N.3     1  UNL1       -0.2455
     38 C         -29.4275    1.3960   29.2394 C.3     1  UNL1        0.0721
     39 C         -22.8960    0.3078   28.3619 C.3     1  UNL1        0.1362
     40 C         -30.9305    2.9576   26.1780 C.3     1  UNL1        0.1979
     41 C         -26.4724    0.5257   28.9447 C.3     1  UNL1        0.0162
     42 C         -31.4042   -0.8277   26.9071 C.3     1  UNL1        0.0187
     43 C         -23.0652    2.1707   25.1503 C.3     1  UNL1        0.1758
     44 C         -25.2552    0.8660   28.7131 C.3     1  UNL1        0.0618
     45 C         -27.6734   -0.3062   29.0016 C.3     1  UNL1        0.0028
     46 O         -30.0376    3.5712   27.1285 O.3     1  UNL1       -0.2189
     47 C         -31.4806    1.6891   26.8691 C.3     1  UNL1        0.0907
@<TRIPOS>BOND
     1     1     2    1
     2     2     7    1
     3     3     2    2
     4     4     3    1
     5     4     5    2
     6     5     6    1
     7     6     7    2
     8     8     1    1
     9     8     9    1
    10     8    12    1
    11     9    10    1
    12    10    11    1
    13    12    11    1
    14    13    14    1
    15    14    15    1
    16    15    18    2
    17    16    17    1
    18    16    15    1
    19    19    14    2
    20    20    21    2
    21    20    19    1
    22    21    26    1
    23    22    21    1
    24    23    22    1
    25    24    23    1
    26    24    25    1
    27    26    27    1
    28    26    13    1
    29    28    41    1
    30    28    45    1
    31    28    38    1
    32    31    38    1
    33    32    30    1
    34    32    47    1
    35    32    42    1
    36    33    35    1
    37    33    39    1
    38    34    31    1
    39    36     1    1
    40    37    13    1
    41    37    33    1
    42    37    44    1
    43    39    36    1
    44    39    29    1
    45    40    46    1
    46    41    45    1
    47    42    34    1
    48    43    35    1
    49    44    41    1
    50    44    36    1
    51    47    40    1
    52    47    31    1
