@<TRIPOS>MOLECULE
outputs/IAG933/test6/raw/output_2522_IAG933_linker_design_.xyz
 43 47 0 0 0
SMALL
GASTEIGER

@<TRIPOS>ATOM
      1 C         -24.8550   -1.0120   30.1430 C.3     1  UNL1        0.0969
      2 C         -24.9730   -2.5050   29.7880 C.2     1  UNL1       -0.0064
      3 C         -23.9060   -3.1730   29.1460 C.2     1  UNL1       -0.0029
      4 C         -23.9890   -4.5490   28.8530 C.2     1  UNL1       -0.0003
      5 C         -25.1370   -5.2800   29.2050 C.2     1  UNL1       -0.0000
      6 C         -26.2320   -4.6110   29.7840 C.2     1  UNL1       -0.0003
      7 C         -26.1550   -3.2320   30.0650 C.2     1  UNL1       -0.0029
      8 C         -25.3870   -0.6790   31.5710 C.3     1  UNL1        0.0916
      9 C         -25.1890    0.7730   32.0280 C.3     1  UNL1        0.0206
     10 C         -25.3360    0.6840   33.5440 C.3     1  UNL1        0.0203
     11 C         -24.8290   -0.7150   33.9050 C.3     1  UNL1        0.0888
     12 N         -24.7580   -1.4810   32.6460 N.3     1  UNL1       -0.2178
     13 C         -25.6880    1.6140   26.4610 C.2     1  UNL1        0.0407
     14 C         -26.2500    2.9200   26.3950 C.2     1  UNL1        0.0765
     15 C         -25.6420    4.0930   27.1230 C.2     1  UNL1        0.2664
     16 N         -25.6140    5.2520   26.4490 N.am    1  UNL1       -0.1997
     17 C         -25.0260    6.4790   26.9630 C.3     1  UNL1        0.1388
     18 O         -25.1430    3.9660   28.2430 O.2     1  UNL1       -0.2683
     19 C         -27.4380    3.0910   25.6450 C.2     1  UNL1        0.1067
     20 N         -28.0750    2.0890   25.0030 N.2     1  UNL1       -0.2081
     21 C         -27.5430    0.8490   25.0790 C.2     1  UNL1        0.2533
     22 O         -28.1930   -0.2080   24.4770 O.2     1  UNL1       -0.4558
     23 C         -29.4600    0.0050   23.8660 C.3     1  UNL1        0.2426
     24 C         -30.0650   -1.3770   23.5730 C.3     1  UNL1        0.2292
     25 O         -30.7290   -1.8780   24.7210 O.3     1  UNL1       -0.2162
     26 C         -26.3540    0.5760   25.7770 C.2     1  UNL1        0.1930
     27 F         -25.8600   -0.6810   25.7950 F       1  UNL1       -0.1992
     28 N         -20.3795    0.2333   28.2430 N.2     1  UNL1       -0.2069
     29 C         -28.2016   -0.8540   28.2391 C.3     1  UNL1        0.2473
     30 C         -23.1220    1.7466   26.2599 C.2     1  UNL1        0.2861
     31 C         -23.9746    0.5462   28.2231 C.3     1  UNL1        0.1228
     32 C         -26.2762    0.6151   29.2451 C.3     1  UNL1        0.1409
     33 O         -21.8399    1.6732   26.7474 O.2     1  UNL1       -0.4129
     34 F         -23.2252    2.3031   25.0264 F       1  UNL1       -0.1631
     35 C         -21.5720    0.8248   27.8445 C.2     1  UNL1        0.2351
     36 C         -20.8492   -0.4630   29.1105 C.3     1  UNL1        0.2746
     37 O         -28.1820   -1.7781   29.3523 O.3     1  UNL1       -0.2118
     38 O         -28.5331    1.2505   29.1847 O.2     1  UNL1       -0.2918
     39 C         -27.6331    0.4173   28.8245 C.2     1  UNL1        0.1999
     40 C         -22.5640    0.3347   28.6119 C.3     1  UNL1        0.2116
     41 C         -24.2577    1.2982   27.0037 C.2     1  UNL1        0.0614
     42 N         -24.8798   -0.0041   29.1162 N.3     1  UNL1       -0.2578
     43 O         -22.1248   -0.5131   29.4375 O.3     1  UNL1       -0.3223
@<TRIPOS>BOND
     1     1    42    1
     2     2     7    1
     3     2     1    1
     4     3     2    2
     5     4     3    1
     6     4     5    2
     7     5     6    1
     8     6     7    2
     9     8     1    1
    10     8     9    1
    11     8    12    1
    12     9    10    1
    13    10    11    1
    14    12    11    1
    15    13    41    1
    16    14    13    1
    17    14    15    1
    18    15    18    2
    19    16    17    1
    20    16    15    1
    21    19    14    2
    22    20    21    2
    23    20    19    1
    24    21    26    1
    25    22    21    1
    26    23    22    1
    27    24    23    1
    28    24    25    1
    29    26    27    1
    30    26    13    2
    31    28    36    1
    32    29    39    1
    33    29    37    1
    34    30    33    1
    35    30    41    2
    36    31    40    1
    37    31    42    1
    38    33    35    1
    39    34    30    1
    40    35    28    2
    41    36    43    1
    42    39    38    2
    43    39    32    1
    44    40    35    1
    45    40    43    1
    46    41    31    1
    47    42    32    1
