@<TRIPOS>MOLECULE
outputs/IAG933/test6/raw/output_2524_IAG933_linker_design_.xyz
 42 46 0 0 0
SMALL
GASTEIGER

@<TRIPOS>ATOM
      1 C         -24.8550   -1.0120   30.1430 C.3     1  UNL1        0.0602
      2 C         -24.9730   -2.5050   29.7880 C.2     1  UNL1       -0.0194
      3 C         -23.9060   -3.1730   29.1460 C.2     1  UNL1       -0.0042
      4 C         -23.9890   -4.5490   28.8530 C.2     1  UNL1       -0.0003
      5 C         -25.1370   -5.2800   29.2050 C.2     1  UNL1       -0.0000
      6 C         -26.2320   -4.6110   29.7840 C.2     1  UNL1       -0.0003
      7 C         -26.1550   -3.2320   30.0650 C.2     1  UNL1       -0.0042
      8 C         -25.3870   -0.6790   31.5710 C.3     1  UNL1        0.0785
      9 C         -25.1890    0.7730   32.0280 C.3     1  UNL1        0.0192
     10 C         -25.3360    0.6840   33.5440 C.3     1  UNL1        0.0202
     11 C         -24.8290   -0.7150   33.9050 C.3     1  UNL1        0.0887
     12 N         -24.7580   -1.4810   32.6460 N.3     1  UNL1       -0.2191
     13 C         -25.6880    1.6140   26.4610 C.3     1  UNL1        0.1302
     14 C         -26.2500    2.9200   26.3950 C.2     1  UNL1        0.0696
     15 C         -25.6420    4.0930   27.1230 C.2     1  UNL1        0.2637
     16 N         -25.6140    5.2520   26.4490 N.am    1  UNL1       -0.2000
     17 C         -25.0260    6.4790   26.9630 C.3     1  UNL1        0.1388
     18 O         -25.1430    3.9660   28.2430 O.2     1  UNL1       -0.2686
     19 C         -27.4380    3.0910   25.6450 C.2     1  UNL1        0.1035
     20 N         -28.0750    2.0890   25.0030 N.2     1  UNL1       -0.2118
     21 C         -27.5430    0.8490   25.0790 C.2     1  UNL1        0.2355
     22 O         -28.1930   -0.2080   24.4770 O.2     1  UNL1       -0.4585
     23 C         -29.4600    0.0050   23.8660 C.3     1  UNL1        0.2423
     24 C         -30.0650   -1.3770   23.5730 C.3     1  UNL1        0.2292
     25 O         -30.7290   -1.8780   24.7210 O.3     1  UNL1       -0.2162
     26 C         -26.3540    0.5760   25.7770 C.3     1  UNL1        0.2546
     27 F         -25.8600   -0.6810   25.7950 F       1  UNL1       -0.2254
     28 C         -24.0327    1.4460   29.7478 C.2     1  UNL1        0.2402
     29 O         -28.3379    0.6143   28.3707 O.3     1  UNL1       -0.2204
     30 C         -20.6302    1.8295   27.6415 C.3     1  UNL1        0.2103
     31 C         -20.9896    0.4608   28.2040 C.3     1  UNL1        0.0690
     32 C         -22.7727    1.7861   26.3869 C.2     1  UNL1        0.3515
     33 O         -21.2865    1.9177   26.3664 O.3     1  UNL1       -0.4463
     34 C         -23.3998    1.3964   27.6530 C.3     1  UNL1        0.2387
     35 C         -26.2932   -0.5056   28.3310 C.3     1  UNL1        0.0595
     36 N         -24.8872    1.2511   27.6298 N.3     1  UNL1       -0.2382
     37 C         -25.1465    0.2786   29.1142 C.3     1  UNL1        0.1242
     38 C         -22.1538    0.0218   29.0971 C.3     1  UNL1        0.0990
     39 O         -23.2461    2.1203   25.3687 O.2     1  UNL1       -0.2467
     40 C         -27.6495   -0.5034   28.9000 C.3     1  UNL1        0.1840
     41 O         -24.0728    2.4030   30.4581 O.2     1  UNL1       -0.2734
     42 N         -23.0569    1.1478   28.9624 N.am    1  UNL1       -0.2578
@<TRIPOS>BOND
     1     1     2    1
     2     2     7    1
     3     3     2    2
     4     4     3    1
     5     4     5    2
     6     5     6    1
     7     6     7    2
     8     8     1    1
     9     8     9    1
    10     8    12    1
    11     9    10    1
    12    10    11    1
    13    12    11    1
    14    13    14    1
    15    14    15    1
    16    15    18    2
    17    16    17    1
    18    16    15    1
    19    19    14    2
    20    20    21    2
    21    20    19    1
    22    21    26    1
    23    22    21    1
    24    23    22    1
    25    24    23    1
    26    24    25    1
    27    26    27    1
    28    26    13    1
    29    28    41    2
    30    29    40    1
    31    30    31    1
    32    31    38    1
    33    33    32    1
    34    33    30    1
    35    34    32    1
    36    34    42    1
    37    35    40    1
    38    36    13    1
    39    36    34    1
    40    36    37    1
    41    37    35    1
    42    37    28    1
    43    37     1    1
    44    39    32    2
    45    42    38    1
    46    42    28   am
