@<TRIPOS>MOLECULE
outputs/IAG933/test6/raw/output_2525_IAG933_linker_design_.xyz
 48 52 0 0 0
SMALL
GASTEIGER

@<TRIPOS>ATOM
      1 C         -24.8550   -1.0120   30.1430 C.3     1  UNL1        0.0438
      2 C         -24.9730   -2.5050   29.7880 C.2     1  UNL1       -0.0210
      3 C         -23.9060   -3.1730   29.1460 C.2     1  UNL1       -0.0042
      4 C         -23.9890   -4.5490   28.8530 C.2     1  UNL1       -0.0003
      5 C         -25.1370   -5.2800   29.2050 C.2     1  UNL1       -0.0000
      6 C         -26.2320   -4.6110   29.7840 C.2     1  UNL1       -0.0003
      7 C         -26.1550   -3.2320   30.0650 C.2     1  UNL1       -0.0042
      8 C         -25.3870   -0.6790   31.5710 C.3     1  UNL1        0.0770
      9 C         -25.1890    0.7730   32.0280 C.3     1  UNL1        0.0192
     10 C         -25.3360    0.6840   33.5440 C.3     1  UNL1        0.0202
     11 C         -24.8290   -0.7150   33.9050 C.3     1  UNL1        0.0887
     12 N         -24.7580   -1.4810   32.6460 N.3     1  UNL1       -0.2191
     13 C         -25.6880    1.6140   26.4610 C.3     1  UNL1        0.1304
     14 C         -26.2500    2.9200   26.3950 C.2     1  UNL1        0.0697
     15 C         -25.6420    4.0930   27.1230 C.2     1  UNL1        0.2637
     16 N         -25.6140    5.2520   26.4490 N.am    1  UNL1       -0.2000
     17 C         -25.0260    6.4790   26.9630 C.3     1  UNL1        0.1388
     18 O         -25.1430    3.9660   28.2430 O.2     1  UNL1       -0.2686
     19 C         -27.4380    3.0910   25.6450 C.2     1  UNL1        0.1035
     20 N         -28.0750    2.0890   25.0030 N.2     1  UNL1       -0.2118
     21 C         -27.5430    0.8490   25.0790 C.2     1  UNL1        0.2355
     22 O         -28.1930   -0.2080   24.4770 O.2     1  UNL1       -0.4585
     23 C         -29.4600    0.0050   23.8660 C.3     1  UNL1        0.2423
     24 C         -30.0650   -1.3770   23.5730 C.3     1  UNL1        0.2292
     25 O         -30.7290   -1.8780   24.7210 O.3     1  UNL1       -0.2162
     26 C         -26.3540    0.5760   25.7770 C.3     1  UNL1        0.2547
     27 F         -25.8600   -0.6810   25.7950 F       1  UNL1       -0.2254
     28 C         -25.3057   -0.2065   29.2485 C.3     1  UNL1        0.0704
     29 C         -28.8188    0.5649   29.2289 C.3     1  UNL1        0.1621
     30 C         -32.6821    0.1926   27.4150 C.3     1  UNL1        0.0173
     31 N         -30.8995    1.2059   27.6738 N.3     1  UNL1       -0.2719
     32 C         -31.6700    0.9049   26.7864 C.3     1  UNL1        0.0577
     33 C         -21.0521    1.6836   27.4026 C.3     1  UNL1        0.0437
     34 C         -29.7793    0.2165   28.0621 C.3     1  UNL1        0.1046
     35 C         -22.5753    1.8347   27.5655 C.3     1  UNL1        0.2101
     36 C         -30.2112    2.5954   27.2431 C.3     1  UNL1        0.0722
     37 C         -32.1694    2.0388   25.9342 C.3     1  UNL1        0.0174
     38 O         -27.5567    0.1030   28.8330 O.3     1  UNL1       -0.3393
     39 O         -23.1657    2.1275   26.3393 O.3     1  UNL1       -0.2151
     40 C         -28.8685    2.0529   29.5606 C.3     1  UNL1        0.1731
     41 C         -28.7393    3.8044   29.8147 C.3     1  UNL1        0.1742
     42 O         -28.4286    2.5825   30.3655 O.3     1  UNL1       -0.3485
     43 C         -31.3551    3.1760   26.4492 C.3     1  UNL1        0.0187
     44 C         -26.3045    1.0023   28.9390 C.3     1  UNL1        0.1788
     45 C         -23.1934    0.8524   28.5580 C.2     1  UNL1        0.1952
     46 C         -24.5518    0.3846   28.2037 C.3     1  UNL1        0.1243
     47 O         -22.5825    0.5015   29.6024 O.2     1  UNL1       -0.2920
     48 N         -25.3106    1.4157   27.8486 N.3     1  UNL1       -0.2399
@<TRIPOS>BOND
     1     1     2    1
     2     2     7    1
     3     3     2    2
     4     4     3    1
     5     4     5    2
     6     5     6    1
     7     6     7    2
     8     8     1    1
     9     8     9    1
    10     8    12    1
    11     9    10    1
    12    10    11    1
    13    12    11    1
    14    13    14    1
    15    14    15    1
    16    15    18    2
    17    16    17    1
    18    16    15    1
    19    19    14    2
    20    20    21    2
    21    20    19    1
    22    21    26    1
    23    22    21    1
    24    23    22    1
    25    24    23    1
    26    24    25    1
    27    26    27    1
    28    26    13    1
    29    28     1    1
    30    29    34    1
    31    29    40    1
    32    31    34    1
    33    32    30    1
    34    32    31    1
    35    35    33    1
    36    35    45    1
    37    36    31    1
    38    37    43    1
    39    37    32    1
    40    38    29    1
    41    39    35    1
    42    40    42    1
    43    41    42    1
    44    43    36    1
    45    44    38    1
    46    44    28    1
    47    45    47    2
    48    46    45    1
    49    46    28    1
    50    48    13    1
    51    48    46    1
    52    48    44    1
