@<TRIPOS>MOLECULE
outputs/IAG933/test6/raw/output_2526_IAG933_linker_design_.xyz
 46 50 0 0 0
SMALL
GASTEIGER

@<TRIPOS>ATOM
      1 C         -24.8550   -1.0120   30.1430 C.3     1  UNL1        0.0698
      2 C         -24.9730   -2.5050   29.7880 C.2     1  UNL1       -0.0184
      3 C         -23.9060   -3.1730   29.1460 C.2     1  UNL1       -0.0041
      4 C         -23.9890   -4.5490   28.8530 C.2     1  UNL1       -0.0003
      5 C         -25.1370   -5.2800   29.2050 C.2     1  UNL1       -0.0000
      6 C         -26.2320   -4.6110   29.7840 C.2     1  UNL1       -0.0003
      7 C         -26.1550   -3.2320   30.0650 C.2     1  UNL1       -0.0041
      8 C         -25.3870   -0.6790   31.5710 C.3     1  UNL1        0.0795
      9 C         -25.1890    0.7730   32.0280 C.3     1  UNL1        0.0193
     10 C         -25.3360    0.6840   33.5440 C.3     1  UNL1        0.0202
     11 C         -24.8290   -0.7150   33.9050 C.3     1  UNL1        0.0887
     12 N         -24.7580   -1.4810   32.6460 N.3     1  UNL1       -0.2190
     13 C         -25.6880    1.6140   26.4610 C.2     1  UNL1        0.0379
     14 C         -26.2500    2.9200   26.3950 C.2     1  UNL1        0.0765
     15 C         -25.6420    4.0930   27.1230 C.2     1  UNL1        0.2664
     16 N         -25.6140    5.2520   26.4490 N.am    1  UNL1       -0.1997
     17 C         -25.0260    6.4790   26.9630 C.3     1  UNL1        0.1388
     18 O         -25.1430    3.9660   28.2430 O.2     1  UNL1       -0.2683
     19 C         -27.4380    3.0910   25.6450 C.2     1  UNL1        0.1067
     20 N         -28.0750    2.0890   25.0030 N.2     1  UNL1       -0.2081
     21 C         -27.5430    0.8490   25.0790 C.2     1  UNL1        0.2533
     22 O         -28.1930   -0.2080   24.4770 O.2     1  UNL1       -0.4558
     23 C         -29.4600    0.0050   23.8660 C.3     1  UNL1        0.2426
     24 C         -30.0650   -1.3770   23.5730 C.3     1  UNL1        0.2292
     25 O         -30.7290   -1.8780   24.7210 O.3     1  UNL1       -0.2162
     26 C         -26.3540    0.5760   25.7770 C.2     1  UNL1        0.1930
     27 F         -25.8600   -0.6810   25.7950 F       1  UNL1       -0.1992
     28 C         -24.4705    1.3957   27.1580 C.2     1  UNL1        0.0030
     29 C         -30.5137    0.6988   30.2749 C.3     1  UNL1        0.0999
     30 C         -25.7513   -0.0808   28.9894 C.3     1  UNL1        0.1444
     31 F         -20.9357    2.1472   27.0778 F       1  UNL1       -0.2042
     32 C         -30.9373   -0.0486   28.0417 C.2     1  UNL1        0.1678
     33 N         -29.2361    0.7624   29.4006 N.3     1  UNL1       -0.2394
     34 C         -29.8505    0.9743   28.0115 C.3     1  UNL1        0.1395
     35 C         -23.2943    0.5897   29.1546 C.2     1  UNL1        0.0004
     36 O         -31.0903   -0.9988   27.2141 O.2     1  UNL1       -0.2946
     37 C         -28.2822   -0.4394   29.3844 C.3     1  UNL1        0.2205
     38 C         -22.1360    1.7713   27.4760 C.2     1  UNL1        0.1401
     39 C         -22.1129    1.1365   28.7123 C.2     1  UNL1        0.0294
     40 O         -27.1549   -0.0556   28.5075 O.3     1  UNL1       -0.3349
     41 C         -31.7242   -1.6211   30.0143 C.3     1  UNL1        0.0093
     42 C         -23.2597    1.9054   26.6748 C.2     1  UNL1        0.0295
     43 C         -30.1440    1.1392   31.7280 C.3     1  UNL1        0.1984
     44 C         -31.4001   -0.2077   29.4818 C.3     1  UNL1        0.0763
     45 C         -24.5302    0.6670   28.4128 C.2     1  UNL1        0.0052
     46 O         -29.9160   -0.0511   32.4637 O.3     1  UNL1       -0.2189
@<TRIPOS>BOND
     1     1    30    1
     2     2     7    1
     3     2     1    1
     4     3     2    2
     5     4     3    1
     6     4     5    2
     7     5     6    1
     8     6     7    2
     9     8     1    1
    10     8     9    1
    11     8    12    1
    12     9    10    1
    13    10    11    1
    14    12    11    1
    15    13    28    1
    16    14    13    1
    17    14    15    1
    18    15    18    2
    19    16    17    1
    20    16    15    1
    21    19    14    2
    22    20    21    2
    23    20    19    1
    24    21    26    1
    25    22    21    1
    26    23    22    1
    27    24    23    1
    28    24    25    1
    29    26    27    1
    30    26    13    2
    31    28    45    1
    32    29    43    1
    33    30    40    1
    34    31    38    1
    35    32    44    1
    36    33    29    1
    37    34    32    1
    38    34    33    1
    39    36    32    2
    40    37    33    1
    41    38    39    2
    42    39    35    1
    43    40    37    1
    44    42    28    2
    45    42    38    1
    46    43    46    1
    47    44    41    1
    48    44    29    1
    49    45    30    1
    50    45    35    2
