@<TRIPOS>MOLECULE
outputs/IAG933/test6/raw/output_2527_IAG933_linker_design_.xyz
 41 45 0 0 0
SMALL
GASTEIGER

@<TRIPOS>ATOM
      1 C         -24.8550   -1.0120   30.1430 C.3     1  UNL1        0.0981
      2 C         -24.9730   -2.5050   29.7880 C.2     1  UNL1       -0.0064
      3 C         -23.9060   -3.1730   29.1460 C.2     1  UNL1       -0.0029
      4 C         -23.9890   -4.5490   28.8530 C.2     1  UNL1       -0.0003
      5 C         -25.1370   -5.2800   29.2050 C.2     1  UNL1       -0.0000
      6 C         -26.2320   -4.6110   29.7840 C.2     1  UNL1       -0.0003
      7 C         -26.1550   -3.2320   30.0650 C.2     1  UNL1       -0.0029
      8 C         -25.3870   -0.6790   31.5710 C.3     1  UNL1        0.0916
      9 C         -25.1890    0.7730   32.0280 C.3     1  UNL1        0.0206
     10 C         -25.3360    0.6840   33.5440 C.3     1  UNL1        0.0203
     11 C         -24.8290   -0.7150   33.9050 C.3     1  UNL1        0.0888
     12 N         -24.7580   -1.4810   32.6460 N.3     1  UNL1       -0.2178
     13 C         -25.6880    1.6140   26.4610 C.2     1  UNL1        0.0912
     14 C         -26.2500    2.9200   26.3950 C.2     1  UNL1        0.0902
     15 C         -25.6420    4.0930   27.1230 C.2     1  UNL1        0.2676
     16 N         -25.6140    5.2520   26.4490 N.am    1  UNL1       -0.1997
     17 C         -25.0260    6.4790   26.9630 C.3     1  UNL1        0.1388
     18 O         -25.1430    3.9660   28.2430 O.2     1  UNL1       -0.2683
     19 C         -27.4380    3.0910   25.6450 C.2     1  UNL1        0.1080
     20 N         -28.0750    2.0890   25.0030 N.2     1  UNL1       -0.2080
     21 C         -27.5430    0.8490   25.0790 C.2     1  UNL1        0.2546
     22 O         -28.1930   -0.2080   24.4770 O.2     1  UNL1       -0.4558
     23 C         -29.4600    0.0050   23.8660 C.3     1  UNL1        0.2426
     24 C         -30.0650   -1.3770   23.5730 C.3     1  UNL1        0.2292
     25 O         -30.7290   -1.8780   24.7210 O.3     1  UNL1       -0.2162
     26 C         -26.3540    0.5760   25.7770 C.2     1  UNL1        0.2066
     27 F         -25.8600   -0.6810   25.7950 F       1  UNL1       -0.1979
     28 O         -21.5999    2.3772   26.1592 O.3     1  UNL1       -0.3853
     29 C         -25.2961    0.7997   28.6759 C.3     1  UNL1        0.1739
     30 O         -22.1690   -0.4939   30.6359 O.2     1  UNL1       -0.2943
     31 C         -23.5005    1.5555   27.0499 C.2     1  UNL1        0.1337
     32 C         -22.8607    2.4981   26.0239 C.2     1  UNL1        0.3618
     33 C         -21.0435   -0.8725   28.8563 C.3     1  UNL1        0.0741
     34 C         -21.4104    1.7598   27.4370 C.2     1  UNL1        0.3471
     35 C         -22.0760   -0.4394   29.4257 C.2     1  UNL1        0.1699
     36 N         -24.7397    1.3211   27.2761 N.pl3   1  UNL1       -0.2651
     37 O         -23.4602    3.1890   25.2847 O.2     1  UNL1       -0.2430
     38 C         -23.0629    0.1908   28.7551 C.3     1  UNL1        0.1477
     39 N         -24.4396   -0.0165   29.1116 N.3     1  UNL1       -0.2430
     40 O         -20.3446    1.8151   28.0171 O.2     1  UNL1       -0.2446
     41 C         -22.6048    1.1369   27.7800 C.2     1  UNL1        0.0954
@<TRIPOS>BOND
     1     1     2    1
     2     2     7    1
     3     3     2    2
     4     4     3    1
     5     4     5    2
     6     5     6    1
     7     6     7    2
     8     8     1    1
     9     8     9    1
    10     8    12    1
    11     9    10    1
    12    10    11    1
    13    12    11    1
    14    13    36    1
    15    14    13    1
    16    14    15    1
    17    15    18    2
    18    16    17    1
    19    16    15    1
    20    19    14    2
    21    20    21    2
    22    20    19    1
    23    21    26    1
    24    22    21    1
    25    23    22    1
    26    24    23    1
    27    24    25    1
    28    26    27    1
    29    26    13    2
    30    28    34    1
    31    29    39    1
    32    31    36    1
    33    31    41    2
    34    32    28    1
    35    32    31    1
    36    33    35    1
    37    34    41    1
    38    34    40    2
    39    35    30    2
    40    36    29    1
    41    37    32    2
    42    38    39    1
    43    38    35    1
    44    39     1    1
    45    41    38    1
