@<TRIPOS>MOLECULE
No_253-gen_results/8p0m/2024-11-27-11-27-31/
 17 18 0 0 0
SMALL
GASTEIGER

@<TRIPOS>ATOM
      1 C         -28.0162   -0.8135   28.8779 C.ar    1  UNL1        0.0084
      2 C         -28.4690   -0.7850   29.8287 C.ar    1  UNL1        0.0539
      3 C         -27.1356    0.2359   28.5352 C.ar    1  UNL1        0.0716
      4 C         -26.8745    1.2825   29.3982 C.ar    1  UNL1        0.0039
      5 C         -28.3613    0.1987   30.9244 C.ar    1  UNL1        0.0045
      6 C         -27.5277    1.2234   30.6356 C.ar    1  UNL1        0.0001
      7 C         -26.3879    0.2914   27.2334 C.3     1  UNL1        0.4186
      8 F         -25.7787   -0.5228   27.0340 F       1  UNL1       -0.1659
      9 F         -27.4096    0.4971   26.2409 F       1  UNL1       -0.1659
     10 F         -25.6634    1.5011   26.9967 F       1  UNL1       -0.1659
     11 C         -29.3955   -2.0219   30.3178 C.2     1  UNL1        0.2527
     12 O         -28.9778   -3.0866   30.3842 O.2     1  UNL1       -0.2696
     13 N         -30.6069   -1.7583   30.6837 N.am    1  UNL1       -0.2540
     14 C         -31.2911   -0.5379   30.5800 C.2     1  UNL1        0.0632
     15 C         -32.6091   -0.6474   31.0005 C.2     1  UNL1       -0.0082
     16 C         -33.0550   -1.7719   31.3455 C.3     1  UNL1        0.0493
     17 C         -31.6478   -2.6032   31.2829 C.3     1  UNL1        0.1032
@<TRIPOS>BOND
     1     3     7    1
     2     7     8    1
     3     7     9    1
     4     7    10    1
     5     2    11    1
     6    11    12    2
     7    11    13   am
     8    13    14    1
     9    14    15    2
    10    15    16    1
    11    13    17    1
    12    16    17    1
    13     1     2   ar
    14     2     5   ar
    15     5     6   ar
    16     6     4   ar
    17     4     3   ar
    18     3     1   ar
