@<TRIPOS>MOLECULE
outputs/IAG933/test6/raw/output_2532_IAG933_linker_design_.xyz
 40 44 0 0 0
SMALL
GASTEIGER

@<TRIPOS>ATOM
      1 C         -24.8550   -1.0120   30.1430 C.3     1  UNL1        0.2074
      2 C         -24.9730   -2.5050   29.7880 C.2     1  UNL1        0.0218
      3 C         -23.9060   -3.1730   29.1460 C.2     1  UNL1       -0.0004
      4 C         -23.9890   -4.5490   28.8530 C.2     1  UNL1       -0.0002
      5 C         -25.1370   -5.2800   29.2050 C.2     1  UNL1       -0.0000
      6 C         -26.2320   -4.6110   29.7840 C.2     1  UNL1       -0.0002
      7 C         -26.1550   -3.2320   30.0650 C.2     1  UNL1       -0.0004
      8 C         -25.3870   -0.6790   31.5710 C.3     1  UNL1        0.1203
      9 C         -25.1890    0.7730   32.0280 C.3     1  UNL1        0.0233
     10 C         -25.3360    0.6840   33.5440 C.3     1  UNL1        0.0204
     11 C         -24.8290   -0.7150   33.9050 C.3     1  UNL1        0.0889
     12 N         -24.7580   -1.4810   32.6460 N.3     1  UNL1       -0.2150
     13 C         -25.6880    1.6140   26.4610 C.2     1  UNL1        0.0961
     14 C         -26.2500    2.9200   26.3950 C.2     1  UNL1        0.0904
     15 C         -25.6420    4.0930   27.1230 C.2     1  UNL1        0.2676
     16 N         -25.6140    5.2520   26.4490 N.am    1  UNL1       -0.1997
     17 C         -25.0260    6.4790   26.9630 C.3     1  UNL1        0.1388
     18 O         -25.1430    3.9660   28.2430 O.2     1  UNL1       -0.2683
     19 C         -27.4380    3.0910   25.6450 C.2     1  UNL1        0.1080
     20 N         -28.0750    2.0890   25.0030 N.2     1  UNL1       -0.2080
     21 C         -27.5430    0.8490   25.0790 C.2     1  UNL1        0.2546
     22 O         -28.1930   -0.2080   24.4770 O.2     1  UNL1       -0.4558
     23 C         -29.4600    0.0050   23.8660 C.3     1  UNL1        0.2426
     24 C         -30.0650   -1.3770   23.5730 C.3     1  UNL1        0.2292
     25 O         -30.7290   -1.8780   24.7210 O.3     1  UNL1       -0.2162
     26 C         -26.3540    0.5760   25.7770 C.2     1  UNL1        0.2067
     27 F         -25.8600   -0.6810   25.7950 F       1  UNL1       -0.1979
     28 N         -24.2895   -0.0532   29.2281 N.am    1  UNL1       -0.1244
     29 N         -24.6390    1.2312   27.3364 N.am    1  UNL1       -0.2073
     30 O         -23.1916    2.8355   25.2852 O.co2   1  UNL1       -0.2434
     31 C         -20.9497   -0.2932   28.9936 C.2     1  UNL1        0.2236
     32 O         -26.3411    0.4460   28.6490 O.2     1  UNL1       -0.2230
     33 C         -22.8927    0.0040   29.0503 C.2     1  UNL1        0.3202
     34 C         -22.3707    0.6469   27.9788 C.2     1  UNL1        0.0914
     35 C         -25.1629    0.5595   28.4123 C.2     1  UNL1        0.4032
     36 C         -22.5565    1.9986   25.8522 C.2     1  UNL1        0.3874
     37 N         -21.9927   -0.6053   29.6831 N.pl3   1  UNL1       -0.0072
     38 C         -23.2561    1.3281   27.0207 C.3     1  UNL1        0.2157
     39 C         -20.9985    0.4152   27.9365 C.2     1  UNL1        0.0532
     40 O         -21.2831    1.7623   25.6409 O.co2   1  UNL1       -0.2434
@<TRIPOS>BOND
     1     1     2    1
     2     2     7    1
     3     3     2    2
     4     4     3    1
     5     4     5    2
     6     5     6    1
     7     6     7    2
     8     8     1    1
     9     8     9    1
    10     8    12    1
    11     9    10    1
    12    10    11    1
    13    12    11    1
    14    13    29    1
    15    14    13    1
    16    14    15    1
    17    15    18    2
    18    16    17    1
    19    16    15    1
    20    19    14    2
    21    20    21    2
    22    20    19    1
    23    21    26    1
    24    22    21    1
    25    23    22    1
    26    24    23    1
    27    24    25    1
    28    26    27    1
    29    26    13    2
    30    28     1    1
    31    29    35   am
    32    30    36   ar
    33    31    37    1
    34    33    28    1
    35    33    37    1
    36    34    33    2
    37    35    32    2
    38    35    28   am
    39    38    36    1
    40    38    29    1
    41    38    34    1
    42    39    34    1
    43    39    31    2
    44    40    36   ar
