@<TRIPOS>MOLECULE
No_2534-gen_results/8p0m/2024-11-27-11-27-31/
 15 16 0 0 0
SMALL
GASTEIGER

@<TRIPOS>ATOM
      1 C         -28.0162   -0.8135   28.8779 C.3     1  UNL1        0.0311
      2 C         -27.0636   -0.1189   28.6079 C.ar    1  UNL1       -0.0218
      3 C         -25.7647   -0.3897   29.0360 C.ar    1  UNL1       -0.0043
      4 C         -24.5516    0.4058   28.7646 C.ar    1  UNL1       -0.0003
      5 C         -24.6957    1.4480   27.7988 C.ar    1  UNL1       -0.0000
      6 C         -26.0010    1.6784   27.2965 C.ar    1  UNL1       -0.0003
      7 C         -27.0736    0.9682   27.6500 C.ar    1  UNL1       -0.0043
      8 C         -28.6424   -0.4818   30.1960 C.3     1  UNL1        0.0333
      9 C         -28.2929    0.5574   30.7802 C.ar    1  UNL1        0.0056
     10 C         -28.6464    1.1231   31.8065 C.ar    1  UNL1       -0.0020
     11 C         -28.1545    2.3877   32.4291 C.ar    1  UNL1       -0.0002
     12 C         -27.0690    3.0106   31.7065 C.ar    1  UNL1        0.0023
     13 C         -26.5495    2.3635   30.6122 C.ar    1  UNL1        0.0293
     14 C         -27.0431    1.2567   30.1965 C.ar    1  UNL1        0.1361
     15 F         -26.4347    0.9567   29.4483 F       1  UNL1       -0.2045
@<TRIPOS>BOND
     1     1     8    1
     2    14    15    1
     3     1     2    1
     4     8     9    1
     5     2     3   ar
     6     3     4   ar
     7     4     5   ar
     8     5     6   ar
     9     6     7   ar
    10     7     2   ar
    11     9    10   ar
    12    10    11   ar
    13    11    12   ar
    14    12    13   ar
    15    13    14   ar
    16    14     9   ar
