@<TRIPOS>MOLECULE
No_2536-gen_results/8p0m/2024-11-27-11-27-31/
 30 33 0 0 0
SMALL
GASTEIGER

@<TRIPOS>ATOM
      1 C         -28.0162   -0.8135   28.8779 C.ar    1  UNL1       -0.0048
      2 C         -27.0636   -0.1189   28.6079 C.ar    1  UNL1        0.0075
      3 C         -25.7647   -0.3897   29.0360 C.ar    1  UNL1       -0.0015
      4 C         -25.5296   -1.5302   29.9014 C.ar    1  UNL1       -0.0005
      5 C         -26.6888   -2.2893   30.1810 C.ar    1  UNL1       -0.0029
      6 C         -27.8727   -1.9508   29.7373 C.ar    1  UNL1       -0.0064
      7 C         -29.0016   -2.8142   30.1793 C.3     1  UNL1        0.0991
      8 N         -29.3761   -2.6715   31.3038 N.3     1  UNL1       -0.2699
      9 C         -29.5239   -1.6069   31.9020 C.3     1  UNL1        0.0723
     10 C         -29.9796   -1.6298   33.3315 C.3     1  UNL1        0.0174
     11 C         -29.7384   -3.9205   32.1427 C.3     1  UNL1        0.0621
     12 C         -29.6704   -5.1758   31.4739 C.3     1  UNL1        0.0423
     13 C         -30.4001   -3.6633   33.2795 C.3     1  UNL1        0.0164
     14 C         -30.5173   -2.6775   33.6961 C.3     1  UNL1        0.0028
     15 C         -30.8379   -5.7586   31.1529 C.ar    1  UNL1       -0.0208
     16 C         -30.8687   -6.8138   30.6562 C.ar    1  UNL1       -0.0042
     17 C         -32.0386   -7.3115   30.1392 C.ar    1  UNL1       -0.0003
     18 C         -33.2001   -6.6449   30.2470 C.ar    1  UNL1       -0.0000
     19 C         -33.1637   -5.4623   30.8875 C.ar    1  UNL1       -0.0003
     20 C         -31.9819   -4.9067   31.2922 C.ar    1  UNL1       -0.0042
     21 C         -24.5259    0.3846   28.6296 C.ar    1  UNL1        0.0063
     22 C         -23.3226    0.1058   29.1472 C.ar    1  UNL1        0.0798
     23 C         -23.2062   -1.1258   29.9179 C.ar    1  UNL1        0.0066
     24 C         -24.2584   -1.8619   30.3358 C.ar    1  UNL1        0.0002
     25 C         -22.1299    0.7884   28.7061 C.2     1  UNL1        0.3878
     26 O         -22.0855    1.4624   27.6813 O.co2   1  UNL1       -0.2406
     27 O         -20.9325    0.2591   29.1334 O.co2   1  UNL1       -0.2406
     28 C         -27.1775    1.0714   27.6443 C.3     1  UNL1        0.1808
     29 CL        -27.6048    2.4864   28.2623 Cl      1  UNL1       -0.0921
     30 CL        -27.8966    0.7040   26.0829 Cl      1  UNL1       -0.0921
@<TRIPOS>BOND
     1     6     7    1
     2     7     8    1
     3     8     9    1
     4     8    11    1
     5    11    12    1
     6    11    13    1
     7    10    14    1
     8    13    14    1
     9    12    15    1
    10    22    25    1
    11    25    26   ar
    12    25    27   ar
    13     2    28    1
    14    28    29    1
    15    28    30    1
    16     9    10    1
    17    15    16   ar
    18    16    17   ar
    19    17    18   ar
    20    18    19   ar
    21    19    20   ar
    22    20    15   ar
    23     1     2   ar
    24     2     3   ar
    25     4     5   ar
    26     5     6   ar
    27     6     1   ar
    28     3     4   ar
    29     4    24   ar
    30    24    23   ar
    31    23    22   ar
    32    22    21   ar
    33    21     3   ar
