@<TRIPOS>MOLECULE
outputs/IAG933/test6/raw/output_2538_IAG933_linker_design_.xyz
 41 44 0 0 0
SMALL
GASTEIGER

@<TRIPOS>ATOM
      1 C         -24.8550   -1.0120   30.1430 C.3     1  UNL1        0.0977
      2 C         -24.9730   -2.5050   29.7880 C.2     1  UNL1       -0.0064
      3 C         -23.9060   -3.1730   29.1460 C.2     1  UNL1       -0.0029
      4 C         -23.9890   -4.5490   28.8530 C.2     1  UNL1       -0.0003
      5 C         -25.1370   -5.2800   29.2050 C.2     1  UNL1       -0.0000
      6 C         -26.2320   -4.6110   29.7840 C.2     1  UNL1       -0.0003
      7 C         -26.1550   -3.2320   30.0650 C.2     1  UNL1       -0.0029
      8 C         -25.3870   -0.6790   31.5710 C.3     1  UNL1        0.0916
      9 C         -25.1890    0.7730   32.0280 C.3     1  UNL1        0.0206
     10 C         -25.3360    0.6840   33.5440 C.3     1  UNL1        0.0203
     11 C         -24.8290   -0.7150   33.9050 C.3     1  UNL1        0.0888
     12 N         -24.7580   -1.4810   32.6460 N.3     1  UNL1       -0.2178
     13 C         -25.6880    1.6140   26.4610 C.2     1  UNL1        0.0426
     14 C         -26.2500    2.9200   26.3950 C.2     1  UNL1        0.0768
     15 C         -25.6420    4.0930   27.1230 C.2     1  UNL1        0.2664
     16 N         -25.6140    5.2520   26.4490 N.am    1  UNL1       -0.1997
     17 C         -25.0260    6.4790   26.9630 C.3     1  UNL1        0.1388
     18 O         -25.1430    3.9660   28.2430 O.2     1  UNL1       -0.2683
     19 C         -27.4380    3.0910   25.6450 C.2     1  UNL1        0.1067
     20 N         -28.0750    2.0890   25.0030 N.2     1  UNL1       -0.2081
     21 C         -27.5430    0.8490   25.0790 C.2     1  UNL1        0.2533
     22 O         -28.1930   -0.2080   24.4770 O.2     1  UNL1       -0.4558
     23 C         -29.4600    0.0050   23.8660 C.3     1  UNL1        0.2426
     24 C         -30.0650   -1.3770   23.5730 C.3     1  UNL1        0.2292
     25 O         -30.7290   -1.8780   24.7210 O.3     1  UNL1       -0.2162
     26 C         -26.3540    0.5760   25.7770 C.2     1  UNL1        0.1934
     27 F         -25.8600   -0.6810   25.7950 F       1  UNL1       -0.1992
     28 C         -26.5723   -0.2331   28.1897 C.3     1  UNL1        0.0229
     29 C         -22.0898    1.2318   27.1811 C.2     1  UNL1        0.2684
     30 CL        -22.5687    2.7386   25.0510 Cl      1  UNL1        0.1367
     31 N         -24.4738   -0.0566   29.1677 N.3     1  UNL1       -0.2488
     32 C         -23.2581    0.6378   29.4298 C.3     1  UNL1        0.1759
     33 C         -21.9808    0.2131   29.1945 C.3     1  UNL1        0.1542
     34 C         -24.7146    1.0741   27.2428 C.2     1  UNL1        0.0335
     35 O         -21.6114    1.7478   25.9871 O.2     1  UNL1       -0.3582
     36 N         -21.2854    0.7402   28.1589 N.pl3   1  UNL1       -0.1941
     37 N         -24.2469    3.3709   31.3055 N.2     1  UNL1       -0.1270
     38 N         -23.5899    1.9089   29.6804 N.pl3   1  UNL1       -0.1996
     39 C         -23.3954    1.1911   27.0673 C.1     1  UNL1       -0.0494
     40 C         -23.6524    2.5159   30.7482 C.2     1  UNL1        0.2056
     41 C         -25.2497    0.2170   28.1904 C.3     1  UNL1        0.0891
@<TRIPOS>BOND
     1     1     2    1
     2     2     7    1
     3     3     2    2
     4     4     3    1
     5     4     5    2
     6     5     6    1
     7     6     7    2
     8     8     1    1
     9     8     9    1
    10     8    12    1
    11     9    10    1
    12    10    11    1
    13    12    11    1
    14    13    34    1
    15    14    13    1
    16    14    15    1
    17    15    18    2
    18    16    17    1
    19    16    15    1
    20    19    14    2
    21    20    21    2
    22    20    19    1
    23    21    26    1
    24    22    21    1
    25    23    22    1
    26    24    23    1
    27    24    25    1
    28    26    27    1
    29    26    13    2
    30    29    36    1
    31    30    35    1
    32    31    32    1
    33    31     1    1
    34    32    38    1
    35    33    32    1
    36    34    41    1
    37    35    29    1
    38    36    33    1
    39    38    40    1
    40    39    29    2
    41    39    34    2
    42    40    37    2
    43    41    28    1
    44    41    31    1
