@<TRIPOS>MOLECULE
outputs/IAG933/test6/raw/output_2546_IAG933_linker_design_.xyz
 41 46 0 0 0
SMALL
GASTEIGER

@<TRIPOS>ATOM
      1 C         -24.8550   -1.0120   30.1430 C.3     1  UNL1        0.0567
      2 C         -24.9730   -2.5050   29.7880 C.2     1  UNL1       -0.0197
      3 C         -23.9060   -3.1730   29.1460 C.2     1  UNL1       -0.0042
      4 C         -23.9890   -4.5490   28.8530 C.2     1  UNL1       -0.0003
      5 C         -25.1370   -5.2800   29.2050 C.2     1  UNL1       -0.0000
      6 C         -26.2320   -4.6110   29.7840 C.2     1  UNL1       -0.0003
      7 C         -26.1550   -3.2320   30.0650 C.2     1  UNL1       -0.0042
      8 C         -25.3870   -0.6790   31.5710 C.3     1  UNL1        0.0782
      9 C         -25.1890    0.7730   32.0280 C.3     1  UNL1        0.0181
     10 C         -25.3360    0.6840   33.5440 C.3     1  UNL1        0.0202
     11 C         -24.8290   -0.7150   33.9050 C.3     1  UNL1        0.0887
     12 N         -24.7580   -1.4810   32.6460 N.3     1  UNL1       -0.2191
     13 C         -25.6880    1.6140   26.4610 C.2     1  UNL1        0.0407
     14 C         -26.2500    2.9200   26.3950 C.2     1  UNL1        0.0744
     15 C         -25.6420    4.0930   27.1230 C.2     1  UNL1        0.2219
     16 N         -25.6140    5.2520   26.4490 N.2     1  UNL1       -0.2357
     17 C         -25.0260    6.4790   26.9630 C.3     1  UNL1        0.1550
     18 O         -25.1430    3.9660   28.2430 O.2     1  UNL1       -0.4598
     19 C         -27.4380    3.0910   25.6450 C.2     1  UNL1        0.1068
     20 N         -28.0750    2.0890   25.0030 N.2     1  UNL1       -0.2081
     21 C         -27.5430    0.8490   25.0790 C.2     1  UNL1        0.2533
     22 O         -28.1930   -0.2080   24.4770 O.2     1  UNL1       -0.4558
     23 C         -29.4600    0.0050   23.8660 C.3     1  UNL1        0.2426
     24 C         -30.0650   -1.3770   23.5730 C.3     1  UNL1        0.2292
     25 O         -30.7290   -1.8780   24.7210 O.3     1  UNL1       -0.2162
     26 C         -26.3540    0.5760   25.7770 C.2     1  UNL1        0.1931
     27 F         -25.8600   -0.6810   25.7950 F       1  UNL1       -0.1992
     28 C         -25.6732    3.7287   29.5653 C.3     1  UNL1        0.2194
     29 C         -23.4638   -0.6087   29.6754 C.3     1  UNL1        0.1083
     30 O         -27.7007    3.5413   30.7468 O.3     1  UNL1       -0.2335
     31 O         -21.9855    0.6566   28.4745 O.3     1  UNL1       -0.2614
     32 O         -28.6146    3.7761   28.3679 O.3     1  UNL1       -0.2535
     33 C         -22.1433    1.5193   27.4939 C.3     1  UNL1        0.2586
     34 C         -23.8462    1.8071   29.0867 C.3     1  UNL1        0.1621
     35 C         -27.0996    3.7589   29.9049 C.3     1  UNL1        0.2901
     36 C         -25.2508    2.0858   31.3133 C.3     1  UNL1        0.0081
     37 N         -28.1438    4.0476   29.4404 N.3     1  UNL1       -0.0171
     38 C         -29.6549    3.0972   28.9588 C.3     1  UNL1        0.2035
     39 N         -23.1978    0.6406   29.2097 N.3     1  UNL1       -0.1488
     40 N         -23.1847    2.3692   27.9325 N.3     1  UNL1       -0.1697
     41 C         -24.9580    2.4563   30.0271 C.3     1  UNL1        0.0779
@<TRIPOS>BOND
     1     1     2    1
     2     1     8    1
     3     2     7    1
     4     3     2    2
     5     4     3    1
     6     4     5    2
     7     5     6    1
     8     6     7    2
     9     8     9    1
    10     8    12    1
    11     9    36    1
    12     9    10    1
    13    10    11    1
    14    12    11    1
    15    14    13    1
    16    14    15    1
    17    15    18    1
    18    16    17    1
    19    16    15    2
    20    19    14    2
    21    20    21    2
    22    20    19    1
    23    21    26    1
    24    22    21    1
    25    23    22    1
    26    24    23    1
    27    24    25    1
    28    26    27    1
    29    26    13    2
    30    28    18    1
    31    29     1    1
    32    31    39    1
    33    32    38    1
    34    32    37    1
    35    33    40    1
    36    33    31    1
    37    34    40    1
    38    34    39    1
    39    34    41    1
    40    35    28    1
    41    35    30    1
    42    37    35    1
    43    37    30    1
    44    39    29    1
    45    41    28    1
    46    41    36    1
