@<TRIPOS>MOLECULE
No_2547-gen_results/8p0m/2024-11-27-11-27-31/
 16 18 0 0 0
SMALL
GASTEIGER

@<TRIPOS>ATOM
      1 N         -28.0544   -1.0498   28.7246 N.ar    1  UNL1       -0.2251
      2 C         -26.9659   -0.4722   28.7709 C.ar    1  UNL1        0.1623
      3 C         -25.9289   -1.0196   29.5059 C.ar    1  UNL1        0.0391
      4 C         -25.9372   -1.9154   29.9715 C.ar    1  UNL1        0.0047
      5 C         -27.1238   -2.7578   30.0756 C.ar    1  UNL1        0.0208
      6 C         -28.1665   -2.2164   29.4731 C.ar    1  UNL1        0.1006
      7 N         -26.8565    0.7803   28.0917 N.ar    1  UNL1       -0.2266
      8 C         -25.6686    1.4008   27.9562 C.ar    1  UNL1        0.0830
      9 C         -25.4977    2.6306   27.2824 C.ar    1  UNL1        0.0192
     10 C         -24.2092    3.2074   27.0490 C.ar    1  UNL1        0.0015
     11 C         -23.0780    2.4740   27.4188 C.ar    1  UNL1        0.0001
     12 C         -23.2076    1.2140   28.0647 C.ar    1  UNL1        0.0016
     13 C         -24.4224    0.6798   28.2922 C.ar    1  UNL1        0.0210
     14 C         -24.5725   -0.2635   29.1633 C.ar    1  UNL1        0.0466
     15 C         -23.3594   -0.9742   29.7220 C.2     1  UNL1        0.2343
     16 O         -22.6734   -1.6759   28.9779 O.2     1  UNL1       -0.2831
@<TRIPOS>BOND
     1    14    15    1
     2    15    16    2
     3     1     2   ar
     4     3     4   ar
     5     4     5   ar
     6     5     6   ar
     7     6     1   ar
     8     2     3   ar
     9     3    14   ar
    10    14    13   ar
    11     8     7   ar
    12     7     2   ar
    13     8     9   ar
    14     9    10   ar
    15    10    11   ar
    16    11    12   ar
    17    12    13   ar
    18    13     8   ar
