@<TRIPOS>MOLECULE
outputs/IAG933/test6/raw/output_255_IAG933_linker_design_.xyz
 42 45 0 0 0
SMALL
GASTEIGER

@<TRIPOS>ATOM
      1 C         -24.8550   -1.0120   30.1430 C.3     1  UNL1        0.0494
      2 C         -24.9730   -2.5050   29.7880 C.2     1  UNL1       -0.0204
      3 C         -23.9060   -3.1730   29.1460 C.2     1  UNL1       -0.0042
      4 C         -23.9890   -4.5490   28.8530 C.2     1  UNL1       -0.0003
      5 C         -25.1370   -5.2800   29.2050 C.2     1  UNL1       -0.0000
      6 C         -26.2320   -4.6110   29.7840 C.2     1  UNL1       -0.0003
      7 C         -26.1550   -3.2320   30.0650 C.2     1  UNL1       -0.0042
      8 C         -25.3870   -0.6790   31.5710 C.3     1  UNL1        0.0775
      9 C         -25.1890    0.7730   32.0280 C.3     1  UNL1        0.0192
     10 C         -25.3360    0.6840   33.5440 C.3     1  UNL1        0.0202
     11 C         -24.8290   -0.7150   33.9050 C.3     1  UNL1        0.0887
     12 N         -24.7580   -1.4810   32.6460 N.3     1  UNL1       -0.2191
     13 C         -25.6880    1.6140   26.4610 C.2     1  UNL1        0.0379
     14 C         -26.2500    2.9200   26.3950 C.2     1  UNL1        0.0765
     15 C         -25.6420    4.0930   27.1230 C.2     1  UNL1        0.2664
     16 N         -25.6140    5.2520   26.4490 N.am    1  UNL1       -0.1997
     17 C         -25.0260    6.4790   26.9630 C.3     1  UNL1        0.1388
     18 O         -25.1430    3.9660   28.2430 O.2     1  UNL1       -0.2683
     19 C         -27.4380    3.0910   25.6450 C.2     1  UNL1        0.1067
     20 N         -28.0750    2.0890   25.0030 N.2     1  UNL1       -0.2081
     21 C         -27.5430    0.8490   25.0790 C.2     1  UNL1        0.2533
     22 O         -28.1930   -0.2080   24.4770 O.2     1  UNL1       -0.4558
     23 C         -29.4600    0.0050   23.8660 C.3     1  UNL1        0.2426
     24 C         -30.0650   -1.3770   23.5730 C.3     1  UNL1        0.2292
     25 O         -30.7290   -1.8780   24.7210 O.3     1  UNL1       -0.2162
     26 C         -26.3540    0.5760   25.7770 C.2     1  UNL1        0.1930
     27 F         -25.8600   -0.6810   25.7950 F       1  UNL1       -0.1992
     28 C         -24.4957    1.3126   27.1690 C.2     1  UNL1        0.0012
     29 C         -24.4743    0.7872   28.4734 C.2     1  UNL1       -0.0149
     30 C         -27.4468    2.3091   29.3061 C.3     1  UNL1        0.1380
     31 C         -25.6577   -0.0442   29.1382 C.3     1  UNL1        0.0866
     32 C         -27.0798    0.9490   29.5015 C.2     1  UNL1        0.1707
     33 C         -28.9497    3.8604   30.9522 C.3     1  UNL1        0.0900
     34 C         -23.3485    1.6344   26.3530 C.2     1  UNL1        0.0294
     35 N         -27.7684    3.2120   30.2558 N.3     1  UNL1       -0.2653
     36 C         -23.1852    0.8799   29.0864 C.2     1  UNL1       -0.0015
     37 O         -27.9180    0.2752   29.9745 O.2     1  UNL1       -0.2942
     38 C         -26.8418    3.5608   31.1879 C.3     1  UNL1        0.0726
     39 F         -21.1039    2.0562   26.2574 F       1  UNL1       -0.2042
     40 C         -22.1657    1.6883   27.0305 C.2     1  UNL1        0.1401
     41 C         -22.0614    1.3277   28.3718 C.2     1  UNL1        0.0293
     42 C         -26.6011    5.0072   31.1543 C.3     1  UNL1        0.0188
@<TRIPOS>BOND
     1     1    31    1
     2     2     7    1
     3     2     1    1
     4     3     2    2
     5     4     3    1
     6     4     5    2
     7     5     6    1
     8     6     7    2
     9     8     1    1
    10     8     9    1
    11     8    12    1
    12     9    10    1
    13    10    11    1
    14    12    11    1
    15    13    28    1
    16    14    13    1
    17    14    15    1
    18    15    18    2
    19    16    17    1
    20    16    15    1
    21    19    14    2
    22    20    21    2
    23    20    19    1
    24    21    26    1
    25    22    21    1
    26    23    22    1
    27    24    23    1
    28    24    25    1
    29    26    27    1
    30    26    13    2
    31    28    29    1
    32    29    36    2
    33    29    31    1
    34    30    32    1
    35    30    35    1
    36    31    32    1
    37    32    37    2
    38    34    40    1
    39    34    28    2
    40    35    33    1
    41    35    38    1
    42    39    40    1
    43    40    41    2
    44    41    36    1
    45    42    38    1
