@<TRIPOS>MOLECULE
No_2550-gen_results/8p0m/2024-11-27-11-27-31/
 35 38 0 0 0
SMALL
GASTEIGER

@<TRIPOS>ATOM
      1 C         -28.0162   -0.8135   28.8779 C.ar    1  UNL1        0.0046
      2 C         -27.0636   -0.1190   28.6079 C.ar    1  UNL1        0.0001
      3 C         -25.7923   -0.4302   29.0761 C.ar    1  UNL1        0.0000
      4 C         -24.5456    0.3494   28.8225 C.ar    1  UNL1        0.0008
      5 C         -24.6586    1.4196   27.8878 C.ar    1  UNL1        0.0114
      6 C         -23.5403    2.1791   27.5500 C.ar    1  UNL1        0.0577
      7 C         -22.2925    1.7428   28.0473 C.ar    1  UNL1        0.0114
      8 C         -22.1712    0.7079   28.9284 C.ar    1  UNL1        0.0009
      9 C         -23.3345   -0.0624   29.3081 C.ar    1  UNL1        0.0001
     10 C         -27.9466   -1.8823   29.8708 C.ar    1  UNL1        0.0551
     11 C         -26.7159   -2.3287   30.3060 C.ar    1  UNL1        0.0046
     12 C         -25.5921   -1.5643   29.9672 C.ar    1  UNL1        0.0001
     13 C         -29.1222   -2.6863   30.2515 C.2     1  UNL1        0.2655
     14 N         -30.2683   -2.1852   30.2487 N.am    1  UNL1       -0.1872
     15 O         -28.9716   -3.9723   30.3919 O.2     1  UNL1       -0.2683
     16 CA        -31.4013   -2.6317   30.5959 C.3     1  UNL1        0.2200
     17 C         -31.7006   -3.4416   31.3340 C.2     1  UNL1        0.0065
     18 C         -32.3292   -2.5696   29.3667 C.2     1  UNL1        0.3884
     19 O         -32.3165   -1.6282   28.6173 O.co2   1  UNL1       -0.2434
     20 OXT       -32.9912   -3.6534   28.9822 O.co2   1  UNL1       -0.2434
     21 C         -32.0203   -2.9154   32.6743 C.2     1  UNL1       -0.0023
     22 C         -32.0658   -1.5437   32.8532 C.ar    1  UNL1       -0.0002
     23 C         -32.0840   -0.6639   31.9530 C.ar    1  UNL1       -0.0000
     24 C         -32.0693    0.8022   32.3660 C.ar    1  UNL1        0.0002
     25 C         -32.1495    1.0446   33.7035 C.ar    1  UNL1        0.0054
     26 C         -32.1970    0.1001   34.6425 C.ar    1  UNL1        0.0423
     27 C         -32.1109   -1.2040   34.2860 C.ar    1  UNL1        0.0033
     28 C         -32.0313    1.8162   31.2974 C.ar    1  UNL1        0.0023
     29 C         -32.2737    2.9566   31.6166 C.ar    1  UNL1        0.0296
     30 C         -32.3484    3.3683   33.0214 C.ar    1  UNL1        0.1401
     31 C         -32.3025    2.4885   33.9927 C.ar    1  UNL1        0.0297
     32 F         -32.4612    4.6964   33.2793 F       1  UNL1       -0.2042
     33 CL        -23.6827    3.4422   26.4433 Cl      1  UNL1       -0.0822
     34 C         -32.2291    0.4669   36.0782 C.2     1  UNL1        0.2342
     35 O         -32.8732   -0.1310   36.8001 O.2     1  UNL1       -0.2831
@<TRIPOS>BOND
     1     3     4    1
     2    10    13    1
     3    13    14   am
     4    13    15    2
     5    14    16    1
     6    16    17    1
     7    16    18    1
     8    18    19   ar
     9    18    20   ar
    10    17    21    2
    11    21    22    1
    12    30    32    1
    13     6    33    1
    14    26    34    1
    15    34    35    2
    16    25    31   ar
    17    31    30   ar
    18    30    29   ar
    19    29    28   ar
    20    28    24   ar
    21    22    23   ar
    22    23    24   ar
    23    24    25   ar
    24    25    26   ar
    25    26    27   ar
    26    27    22   ar
    27     1     2   ar
    28     2     3   ar
    29     3    12   ar
    30    12    11   ar
    31    11    10   ar
    32    10     1   ar
    33     4     5   ar
    34     5     6   ar
    35     6     7   ar
    36     7     8   ar
    37     8     9   ar
    38     9     4   ar
