@<TRIPOS>MOLECULE
No_2551-gen_results/8p0m/2024-11-27-11-27-31/
 24 27 0 0 0
SMALL
GASTEIGER

@<TRIPOS>ATOM
      1 C         -28.0162   -0.8135   28.8779 C.ar    1  UNL1       -0.0043
      2 C         -28.4690   -0.7850   29.8287 C.ar    1  UNL1       -0.0003
      3 C         -26.5042   -0.7777   28.8766 C.ar    1  UNL1       -0.0218
      4 C         -25.6540   -0.6597   27.7191 C.3     1  UNL1        0.0350
      5 C         -27.9180   -0.9374   31.1824 C.ar    1  UNL1       -0.0000
      6 C         -26.5423   -0.9399   31.2606 C.ar    1  UNL1       -0.0006
      7 C         -25.7832   -0.8935   30.1201 C.ar    1  UNL1       -0.0079
      8 C         -25.8989    0.3149   26.7473 C.3     1  UNL1        0.0483
      9 C         -25.6389    1.5609   26.9737 C.ar    1  UNL1       -0.0172
     10 C         -26.5079   -0.0955   25.4840 C.2     1  UNL1       -0.0259
     11 C         -24.6306    2.0110   27.9296 C.ar    1  UNL1       -0.0039
     12 C         -24.6829    3.2546   28.4477 C.ar    1  UNL1       -0.0006
     13 C         -25.4129    4.2621   27.7467 C.ar    1  UNL1       -0.0023
     14 C         -26.5150    2.5774   26.4939 C.ar    1  UNL1        0.0077
     15 C         -26.3504    3.7103   26.9052 C.ar    1  UNL1        0.0029
     16 C         -27.6617    0.3953   24.9419 C.2     1  UNL1       -0.0248
     17 C         -28.0712    1.7202   24.9761 C.3     1  UNL1        0.0614
     18 C         -27.5446    2.4357   25.5696 C.2     1  UNL1        0.0572
     19 N         -28.1052    3.7776   25.3593 N.2     1  UNL1       -0.2696
     20 C         -27.3332    4.5912   26.2923 C.3     1  UNL1        0.1515
     21 C         -29.1965    1.8738   24.0465 C.3     1  UNL1        0.0110
     22 C         -24.4454   -0.7506   30.1235 C.2     1  UNL1       -0.0222
     23 C         -23.8152    0.3212   30.8246 C.2     1  UNL1       -0.0046
     24 C         -23.6009   -1.8389   29.6977 C.3     1  UNL1        0.0310
@<TRIPOS>BOND
     1     3     4    1
     2     4     8    1
     3     8     9    1
     4     8    10    1
     5    10    16    2
     6    16    17    1
     7    14    18    1
     8    17    18    1
     9    18    19    2
    10    15    20    1
    11    19    20    1
    12    17    21    1
    13     7    22    1
    14    22    23    2
    15    22    24    1
    16     9    11   ar
    17    11    12   ar
    18    12    13   ar
    19    13    15   ar
    20    15    14   ar
    21    14     9   ar
    22     1     2   ar
    23     2     5   ar
    24     5     6   ar
    25     6     7   ar
    26     7     3   ar
    27     3     1   ar
