@<TRIPOS>MOLECULE
No_2556-gen_results/8p0m/2024-11-27-11-27-31/
 11 11 0 0 0
SMALL
GASTEIGER

@<TRIPOS>ATOM
      1 C         -28.0162   -0.8135   28.8779 C.3     1  UNL1        0.0521
      2 C         -27.0636   -0.1189   28.6079 C.ar    1  UNL1        0.0590
      3 N         -25.8176   -0.3427   29.0488 N.ar    1  UNL1       -0.2535
      4 C         -24.6757    0.3814   28.7496 C.ar    1  UNL1        0.0656
      5 C         -23.3317    0.0231   29.2052 C.3     1  UNL1        0.1049
      6 C         -27.1812    0.9682   27.6388 C.ar    1  UNL1        0.0147
      7 C         -26.0788    1.7596   27.1955 C.ar    1  UNL1        0.0024
      8 C         -24.7013    1.4433   27.7655 C.ar    1  UNL1        0.0151
      9 C         -23.1408   -0.9126   30.1707 C.3     1  UNL1        0.0146
     10 C         -22.2129    0.6671   28.6101 C.2     1  UNL1        0.2129
     11 O         -22.3277    1.5676   27.7549 O.2     1  UNL1       -0.2879
@<TRIPOS>BOND
     1     1     2    1
     2     4     5    1
     3     5     9    1
     4     5    10    1
     5    10    11    2
     6     2     3   ar
     7     3     4   ar
     8     4     8   ar
     9     8     7   ar
    10     7     6   ar
    11     6     2   ar
