@<TRIPOS>MOLECULE
outputs/IAG933/test6/raw/output_2559_IAG933_linker_design_.xyz
 41 44 0 0 0
SMALL
GASTEIGER

@<TRIPOS>ATOM
      1 C         -24.8550   -1.0120   30.1430 C.3     1  UNL1        0.0980
      2 C         -24.9730   -2.5050   29.7880 C.2     1  UNL1       -0.0064
      3 C         -23.9060   -3.1730   29.1460 C.2     1  UNL1       -0.0029
      4 C         -23.9890   -4.5490   28.8530 C.2     1  UNL1       -0.0003
      5 C         -25.1370   -5.2800   29.2050 C.2     1  UNL1       -0.0000
      6 C         -26.2320   -4.6110   29.7840 C.2     1  UNL1       -0.0003
      7 C         -26.1550   -3.2320   30.0650 C.2     1  UNL1       -0.0029
      8 C         -25.3870   -0.6790   31.5710 C.3     1  UNL1        0.0916
      9 C         -25.1890    0.7730   32.0280 C.3     1  UNL1        0.0206
     10 C         -25.3360    0.6840   33.5440 C.3     1  UNL1        0.0203
     11 C         -24.8290   -0.7150   33.9050 C.3     1  UNL1        0.0888
     12 N         -24.7580   -1.4810   32.6460 N.3     1  UNL1       -0.2178
     13 C         -25.6880    1.6140   26.4610 C.2     1  UNL1        0.0172
     14 C         -26.2500    2.9200   26.3950 C.2     1  UNL1        0.0726
     15 C         -25.6420    4.0930   27.1230 C.2     1  UNL1        0.2661
     16 N         -25.6140    5.2520   26.4490 N.am    1  UNL1       -0.1997
     17 C         -25.0260    6.4790   26.9630 C.3     1  UNL1        0.1388
     18 O         -25.1430    3.9660   28.2430 O.2     1  UNL1       -0.2683
     19 C         -27.4380    3.0910   25.6450 C.2     1  UNL1        0.1064
     20 N         -28.0750    2.0890   25.0030 N.2     1  UNL1       -0.2081
     21 C         -27.5430    0.8490   25.0790 C.2     1  UNL1        0.2530
     22 O         -28.1930   -0.2080   24.4770 O.2     1  UNL1       -0.4558
     23 C         -29.4600    0.0050   23.8660 C.3     1  UNL1        0.2426
     24 C         -30.0650   -1.3770   23.5730 C.3     1  UNL1        0.2292
     25 O         -30.7290   -1.8780   24.7210 O.3     1  UNL1       -0.2162
     26 C         -26.3540    0.5760   25.7770 C.2     1  UNL1        0.1892
     27 F         -25.8600   -0.6810   25.7950 F       1  UNL1       -0.1996
     28 C         -23.1553    1.4156   26.6917 C.3     1  UNL1        0.1007
     29 C         -20.1898    0.7560   28.4294 C.3     1  UNL1        0.0040
     30 C         -22.2236    2.1374   27.6957 C.3     1  UNL1        0.0127
     31 F         -23.4741    3.3992   25.4839 F       1  UNL1       -0.1700
     32 F         -23.5685    1.5430   24.3298 F       1  UNL1       -0.1700
     33 C         -21.5829    0.6399   28.4809 C.3     1  UNL1        0.0427
     34 C         -21.9019   -0.9628   29.6671 C.3     1  UNL1        0.0501
     35 C         -23.1956    2.1090   25.3469 C.3     1  UNL1        0.3979
     36 C         -24.6747    0.6717   28.5785 C.3     1  UNL1        0.0792
     37 F         -21.8876    2.4645   24.8953 F       1  UNL1       -0.1700
     38 C         -22.6523    0.1296   29.5920 C.3     1  UNL1        0.1742
     39 N         -24.0394   -0.1505   29.3844 N.3     1  UNL1       -0.2473
     40 C         -24.4463    1.2724   27.2391 C.3     1  UNL1        0.0491
     41 O         -22.8092    1.0992   30.4938 O.3     1  UNL1       -0.2090
@<TRIPOS>BOND
     1     1     2    1
     2     2     7    1
     3     3     2    2
     4     4     3    1
     5     4     5    2
     6     5     6    1
     7     6     7    2
     8     8     1    1
     9     8     9    1
    10     8    12    1
    11     9    10    1
    12    10    11    1
    13    12    11    1
    14    14    13    1
    15    14    15    1
    16    15    18    2
    17    16    17    1
    18    16    15    1
    19    19    14    2
    20    20    21    2
    21    20    19    1
    22    21    26    1
    23    22    21    1
    24    23    22    1
    25    24    23    1
    26    24    25    1
    27    26    27    1
    28    26    13    2
    29    28    35    1
    30    28    40    1
    31    28    30    1
    32    30    33    1
    33    32    35    1
    34    33    29    1
    35    33    38    1
    36    35    31    1
    37    36    39    1
    38    37    35    1
    39    38    34    1
    40    38    41    1
    41    39    38    1
    42    39     1    1
    43    40    13    1
    44    40    36    1
