@<TRIPOS>MOLECULE
outputs/IAG933/test6/raw/output_2561_IAG933_linker_design_.xyz
 44 48 0 0 0
SMALL
GASTEIGER

@<TRIPOS>ATOM
      1 C         -24.8550   -1.0120   30.1430 C.3     1  UNL1        0.0428
      2 C         -24.9730   -2.5050   29.7880 C.2     1  UNL1       -0.0208
      3 C         -23.9060   -3.1730   29.1460 C.2     1  UNL1       -0.0042
      4 C         -23.9890   -4.5490   28.8530 C.2     1  UNL1       -0.0003
      5 C         -25.1370   -5.2800   29.2050 C.2     1  UNL1       -0.0000
      6 C         -26.2320   -4.6110   29.7840 C.2     1  UNL1       -0.0003
      7 C         -26.1550   -3.2320   30.0650 C.2     1  UNL1       -0.0042
      8 C         -25.3870   -0.6790   31.5710 C.3     1  UNL1        0.0771
      9 C         -25.1890    0.7730   32.0280 C.3     1  UNL1        0.0192
     10 C         -25.3360    0.6840   33.5440 C.3     1  UNL1        0.0202
     11 C         -24.8290   -0.7150   33.9050 C.3     1  UNL1        0.0887
     12 N         -24.7580   -1.4810   32.6460 N.3     1  UNL1       -0.2191
     13 C         -25.6880    1.6140   26.4610 C.3     1  UNL1        0.0921
     14 C         -26.2500    2.9200   26.3950 C.2     1  UNL1        0.0589
     15 C         -25.6420    4.0930   27.1230 C.2     1  UNL1        0.2628
     16 N         -25.6140    5.2520   26.4490 N.am    1  UNL1       -0.2000
     17 C         -25.0260    6.4790   26.9630 C.3     1  UNL1        0.1388
     18 O         -25.1430    3.9660   28.2430 O.2     1  UNL1       -0.2686
     19 C         -27.4380    3.0910   25.6450 C.2     1  UNL1        0.1025
     20 N         -28.0750    2.0890   25.0030 N.2     1  UNL1       -0.2118
     21 C         -27.5430    0.8490   25.0790 C.2     1  UNL1        0.2344
     22 O         -28.1930   -0.2080   24.4770 O.2     1  UNL1       -0.4585
     23 C         -29.4600    0.0050   23.8660 C.3     1  UNL1        0.2423
     24 C         -30.0650   -1.3770   23.5730 C.3     1  UNL1        0.2292
     25 O         -30.7290   -1.8780   24.7210 O.3     1  UNL1       -0.2162
     26 C         -26.3540    0.5760   25.7770 C.3     1  UNL1        0.2440
     27 F         -25.8600   -0.6810   25.7950 F       1  UNL1       -0.2265
     28 C         -30.7846   -0.9956   28.2413 C.3     1  UNL1        0.0512
     29 C         -25.6108   -0.1772   29.2443 C.3     1  UNL1        0.0347
     30 C         -21.6245    1.5415   27.4222 C.2     1  UNL1        0.0177
     31 C         -26.9020    1.8237   29.6052 C.2     1  UNL1       -0.0226
     32 C         -22.5963    1.1063   28.2989 C.2     1  UNL1        0.0848
     33 C         -22.0054    1.9840   26.1430 C.2     1  UNL1        0.0011
     34 C         -28.3306    0.0629   29.6997 C.2     1  UNL1        0.1303
     35 C         -23.8790    0.9988   27.9168 C.2     1  UNL1       -0.0086
     36 C         -23.3481    1.9475   25.7803 C.2     1  UNL1       -0.0041
     37 C         -24.9699    0.6558   28.5392 C.3     1  UNL1        0.0322
     38 C         -29.0555    1.2152   29.9495 C.2     1  UNL1        0.0151
     39 C         -26.9398    0.4089   29.4141 C.2     1  UNL1        0.0079
     40 O         -28.9848   -1.1488   29.8698 O.2     1  UNL1       -0.4761
     41 C         -24.2784    1.4965   26.7207 C.2     1  UNL1       -0.0177
     42 C         -28.1503    2.2927   29.9163 C.3     1  UNL1        0.0549
     43 C         -30.4074   -1.1146   29.7079 C.3     1  UNL1        0.2055
     44 N         -22.3334    0.7874   29.5930 N.pl3   1  UNL1       -0.1284
@<TRIPOS>BOND
     1     1    29    1
     2     2     7    1
     3     2     1    1
     4     3     2    2
     5     4     3    1
     6     4     5    2
     7     5     6    1
     8     6     7    2
     9     8     1    1
    10     8     9    1
    11     8    12    1
    12     9    10    1
    13    10    11    1
    14    12    11    1
    15    13    41    1
    16    14    13    1
    17    14    15    1
    18    15    18    2
    19    16    17    1
    20    16    15    1
    21    19    14    2
    22    20    21    2
    23    20    19    1
    24    21    26    1
    25    22    21    1
    26    23    22    1
    27    24    23    1
    28    24    25    1
    29    26    27    1
    30    26    13    1
    31    28    43    1
    32    29    37    1
    33    29    39    1
    34    30    32    1
    35    31    42    1
    36    32    44    1
    37    33    30    2
    38    34    40    1
    39    34    38    2
    40    35    32    2
    41    35    37    1
    42    36    33    1
    43    36    41    2
    44    39    31    2
    45    39    34    1
    46    41    35    1
    47    42    38    1
    48    43    40    1
