@<TRIPOS>MOLECULE
No_2562-gen_results/8p0m/2024-11-27-11-27-31/
 18 19 0 0 0
SMALL
GASTEIGER

@<TRIPOS>ATOM
      1 C         -28.0162   -0.8135   28.8779 C.ar    1  UNL1        0.0296
      2 C         -28.4690   -0.7850   29.8287 C.ar    1  UNL1        0.1404
      3 C         -27.0871    0.2903   28.6377 C.ar    1  UNL1        0.0024
      4 C         -26.7676    1.0274   29.4716 C.ar    1  UNL1        0.0066
      5 C         -28.2764    0.0268   31.0145 C.ar    1  UNL1        0.0361
      6 C         -27.3287    1.0538   30.7535 C.ar    1  UNL1        0.0779
      7 C         -26.3859    0.3011   27.2661 C.ar    1  UNL1        0.0001
      8 C         -26.0047    1.5465   26.8605 C.ar    1  UNL1        0.0000
      9 C         -25.1668    1.6782   25.8655 C.ar    1  UNL1        0.0000
     10 C         -24.8385    0.5090   25.0697 C.ar    1  UNL1        0.0000
     11 C         -25.8800   -0.7019   26.5210 C.ar    1  UNL1        0.0000
     12 C         -25.1768   -0.6614   25.4696 C.ar    1  UNL1        0.0000
     13 F         -29.3910   -1.8565   30.2049 F       1  UNL1       -0.2042
     14 C         -26.9987    2.0596   31.8097 C.2     1  UNL1        0.3413
     15 O         -26.2090    2.6980   31.7899 O.2     1  UNL1       -0.2449
     16 O         -28.0664    2.2162   32.7509 O.3     1  UNL1       -0.4454
     17 C         -27.7822    2.9590   33.7606 C.3     1  UNL1        0.2089
     18 C         -27.1761    4.1554   33.5246 C.3     1  UNL1        0.0513
@<TRIPOS>BOND
     1     3     7    1
     2     2    13    1
     3     6    14    1
     4    14    15    2
     5    14    16    1
     6    16    17    1
     7    17    18    1
     8     7     8   ar
     9     8     9   ar
    10     9    10   ar
    11    10    12   ar
    12    12    11   ar
    13    11     7   ar
    14     1     2   ar
    15     2     5   ar
    16     5     6   ar
    17     6     4   ar
    18     4     3   ar
    19     3     1   ar
