@<TRIPOS>MOLECULE
No_2563-gen_results/8p0m/2024-11-27-11-27-31/
 19 20 0 0 0
SMALL
GASTEIGER

@<TRIPOS>ATOM
      1 C         -28.0162   -0.8135   28.8779 C.ar    1  UNL1       -0.0196
      2 C         -28.4690   -0.7850   29.8287 C.ar    1  UNL1       -0.0090
      3 C         -28.1960    0.3478   28.0550 C.ar    1  UNL1       -0.0256
      4 C         -29.0191    1.3501   28.3782 C.ar    1  UNL1       -0.0046
      5 C         -29.4107    0.1803   30.3782 C.ar    1  UNL1       -0.0032
      6 C         -29.6059    1.2495   29.6193 C.ar    1  UNL1       -0.0006
      7 C         -27.4597    0.3802   26.7091 C.3     1  UNL1        0.0307
      8 C         -26.0094    0.3317   26.7236 C.3     1  UNL1        0.0304
      9 C         -25.3055    0.0239   27.8527 C.2     1  UNL1       -0.0299
     10 C         -25.4404   -0.1985   28.8241 C.2     1  UNL1       -0.0210
     11 C         -26.6752   -1.0520   29.2433 C.3     1  UNL1        0.1102
     12 C         -26.3982   -2.3522   29.9720 C.3     1  UNL1        0.3263
     13 F         -27.1605   -2.6709   30.8437 F       1  UNL1       -0.1977
     14 F         -25.5624   -3.0853   29.4321 F       1  UNL1       -0.1977
     15 C         -29.0089   -2.0579   30.5804 C.3     1  UNL1        0.1109
     16 N         -29.5613   -3.0437   29.8896 N.3     1  UNL1       -0.2122
     17 C         -29.2843   -1.9723   32.0114 C.3     1  UNL1        0.1166
     18 CL        -29.8659   -2.5277   31.1126 Cl      1  UNL1       -0.1118
     19 C         -30.1405   -4.0672   29.2735 C.3     1  UNL1        0.1078
@<TRIPOS>BOND
     1     3     7    1
     2     7     8    1
     3     8     9    1
     4     9    10    2
     5     1    11    1
     6    10    11    1
     7    11    12    1
     8    12    13    1
     9    12    14    1
    10     2    15    1
    11    15    16    1
    12    15    17    1
    13    17    18    1
    14    16    19    1
    15     1     2   ar
    16     2     5   ar
    17     5     6   ar
    18     6     4   ar
    19     4     3   ar
    20     3     1   ar
