@<TRIPOS>MOLECULE
No_2564-gen_results/8p0m/2024-11-27-11-27-31/
 35 37 0 0 0
SMALL
GASTEIGER

@<TRIPOS>ATOM
      1 C         -28.0162   -0.8135   28.8779 C.ar    1  UNL1        0.0104
      2 C         -28.4690   -0.7850   29.8287 C.ar    1  UNL1        0.0797
      3 C         -27.0871    0.2903   28.6377 C.ar    1  UNL1        0.0716
      4 C         -26.8317    1.2487   29.5869 C.ar    1  UNL1        0.0039
      5 C         -28.3914    0.0801   31.0065 C.ar    1  UNL1        0.0066
      6 C         -27.4940    1.1521   30.7841 C.ar    1  UNL1        0.0002
      7 C         -26.3172    0.3994   27.3653 C.3     1  UNL1        0.4186
      8 F         -25.8454    1.5466   27.3810 F       1  UNL1       -0.1659
      9 F         -27.1886    0.3358   26.3366 F       1  UNL1       -0.1659
     10 F         -25.3648   -0.5298   27.2900 F       1  UNL1       -0.1659
     11 C         -29.4515   -2.0145   30.2416 C.2     1  UNL1        0.3877
     12 O         -30.5034   -1.9181   29.8820 O.co2   1  UNL1       -0.2406
     13 O         -28.9687   -3.0402   30.9027 O.co2   1  UNL1       -0.2406
     14 C         -27.2758    2.1671   31.8564 C.ar    1  UNL1        0.0002
     15 C         -26.4359    2.9676   31.7947 C.ar    1  UNL1        0.0064
     16 C         -26.1402    4.0459   32.8173 C.ar    1  UNL1        0.0757
     17 C         -26.9219    3.9701   33.9651 C.ar    1  UNL1        0.0064
     18 C         -27.8823    2.9915   34.0488 C.ar    1  UNL1        0.0003
     19 C         -28.0937    2.0727   33.0680 C.ar    1  UNL1        0.0000
     20 C         -25.0742    5.0287   32.6207 C.2     1  UNL1        0.3415
     21 O         -24.6666    5.2346   31.6234 O.2     1  UNL1       -0.2449
     22 O         -24.5226    5.4718   33.8028 O.3     1  UNL1       -0.4404
     23 C         -28.6774    2.9305   35.3393 C.ar    1  UNL1        0.0017
     24 C         -29.5009    2.0751   35.5435 C.ar    1  UNL1        0.0114
     25 C         -30.3587    2.0362   36.7144 C.ar    1  UNL1        0.0585
     26 C         -30.1301    3.0415   37.6749 C.ar    1  UNL1        0.0228
     27 C         -29.1728    3.9929   37.4979 C.ar    1  UNL1        0.0585
     28 C         -28.4144    4.0161   36.3525 C.ar    1  UNL1        0.0114
     29 CL        -28.8850    5.1990   38.6831 Cl      1  UNL1       -0.0822
     30 CL        -31.4903    0.8413   36.9031 Cl      1  UNL1       -0.0822
     31 C         -24.4778    6.9222   33.9073 C.3     1  UNL1        0.2352
     32 C         -25.4990    7.5689   34.0526 C.2     1  UNL1        0.0208
     33 C         -26.4734    7.1406   34.7984 C.2     1  UNL1       -0.0009
     34 C         -27.7129    7.8885   35.1334 C.2     1  UNL1       -0.0002
     35 C         -27.9462    8.9293   34.3899 C.2     1  UNL1       -0.0000
@<TRIPOS>BOND
     1     3     7    1
     2     7     8    1
     3     7     9    1
     4     7    10    1
     5     2    11    1
     6    11    12   ar
     7    11    13   ar
     8     6    14    1
     9    16    20    1
    10    20    21    2
    11    20    22    1
    12    18    23    1
    13    27    29    1
    14    25    30    1
    15    22    31    1
    16    31    32    1
    17    32    33    2
    18    33    34    1
    19    34    35    2
    20    14    15   ar
    21    15    16   ar
    22    16    17   ar
    23    17    18   ar
    24    18    19   ar
    25    19    14   ar
    26    23    24   ar
    27    24    25   ar
    28    25    26   ar
    29    26    27   ar
    30    27    28   ar
    31    28    23   ar
    32     1     2   ar
    33     2     5   ar
    34     5     6   ar
    35     6     4   ar
    36     4     3   ar
    37     3     1   ar
