@<TRIPOS>MOLECULE
outputs/IAG933/test6/raw/output_2566_IAG933_linker_design_.xyz
 44 48 0 0 0
SMALL
GASTEIGER

@<TRIPOS>ATOM
      1 C         -24.8550   -1.0120   30.1430 C.3     1  UNL1        0.0469
      2 C         -24.9730   -2.5050   29.7880 C.2     1  UNL1       -0.0207
      3 C         -23.9060   -3.1730   29.1460 C.2     1  UNL1       -0.0042
      4 C         -23.9890   -4.5490   28.8530 C.2     1  UNL1       -0.0003
      5 C         -25.1370   -5.2800   29.2050 C.2     1  UNL1       -0.0000
      6 C         -26.2320   -4.6110   29.7840 C.2     1  UNL1       -0.0003
      7 C         -26.1550   -3.2320   30.0650 C.2     1  UNL1       -0.0042
      8 C         -25.3870   -0.6790   31.5710 C.3     1  UNL1        0.0773
      9 C         -25.1890    0.7730   32.0280 C.3     1  UNL1        0.0192
     10 C         -25.3360    0.6840   33.5440 C.3     1  UNL1        0.0202
     11 C         -24.8290   -0.7150   33.9050 C.3     1  UNL1        0.0887
     12 N         -24.7580   -1.4810   32.6460 N.3     1  UNL1       -0.2191
     13 C         -25.6880    1.6140   26.4610 C.2     1  UNL1        0.0873
     14 C         -26.2500    2.9200   26.3950 C.2     1  UNL1        0.0899
     15 C         -25.6420    4.0930   27.1230 C.2     1  UNL1        0.2676
     16 N         -25.6140    5.2520   26.4490 N.am    1  UNL1       -0.1997
     17 C         -25.0260    6.4790   26.9630 C.3     1  UNL1        0.1388
     18 O         -25.1430    3.9660   28.2430 O.2     1  UNL1       -0.2683
     19 C         -27.4380    3.0910   25.6450 C.2     1  UNL1        0.1080
     20 N         -28.0750    2.0890   25.0030 N.2     1  UNL1       -0.2080
     21 C         -27.5430    0.8490   25.0790 C.2     1  UNL1        0.2546
     22 O         -28.1930   -0.2080   24.4770 O.2     1  UNL1       -0.4558
     23 C         -29.4600    0.0050   23.8660 C.3     1  UNL1        0.2426
     24 C         -30.0650   -1.3770   23.5730 C.3     1  UNL1        0.2292
     25 O         -30.7290   -1.8780   24.7210 O.3     1  UNL1       -0.2162
     26 C         -26.3540    0.5760   25.7770 C.2     1  UNL1        0.2063
     27 F         -25.8600   -0.6810   25.7950 F       1  UNL1       -0.1979
     28 C         -25.7229   -0.2487   29.1393 C.3     1  UNL1        0.0825
     29 C         -31.7425    1.9717   28.9520 C.3     1  UNL1        0.0912
     30 C         -21.2074    1.5912   27.8573 C.3     1  UNL1        0.0910
     31 N         -22.5482    1.0403   27.6219 N.3     1  UNL1       -0.2528
     32 N         -24.6795    1.4279   27.0361 N.pl3   1  UNL1       -0.2916
     33 O         -27.5604    0.5309   30.4523 O.2     1  UNL1       -0.2960
     34 C         -23.3428    1.8104   26.6343 C.3     1  UNL1        0.1690
     35 C         -30.3246    1.9444   29.3659 C.3     1  UNL1        0.1060
     36 C         -23.2153   -0.0505   28.3071 C.3     1  UNL1        0.0938
     37 C         -28.3930   -0.9374   28.7914 C.3     1  UNL1        0.0833
     38 C         -31.0230   -0.3054   28.0987 C.3     1  UNL1        0.0902
     39 C         -27.2863   -0.1614   29.4819 C.2     1  UNL1        0.1537
     40 C         -24.7237    0.2964   28.0401 C.3     1  UNL1        0.0973
     41 C         -33.3798    0.4478   28.1828 C.3     1  UNL1        0.0897
     42 C         -29.7092   -0.2388   28.9304 C.3     1  UNL1        0.0961
     43 N         -31.9781    0.8062   28.0000 N.3     1  UNL1       -0.2691
     44 N         -29.7880    0.8060   28.5316 N.3     1  UNL1       -0.2161
@<TRIPOS>BOND
     1     1    28    1
     2     2     7    1
     3     2     1    1
     4     3     2    2
     5     4     3    1
     6     4     5    2
     7     5     6    1
     8     6     7    2
     9     8     1    1
    10     8     9    1
    11     8    12    1
    12     9    10    1
    13    10    11    1
    14    12    11    1
    15    13    32    1
    16    14    13    1
    17    14    15    1
    18    15    18    2
    19    16    17    1
    20    16    15    1
    21    19    14    2
    22    20    21    2
    23    20    19    1
    24    21    26    1
    25    22    21    1
    26    23    22    1
    27    24    23    1
    28    24    25    1
    29    26    27    1
    30    26    13    2
    31    28    39    1
    32    29    35    1
    33    31    30    1
    34    31    36    1
    35    32    40    1
    36    34    32    1
    37    34    31    1
    38    37    39    1
    39    38    42    1
    40    39    33    2
    41    40    36    1
    42    40    28    1
    43    42    37    1
    44    43    38    1
    45    43    41    1
    46    43    29    1
    47    44    42    1
    48    44    35    1
