@<TRIPOS>MOLECULE
outputs/IAG933/test6/raw/output_2568_IAG933_linker_design_.xyz
 42 45 0 0 0
SMALL
GASTEIGER

@<TRIPOS>ATOM
      1 C         -24.8550   -1.0120   30.1430 C.3     1  UNL1        0.0442
      2 C         -24.9730   -2.5050   29.7880 C.2     1  UNL1       -0.0208
      3 C         -23.9060   -3.1730   29.1460 C.2     1  UNL1       -0.0042
      4 C         -23.9890   -4.5490   28.8530 C.2     1  UNL1       -0.0003
      5 C         -25.1370   -5.2800   29.2050 C.2     1  UNL1       -0.0000
      6 C         -26.2320   -4.6110   29.7840 C.2     1  UNL1       -0.0003
      7 C         -26.1550   -3.2320   30.0650 C.2     1  UNL1       -0.0042
      8 C         -25.3870   -0.6790   31.5710 C.3     1  UNL1        0.0772
      9 C         -25.1890    0.7730   32.0280 C.3     1  UNL1        0.0192
     10 C         -25.3360    0.6840   33.5440 C.3     1  UNL1        0.0202
     11 C         -24.8290   -0.7150   33.9050 C.3     1  UNL1        0.0887
     12 N         -24.7580   -1.4810   32.6460 N.3     1  UNL1       -0.2191
     13 C         -25.6880    1.6140   26.4610 C.2     1  UNL1        0.0978
     14 C         -26.2500    2.9200   26.3950 C.2     1  UNL1        0.0906
     15 C         -25.6420    4.0930   27.1230 C.2     1  UNL1        0.2677
     16 N         -25.6140    5.2520   26.4490 N.am    1  UNL1       -0.1997
     17 C         -25.0260    6.4790   26.9630 C.3     1  UNL1        0.1388
     18 O         -25.1430    3.9660   28.2430 O.2     1  UNL1       -0.2683
     19 C         -27.4380    3.0910   25.6450 C.2     1  UNL1        0.1080
     20 N         -28.0750    2.0890   25.0030 N.2     1  UNL1       -0.2080
     21 C         -27.5430    0.8490   25.0790 C.2     1  UNL1        0.2546
     22 O         -28.1930   -0.2080   24.4770 O.2     1  UNL1       -0.4558
     23 C         -29.4600    0.0050   23.8660 C.3     1  UNL1        0.2426
     24 C         -30.0650   -1.3770   23.5730 C.3     1  UNL1        0.2292
     25 O         -30.7290   -1.8780   24.7210 O.3     1  UNL1       -0.2162
     26 C         -26.3540    0.5760   25.7770 C.2     1  UNL1        0.2070
     27 F         -25.8600   -0.6810   25.7950 F       1  UNL1       -0.1979
     28 C         -24.5734    0.5535   28.1953 C.2     1  UNL1        0.0730
     29 C         -21.0951    1.4894   27.3525 C.2     1  UNL1        0.0903
     30 N         -21.9011   -0.5802   29.8333 N.pl3   1  UNL1       -0.1176
     31 C         -25.4762   -0.0889   29.0800 C.3     1  UNL1        0.0494
     32 C         -27.9332    1.2922   29.4586 C.3     1  UNL1        0.0004
     33 C         -28.5557   -0.0016   29.2550 C.3     1  UNL1        0.0004
     34 C         -28.9570    2.4846   29.4376 C.3     1  UNL1        0.0000
     35 O         -23.6230    2.6807   25.5263 O.2     1  UNL1       -0.2497
     36 C         -23.4299    0.3734   28.6104 C.1     1  UNL1       -0.0709
     37 C         -22.4439    0.1839   28.9123 C.2     1  UNL1        0.1481
     38 N         -24.5381    1.3693   27.1069 N.am    1  UNL1       -0.2150
     39 C         -23.4811    1.9283   26.4944 C.2     1  UNL1        0.3353
     40 N         -22.2243    1.7830   26.7862 N.am    1  UNL1       -0.1603
     41 C         -27.0972    0.1305   28.8002 C.3     1  UNL1        0.0063
     42 C         -20.7116    0.6273   28.0549 C.2     1  UNL1        0.0193
@<TRIPOS>BOND
     1     1    31    1
     2     2     7    1
     3     2     1    1
     4     3     2    2
     5     4     3    1
     6     4     5    2
     7     5     6    1
     8     6     7    2
     9     8     1    1
    10     8     9    1
    11     8    12    1
    12     9    10    1
    13    10    11    1
    14    12    11    1
    15    13    38    1
    16    14    13    1
    17    14    15    1
    18    15    18    2
    19    16    17    1
    20    16    15    1
    21    19    14    2
    22    20    21    2
    23    20    19    1
    24    21    26    1
    25    22    21    1
    26    23    22    1
    27    24    23    1
    28    24    25    1
    29    26    27    1
    30    26    13    2
    31    28    36    2
    32    29    42    2
    33    31    28    1
    34    32    34    1
    35    33    32    1
    36    35    39    2
    37    36    37    2
    38    37    30    1
    39    38    28    1
    40    39    40    1
    41    39    38   am
    42    40    29    1
    43    41    31    1
    44    41    33    1
    45    41    32    1
