@<TRIPOS>MOLECULE
outputs/IAG933/test6/raw/output_2571_IAG933_linker_design_.xyz
 47 51 0 0 0
SMALL
GASTEIGER

@<TRIPOS>ATOM
      1 C         -24.8550   -1.0120   30.1430 C.3     1  UNL1        0.0608
      2 C         -24.9730   -2.5050   29.7880 C.2     1  UNL1       -0.0194
      3 C         -23.9060   -3.1730   29.1460 C.2     1  UNL1       -0.0042
      4 C         -23.9890   -4.5490   28.8530 C.2     1  UNL1       -0.0003
      5 C         -25.1370   -5.2800   29.2050 C.2     1  UNL1       -0.0000
      6 C         -26.2320   -4.6110   29.7840 C.2     1  UNL1       -0.0003
      7 C         -26.1550   -3.2320   30.0650 C.2     1  UNL1       -0.0042
      8 C         -25.3870   -0.6790   31.5710 C.3     1  UNL1        0.0812
      9 C         -25.1890    0.7730   32.0280 C.3     1  UNL1        0.0493
     10 C         -25.3360    0.6840   33.5440 C.3     1  UNL1        0.0230
     11 C         -24.8290   -0.7150   33.9050 C.3     1  UNL1        0.0888
     12 N         -24.7580   -1.4810   32.6460 N.3     1  UNL1       -0.2190
     13 C         -25.6880    1.6140   26.4610 C.2     1  UNL1        0.0531
     14 C         -26.2500    2.9200   26.3950 C.2     1  UNL1        0.0778
     15 C         -25.6420    4.0930   27.1230 C.2     1  UNL1        0.2665
     16 N         -25.6140    5.2520   26.4490 N.am    1  UNL1       -0.1997
     17 C         -25.0260    6.4790   26.9630 C.3     1  UNL1        0.1388
     18 O         -25.1430    3.9660   28.2430 O.2     1  UNL1       -0.2683
     19 C         -27.4380    3.0910   25.6450 C.2     1  UNL1        0.1068
     20 N         -28.0750    2.0890   25.0030 N.2     1  UNL1       -0.2081
     21 C         -27.5430    0.8490   25.0790 C.2     1  UNL1        0.2533
     22 O         -28.1930   -0.2080   24.4770 O.2     1  UNL1       -0.4558
     23 C         -29.4600    0.0050   23.8660 C.3     1  UNL1        0.2426
     24 C         -30.0650   -1.3770   23.5730 C.3     1  UNL1        0.2292
     25 O         -30.7290   -1.8780   24.7210 O.3     1  UNL1       -0.2162
     26 C         -26.3540    0.5760   25.7770 C.2     1  UNL1        0.1943
     27 F         -25.8600   -0.6810   25.7950 F       1  UNL1       -0.1992
     28 N         -24.7196    0.1841   28.0704 N.pl3   1  UNL1       -0.2361
     29 C         -24.8300    3.2797   32.0697 C.2     1  UNL1        0.0048
     30 C         -26.1041    3.7806   32.3620 C.2     1  UNL1        0.0012
     31 N         -21.0899    1.7568   27.8785 N.2     1  UNL1       -0.1461
     32 C         -24.4605    1.1649   27.1225 C.2     1  UNL1        0.0748
     33 C         -24.6111    2.0006   31.3633 C.3     1  UNL1        0.1388
     34 C         -22.6480    2.3260   25.6234 C.2     1  UNL1        0.3362
     35 C         -23.1213    0.7626   29.9845 C.3     1  UNL1        0.1643
     36 C         -23.9617   -0.2472   29.2217 C.3     1  UNL1        0.1273
     37 C         -25.1417    5.5370   33.6886 C.2     1  UNL1        0.1387
     38 C         -23.1268    1.5497   26.7741 C.2     1  UNL1        0.1035
     39 O         -23.9499    1.9071   30.2566 O.3     1  UNL1       -0.3500
     40 O         -23.3778    3.1584   25.1338 O.2     1  UNL1       -0.2540
     41 C         -23.7355    4.0185   32.4779 C.2     1  UNL1        0.0012
     42 F         -21.4312    2.1801   25.1033 F       1  UNL1       -0.1585
     43 O         -25.2292    6.4397   34.6909 O.2     1  UNL1       -0.4714
     44 C         -22.0308    1.1430   27.4726 C.2     1  UNL1        0.1290
     45 C         -24.6018    6.0097   35.9789 C.3     1  UNL1        0.2525
     46 C         -26.2434    4.9240   33.1190 C.2     1  UNL1        0.0367
     47 C         -23.8862    5.1167   33.3077 C.2     1  UNL1        0.0367
@<TRIPOS>BOND
     1     1     2    1
     2     1     8    1
     3     2     7    1
     4     3     2    2
     5     4     3    1
     6     4     5    2
     7     5     6    1
     8     6     7    2
     9     8     9    1
    10     8    12    1
    11     9    10    1
    12    10    11    1
    13    12    11    1
    14    13    32    1
    15    14    13    1
    16    14    15    1
    17    15    18    2
    18    16    17    1
    19    16    15    1
    20    19    14    2
    21    20    21    2
    22    20    19    1
    23    21    26    1
    24    22    21    1
    25    23    22    1
    26    24    23    1
    27    24    25    1
    28    26    27    1
    29    26    13    2
    30    29    30    2
    31    29    41    1
    32    30    46    1
    33    32    28    1
    34    33     9    1
    35    33    29    1
    36    34    38    1
    37    35    39    1
    38    36    28    1
    39    36    35    1
    40    36     1    1
    41    37    43    1
    42    38    32    2
    43    38    44    1
    44    39    33    1
    45    40    34    2
    46    41    47    2
    47    42    34    1
    48    43    45    1
    49    44    31    2
    50    46    37    2
    51    47    37    1
