@<TRIPOS>MOLECULE
No_2572-gen_results/8p0m/2024-11-27-11-27-31/
 19 20 0 0 0
SMALL
GASTEIGER

@<TRIPOS>ATOM
      1 C         -28.0162   -0.8135   28.8779 C.ar    1  UNL1        0.0012
      2 C         -28.4690   -0.7850   29.8287 C.ar    1  UNL1        0.0000
      3 C         -27.0871    0.2903   28.6377 C.ar    1  UNL1        0.0138
      4 C         -26.2516    0.4114   27.4223 C.2     1  UNL1        0.0616
      5 C         -28.3913    0.1041   30.9805 C.ar    1  UNL1        0.0000
      6 C         -27.5332    1.1666   30.7866 C.ar    1  UNL1        0.0000
      7 C         -26.8281    1.2557   29.6454 C.ar    1  UNL1        0.0012
      8 N         -25.0638    0.2673   27.5265 N.2     1  UNL1       -0.2719
      9 C         -26.8721    0.6383   26.1615 C.3     1  UNL1        0.0870
     10 C         -28.2288    0.8284   25.9289 C.ar    1  UNL1        0.0261
     11 C         -29.0169    1.0669   27.0057 C.ar    1  UNL1        0.1924
     12 C         -30.4513    1.4022   26.6044 C.ar    1  UNL1        0.0417
     13 C         -30.7758    1.3366   25.2862 C.ar    1  UNL1        0.0033
     14 C         -28.6938    0.9659   24.6277 C.ar    1  UNL1       -0.0004
     15 C         -29.9218    1.2318   24.2835 C.ar    1  UNL1       -0.0001
     16 C         -25.8826    0.6325   25.0782 C.2     1  UNL1       -0.0160
     17 O         -28.9302    1.2978   28.2233 O.3     1  UNL1       -0.2869
     18 C         -24.5455    0.4786   25.2965 C.2     1  UNL1       -0.0042
     19 C         -24.4381    0.0740   28.8579 C.3     1  UNL1        0.1513
@<TRIPOS>BOND
     1     3     4    1
     2     4     8    2
     3     4     9    1
     4     9    10    1
     5     9    16    1
     6    11    17    1
     7    16    18    2
     8     8    19    1
     9    10    11   ar
    10    11    12   ar
    11    12    13   ar
    12    13    15   ar
    13    15    14   ar
    14    14    10   ar
    15     1     2   ar
    16     2     5   ar
    17     5     6   ar
    18     6     7   ar
    19     7     3   ar
    20     3     1   ar
