@<TRIPOS>MOLECULE
No_2574-gen_results/8p0m/2024-11-27-11-27-31/
 33 36 0 0 0
SMALL
GASTEIGER

@<TRIPOS>ATOM
      1 C         -28.0162   -0.8135   28.8779 C.3     1  UNL1        0.0526
      2 C         -27.0636   -0.1189   28.6079 C.ar    1  UNL1       -0.0176
      3 C         -26.8756    1.1325   28.9134 C.ar    1  UNL1        0.0006
      4 C         -25.6883    1.9515   28.5672 C.ar    1  UNL1        0.0545
      5 C         -24.6394    1.2834   27.8753 C.ar    1  UNL1        0.0202
      6 C         -24.8181   -0.0802   27.6166 C.ar    1  UNL1        0.0011
      7 C         -25.9311   -0.7717   27.9696 C.ar    1  UNL1       -0.0039
      8 C         -28.6501   -0.5385   30.2330 C.ar    1  UNL1       -0.0178
      9 C         -29.7142   -1.2183   30.6194 C.ar    1  UNL1       -0.0039
     10 C         -23.3518    1.7520   27.6310 C.2     1  UNL1        0.0866
     11 N         -23.0189    2.6067   26.8512 N.2     1  UNL1       -0.2698
     12 C         -22.1961    1.2705   28.4570 C.3     1  UNL1        0.1910
     13 N         -22.3752    0.4078   29.4375 N.3     1  UNL1       -0.2543
     14 C         -30.4082   -1.2513   31.4234 C.ar    1  UNL1       -0.0003
     15 C         -30.1730   -0.2130   32.5079 C.ar    1  UNL1       -0.0000
     16 C         -29.0668    0.5901   32.3017 C.ar    1  UNL1       -0.0003
     17 C         -28.2936    0.4564   31.1523 C.ar    1  UNL1       -0.0039
     18 N         -20.9344    1.6457   28.1142 N.3     1  UNL1       -0.1083
     19 C         -24.1254    3.0793   26.0900 C.3     1  UNL1        0.1514
     20 C         -25.5272    3.3353   28.9141 C.2     1  UNL1        0.2490
     21 N         -26.3355    4.1210   28.2787 N.am    1  UNL1       -0.2761
     22 C         -27.3598    4.0792   27.8017 C.3     1  UNL1        0.0937
     23 C         -27.9703    5.0932   27.0634 C.3     1  UNL1        0.0216
     24 C         -25.9892    5.5967   28.4578 C.3     1  UNL1        0.0937
     25 C         -26.3545    6.5875   27.6905 C.3     1  UNL1        0.0216
     26 C         -27.5558    6.3696   27.0526 C.3     1  UNL1        0.0035
     27 O         -24.8430    3.5755   29.9389 O.2     1  UNL1       -0.2699
     28 C         -22.2926   -0.8739   29.7597 C.3     1  UNL1        0.0737
     29 C         -23.0209   -1.3648   30.8599 C.3     1  UNL1        0.0174
     30 C         -24.2013   -0.5799   31.1253 C.3     1  UNL1        0.0028
     31 C         -23.8020    0.7997   30.8893 C.3     1  UNL1        0.0174
     32 C         -23.2199    1.3759   30.3634 C.3     1  UNL1        0.0737
     33 C         -24.8820   -1.0562   32.3992 C.3     1  UNL1        0.0001
@<TRIPOS>BOND
     1     1     8    1
     2     5    10    1
     3    10    11    2
     4    10    12    1
     5    12    13    1
     6    12    18    1
     7    11    19    1
     8     4    20    1
     9    20    21   am
    10    21    22    1
    11    21    24    1
    12    23    26    1
    13    25    26    1
    14    20    27    2
    15    13    28    1
    16    29    30    1
    17    30    31    1
    18    13    32    1
    19    30    33    1
    20     1     2    1
    21    28    29    1
    22    31    32    1
    23    22    23    1
    24    25    24    1
    25     2     3   ar
    26     3     4   ar
    27     4     5   ar
    28     5     6   ar
    29     6     7   ar
    30     7     2   ar
    31     8     9   ar
    32     9    14   ar
    33    14    15   ar
    34    15    16   ar
    35    16    17   ar
    36    17     8   ar
