@<TRIPOS>MOLECULE
outputs/IAG933/test6/raw/output_2576_IAG933_linker_design_.xyz
 41 46 0 0 0
SMALL
GASTEIGER

@<TRIPOS>ATOM
      1 C         -24.8550   -1.0120   30.1430 C.3     1  UNL1        0.0856
      2 C         -24.9730   -2.5050   29.7880 C.2     1  UNL1       -0.0172
      3 C         -23.9060   -3.1730   29.1460 C.2     1  UNL1       -0.0041
      4 C         -23.9890   -4.5490   28.8530 C.2     1  UNL1       -0.0003
      5 C         -25.1370   -5.2800   29.2050 C.2     1  UNL1       -0.0000
      6 C         -26.2320   -4.6110   29.7840 C.2     1  UNL1       -0.0003
      7 C         -26.1550   -3.2320   30.0650 C.2     1  UNL1       -0.0041
      8 C         -25.3870   -0.6790   31.5710 C.3     1  UNL1        0.0807
      9 C         -25.1890    0.7730   32.0280 C.3     1  UNL1        0.0193
     10 C         -25.3360    0.6840   33.5440 C.3     1  UNL1        0.0202
     11 C         -24.8290   -0.7150   33.9050 C.3     1  UNL1        0.0887
     12 N         -24.7580   -1.4810   32.6460 N.3     1  UNL1       -0.2190
     13 C         -25.6880    1.6140   26.4610 C.3     1  UNL1        0.0709
     14 C         -26.2500    2.9200   26.3950 C.2     1  UNL1        0.0548
     15 C         -25.6420    4.0930   27.1230 C.2     1  UNL1        0.2624
     16 N         -25.6140    5.2520   26.4490 N.am    1  UNL1       -0.2000
     17 C         -25.0260    6.4790   26.9630 C.3     1  UNL1        0.1388
     18 O         -25.1430    3.9660   28.2430 O.2     1  UNL1       -0.2687
     19 C         -27.4380    3.0910   25.6450 C.2     1  UNL1        0.1021
     20 N         -28.0750    2.0890   25.0030 N.2     1  UNL1       -0.2119
     21 C         -27.5430    0.8490   25.0790 C.2     1  UNL1        0.2341
     22 O         -28.1930   -0.2080   24.4770 O.2     1  UNL1       -0.4585
     23 C         -29.4600    0.0050   23.8660 C.3     1  UNL1        0.2423
     24 C         -30.0650   -1.3770   23.5730 C.3     1  UNL1        0.2292
     25 O         -30.7290   -1.8780   24.7210 O.3     1  UNL1       -0.2162
     26 C         -26.3540    0.5760   25.7770 C.3     1  UNL1        0.2400
     27 F         -25.8600   -0.6810   25.7950 F       1  UNL1       -0.2269
     28 C         -20.1875   -0.1295   28.4356 C.3     1  UNL1        0.0882
     29 C         -21.8686    2.0033   25.6581 C.2     1  UNL1       -0.0339
     30 O         -23.5987    2.0332   29.6059 O.2     1  UNL1       -0.2920
     31 C         -23.5871   -0.2800   29.6701 C.3     1  UNL1        0.2274
     32 C         -22.0974    1.8147   26.9552 C.2     1  UNL1       -0.0376
     33 C         -23.9278    1.2748   25.0904 C.3     1  UNL1        0.0058
     34 C         -23.3905    1.4314   27.4397 C.3     1  UNL1        0.0799
     35 C         -21.4714   -0.3176   29.0747 C.2     1  UNL1        0.1134
     36 C         -24.2916    1.4001   26.4272 C.3     1  UNL1        0.0185
     37 C         -23.6345    1.0591   28.9551 C.2     1  UNL1        0.1939
     38 C         -22.7340    1.7388   24.6449 C.3     1  UNL1        0.0254
     39 C         -21.0070    1.9735   27.7218 C.3     1  UNL1        0.0472
     40 C         -21.0407    0.5678   28.4313 C.2     1  UNL1       -0.0026
     41 O         -22.4662   -0.8886   29.8266 O.2     1  UNL1       -0.4759
@<TRIPOS>BOND
     1     1     2    1
     2     2     7    1
     3     3     2    2
     4     4     3    1
     5     4     5    2
     6     5     6    1
     7     6     7    2
     8     8     1    1
     9     8     9    1
    10     8    12    1
    11     9    10    1
    12    10    11    1
    13    12    11    1
    14    13    14    1
    15    14    15    1
    16    15    18    2
    17    16    17    1
    18    16    15    1
    19    19    14    2
    20    20    21    2
    21    20    19    1
    22    21    26    1
    23    22    21    1
    24    23    22    1
    25    24    23    1
    26    24    25    1
    27    26    27    1
    28    26    13    1
    29    28    35    1
    30    29    32    2
    31    31    41    1
    32    31     1    1
    33    32    39    1
    34    34    32    1
    35    34    37    1
    36    35    41    1
    37    36    33    1
    38    36    13    1
    39    36    34    1
    40    37    30    2
    41    37    31    1
    42    38    33    1
    43    38    29    1
    44    39    40    1
    45    40    28    1
    46    40    35    2
