@<TRIPOS>MOLECULE
No_2579-gen_results/8p0m/2024-11-27-11-27-31/
 16 17 0 0 0
SMALL
GASTEIGER

@<TRIPOS>ATOM
      1 C         -28.0162   -0.8135   28.8779 C.ar    1  UNL1        0.0376
      2 C         -27.0636   -0.1189   28.6079 C.ar    1  UNL1        0.1453
      3 C         -26.9716    0.7139   27.5060 C.ar    1  UNL1        0.0376
      4 C         -28.1053    0.7744   26.6421 C.ar    1  UNL1        0.0077
      5 C         -29.2008    0.1044   27.0527 C.ar    1  UNL1        0.0569
      6 C         -29.2096   -0.6029   28.1853 C.ar    1  UNL1        0.0077
      7 C         -30.3749    0.2232   26.1670 C.2     1  UNL1        0.2842
      8 N         -30.2997    0.0795   24.9312 N.am    1  UNL1       -0.0837
      9 O         -31.5477    0.2416   26.6915 O.2     1  UNL1       -0.2667
     10 O         -25.8226   -0.1974   29.3824 O.3     1  UNL1       -0.4535
     11 C         -25.0532   -1.2749   29.4419 C.ar    1  UNL1        0.1453
     12 C         -23.8908   -1.2413   28.8981 C.ar    1  UNL1        0.0375
     13 C         -25.6182   -2.4538   29.9570 C.ar    1  UNL1        0.0375
     14 C         -22.9830   -2.3551   29.0955 C.ar    1  UNL1        0.0031
     15 C         -24.8696   -3.6645   29.8982 C.ar    1  UNL1        0.0031
     16 C         -23.5544   -3.5627   29.5440 C.ar    1  UNL1        0.0002
@<TRIPOS>BOND
     1     5     7    1
     2     7     8   am
     3     7     9    2
     4     2    10    1
     5    10    11    1
     6    11    12   ar
     7    12    14   ar
     8    14    16   ar
     9    16    15   ar
    10    15    13   ar
    11    13    11   ar
    12     1     2   ar
    13     2     3   ar
    14     3     4   ar
    15     4     5   ar
    16     5     6   ar
    17     6     1   ar
