@<TRIPOS>MOLECULE
No_2580-gen_results/8p0m/2024-11-27-11-27-31/
 34 36 0 0 0
SMALL
GASTEIGER

@<TRIPOS>ATOM
      1 C         -28.0162   -0.8135   28.8779 C.ar    1  UNL1        0.0064
      2 C         -28.4690   -0.7850   29.8287 C.ar    1  UNL1        0.0756
      3 C         -27.1356    0.2359   28.5352 C.ar    1  UNL1        0.0004
      4 C         -26.8050    1.0509   29.2763 C.ar    1  UNL1        0.0063
      5 C         -27.3158    1.1492   30.6054 C.ar    1  UNL1        0.0004
      6 C         -28.1917    0.1430   30.9488 C.ar    1  UNL1        0.0064
      7 C         -26.4831    0.2096   27.1281 C.ar    1  UNL1        0.0000
      8 C         -26.2470    1.4276   26.5801 C.ar    1  UNL1        0.0002
      9 C         -25.6401    2.4203   27.4458 C.ar    1  UNL1        0.0065
     10 C         -26.2194    2.3769   28.8215 C.ar    1  UNL1        0.0761
     11 C         -25.8297    3.5357   29.6882 C.2     1  UNL1        0.3480
     12 O         -25.7955    4.6608   29.2285 O.2     1  UNL1       -0.2444
     13 O         -25.4488    3.2277   30.9179 O.3     1  UNL1       -0.3860
     14 C         -29.3470   -2.0403   30.4274 C.2     1  UNL1        0.3412
     15 O         -29.7792   -1.9308   31.6225 O.3     1  UNL1       -0.4454
     16 O         -29.1508   -3.1236   29.9256 O.2     1  UNL1       -0.2449
     17 C         -25.8397    3.8282   31.9299 C.2     1  UNL1        0.3480
     18 C         -25.0318    4.9281   32.2453 C.ar    1  UNL1        0.0761
     19 C         -25.4504    5.7531   33.3908 C.ar    1  UNL1        0.0064
     20 C         -25.1214    7.0047   33.3582 C.ar    1  UNL1        0.0041
     21 C         -24.0877    7.4298   32.5774 C.ar    1  UNL1        0.0714
     22 C         -23.6010    6.5912   31.5550 C.ar    1  UNL1        0.0041
     23 C         -24.0906    5.4361   31.4656 C.ar    1  UNL1        0.0064
     24 O         -26.7413    3.3438   32.6797 O.2     1  UNL1       -0.2444
     25 C         -23.4817    8.8473   32.7353 C.3     1  UNL1        0.4186
     26 F         -23.9263    9.4719   33.4293 F       1  UNL1       -0.1659
     27 F         -23.4508    9.3892   31.4536 F       1  UNL1       -0.1659
     28 F         -22.1516    8.5938   33.0411 F       1  UNL1       -0.1659
     29 C         -31.0656   -2.4240   31.8302 C.3     1  UNL1        0.2106
     30 C         -32.0683   -1.8389   31.2617 C.3     1  UNL1        0.0707
     31 C         -31.9627   -0.4902   31.1105 C.3     1  UNL1        0.1161
     32 N         -31.9560    0.2194   32.1706 N.pl3   1  UNL1       -0.2362
     33 C         -32.8499    1.1738   32.4114 C.2     1  UNL1        0.0801
     34 C         -32.7610    1.8985   33.6766 C.2     1  UNL1        0.0188
@<TRIPOS>BOND
     1    10    11    1
     2    11    12    2
     3    11    13    1
     4     2    14    1
     5    14    15    1
     6    14    16    2
     7    13    17    1
     8    17    18    1
     9    17    24    2
    10    21    25    1
    11    25    26    1
    12    25    27    1
    13    25    28    1
    14    15    29    1
    15    29    30    1
    16    30    31    1
    17    31    32    1
    18    32    33    1
    19    33    34    2
    20    18    19   ar
    21    19    20   ar
    22    20    21   ar
    23    21    22   ar
    24    22    23   ar
    25    23    18   ar
    26     4    10   ar
    27    10     9   ar
    28     9     8   ar
    29     8     7   ar
    30     7     3   ar
    31     1     2   ar
    32     2     6   ar
    33     6     5   ar
    34     5     4   ar
    35     4     3   ar
    36     3     1   ar
