@<TRIPOS>MOLECULE
No_2582-gen_results/8p0m/2024-11-27-11-27-31/
 27 29 0 0 0
SMALL
GASTEIGER

@<TRIPOS>ATOM
      1 C         -28.0162   -0.8135   28.8779 C.3     1  UNL1        0.0989
      2 C         -27.0636   -0.1190   28.6079 C.ar    1  UNL1       -0.0086
      3 C         -25.7647   -0.3897   29.0360 C.ar    1  UNL1       -0.0061
      4 C         -24.5516    0.4058   28.7646 C.ar    1  UNL1        0.0008
      5 C         -24.6957    1.4480   27.7988 C.ar    1  UNL1        0.0711
      6 C         -26.0010    1.6784   27.2965 C.ar    1  UNL1        0.0036
      7 C         -27.0736    0.9682   27.6500 C.ar    1  UNL1       -0.0030
      8 N         -28.6531   -0.5728   30.0856 N.3     1  UNL1       -0.2690
      9 C         -29.6922   -1.3205   30.6020 C.3     1  UNL1        0.0724
     10 C         -30.2113   -0.9471   31.8592 C.3     1  UNL1        0.0174
     11 C         -28.2180    0.4528   30.9945 C.3     1  UNL1        0.0724
     12 C         -28.7186    0.7763   32.1639 C.3     1  UNL1        0.0174
     13 C         -29.7469    0.0578   32.6459 C.3     1  UNL1        0.0029
     14 C         -23.5193    2.2122   27.4270 C.3     1  UNL1        0.4186
     15 F         -22.8591    2.0435   26.6874 F       1  UNL1       -0.1659
     16 F         -24.1354    3.5676   27.1896 F       1  UNL1       -0.1659
     17 F         -22.8187    2.5173   28.6387 F       1  UNL1       -0.1659
     18 C         -28.3877    1.3254   27.0393 C.ar    1  UNL1       -0.0003
     19 C         -28.4097    1.8198   25.8197 C.ar    1  UNL1       -0.0000
     20 C         -29.6276    2.0972   25.1710 C.ar    1  UNL1       -0.0000
     21 C         -30.7969    1.7927   25.7634 C.ar    1  UNL1       -0.0000
     22 C         -30.7662    1.2339   27.0555 C.ar    1  UNL1       -0.0000
     23 C         -29.6108    0.9945   27.6935 C.ar    1  UNL1       -0.0000
     24 C         -25.4412   -1.4928   30.0376 C.3     1  UNL1        0.1237
     25 CL        -25.9788   -1.6048   31.4181 Cl      1  UNL1       -0.1054
     26 C         -24.7881   -2.6531   29.3924 C.2     1  UNL1       -0.0059
     27 C         -23.4816   -2.6259   29.0224 C.2     1  UNL1       -0.0033
@<TRIPOS>BOND
     1     1     8    1
     2     8     9    1
     3     8    11    1
     4    10    13    1
     5    12    13    1
     6     5    14    1
     7    14    15    1
     8    14    16    1
     9    14    17    1
    10     7    18    1
    11     3    24    1
    12    24    25    1
    13    24    26    1
    14    26    27    2
    15     1     2    1
    16     9    10    1
    17    12    11    1
    18    18    19   ar
    19    19    20   ar
    20    20    21   ar
    21    21    22   ar
    22    22    23   ar
    23    23    18   ar
    24     2     3   ar
    25     3     4   ar
    26     4     5   ar
    27     5     6   ar
    28     6     7   ar
    29     7     2   ar
