@<TRIPOS>MOLECULE
outputs/IAG933/test6/raw/output_2592_IAG933_linker_design_.xyz
 44 48 0 0 0
SMALL
GASTEIGER

@<TRIPOS>ATOM
      1 C         -24.8550   -1.0120   30.1430 C.3     1  UNL1        0.0737
      2 C         -24.9730   -2.5050   29.7880 C.2     1  UNL1       -0.0181
      3 C         -23.9060   -3.1730   29.1460 C.2     1  UNL1       -0.0041
      4 C         -23.9890   -4.5490   28.8530 C.2     1  UNL1       -0.0003
      5 C         -25.1370   -5.2800   29.2050 C.2     1  UNL1       -0.0000
      6 C         -26.2320   -4.6110   29.7840 C.2     1  UNL1       -0.0003
      7 C         -26.1550   -3.2320   30.0650 C.2     1  UNL1       -0.0041
      8 C         -25.3870   -0.6790   31.5710 C.3     1  UNL1        0.0798
      9 C         -25.1890    0.7730   32.0280 C.3     1  UNL1        0.0193
     10 C         -25.3360    0.6840   33.5440 C.3     1  UNL1        0.0202
     11 C         -24.8290   -0.7150   33.9050 C.3     1  UNL1        0.0887
     12 N         -24.7580   -1.4810   32.6460 N.3     1  UNL1       -0.2190
     13 C         -25.6880    1.6140   26.4610 C.3     1  UNL1        0.1295
     14 C         -26.2500    2.9200   26.3950 C.2     1  UNL1        0.0696
     15 C         -25.6420    4.0930   27.1230 C.2     1  UNL1        0.2637
     16 N         -25.6140    5.2520   26.4490 N.am    1  UNL1       -0.2000
     17 C         -25.0260    6.4790   26.9630 C.3     1  UNL1        0.1388
     18 O         -25.1430    3.9660   28.2430 O.2     1  UNL1       -0.2686
     19 C         -27.4380    3.0910   25.6450 C.2     1  UNL1        0.1035
     20 N         -28.0750    2.0890   25.0030 N.2     1  UNL1       -0.2118
     21 C         -27.5430    0.8490   25.0790 C.2     1  UNL1        0.2355
     22 O         -28.1930   -0.2080   24.4770 O.2     1  UNL1       -0.4585
     23 C         -29.4600    0.0050   23.8660 C.3     1  UNL1        0.2423
     24 C         -30.0650   -1.3770   23.5730 C.3     1  UNL1        0.2292
     25 O         -30.7290   -1.8780   24.7210 O.3     1  UNL1       -0.2162
     26 C         -26.3540    0.5760   25.7770 C.3     1  UNL1        0.2546
     27 F         -25.8600   -0.6810   25.7950 F       1  UNL1       -0.2254
     28 C         -23.5843    0.8256   27.2547 C.3     1  UNL1        0.0593
     29 C         -25.5225   -0.1227   28.9684 C.3     1  UNL1        0.1605
     30 O         -28.6101   -0.4897   28.2429 O.2     1  UNL1       -0.2683
     31 C         -30.3207    1.5985   29.2292 C.2     1  UNL1        0.0043
     32 C         -22.7139    0.1558   28.3061 C.3     1  UNL1        0.0161
     33 C         -30.3988    4.0127   29.6840 C.2     1  UNL1        0.0106
     34 O         -30.4050    5.7479   30.1527 O.3     1  UNL1       -0.2152
     35 C         -28.1607    0.4769   28.8767 C.2     1  UNL1        0.2660
     36 C         -21.6318    1.2891   27.9042 C.3     1  UNL1        0.0028
     37 N         -26.8654    0.5525   29.4435 N.am    1  UNL1       -0.1863
     38 C         -29.0071    3.9881   29.7515 C.2     1  UNL1       -0.0016
     39 C         -22.4899    1.8490   26.7890 C.3     1  UNL1        0.0161
     40 C         -28.2688    2.8475   29.4508 C.2     1  UNL1        0.0043
     41 C         -28.9371    1.6531   29.1760 C.2     1  UNL1        0.0551
     42 C         -31.0500    2.7438   29.5589 C.2     1  UNL1       -0.0016
     43 N         -25.0397    1.2073   27.7455 N.3     1  UNL1       -0.2527
     44 C         -31.2832    5.1670   29.4209 C.3     1  UNL1        0.2086
@<TRIPOS>BOND
     1     1    29    1
     2     2     7    1
     3     2     1    1
     4     3     2    2
     5     4     3    1
     6     4     5    2
     7     5     6    1
     8     6     7    2
     9     8     1    1
    10     8     9    1
    11     8    12    1
    12     9    10    1
    13    10    11    1
    14    12    11    1
    15    13    43    1
    16    14    13    1
    17    14    15    1
    18    15    18    2
    19    16    17    1
    20    16    15    1
    21    19    14    2
    22    20    21    2
    23    20    19    1
    24    21    26    1
    25    22    21    1
    26    23    22    1
    27    24    23    1
    28    24    25    1
    29    26    27    1
    30    26    13    1
    31    28    43    1
    32    28    32    1
    33    29    37    1
    34    30    35    2
    35    31    42    1
    36    33    38    1
    37    35    41    1
    38    35    37    1
    39    36    32    1
    40    39    28    1
    41    39    36    1
    42    40    38    2
    43    41    31    2
    44    41    40    1
    45    42    33    2
    46    43    29    1
    47    44    33    1
    48    44    34    1
