@<TRIPOS>MOLECULE
outputs/IAG933/test6/raw/output_2593_IAG933_linker_design_.xyz
 48 52 0 0 0
SMALL
GASTEIGER

@<TRIPOS>ATOM
      1 C         -24.8550   -1.0120   30.1430 C.3     1  UNL1        0.0797
      2 C         -24.9730   -2.5050   29.7880 C.2     1  UNL1       -0.0155
      3 C         -23.9060   -3.1730   29.1460 C.2     1  UNL1       -0.0039
      4 C         -23.9890   -4.5490   28.8530 C.2     1  UNL1       -0.0003
      5 C         -25.1370   -5.2800   29.2050 C.2     1  UNL1       -0.0000
      6 C         -26.2320   -4.6110   29.7840 C.2     1  UNL1       -0.0003
      7 C         -26.1550   -3.2320   30.0650 C.2     1  UNL1       -0.0039
      8 C         -25.3870   -0.6790   31.5710 C.3     1  UNL1        0.0824
      9 C         -25.1890    0.7730   32.0280 C.3     1  UNL1        0.0196
     10 C         -25.3360    0.6840   33.5440 C.3     1  UNL1        0.0203
     11 C         -24.8290   -0.7150   33.9050 C.3     1  UNL1        0.0887
     12 N         -24.7580   -1.4810   32.6460 N.3     1  UNL1       -0.2187
     13 C         -25.6880    1.6140   26.4610 C.2     1  UNL1        0.0402
     14 C         -26.2500    2.9200   26.3950 C.2     1  UNL1        0.0766
     15 C         -25.6420    4.0930   27.1230 C.2     1  UNL1        0.2664
     16 N         -25.6140    5.2520   26.4490 N.am    1  UNL1       -0.1997
     17 C         -25.0260    6.4790   26.9630 C.3     1  UNL1        0.1388
     18 O         -25.1430    3.9660   28.2430 O.2     1  UNL1       -0.2683
     19 C         -27.4380    3.0910   25.6450 C.2     1  UNL1        0.1067
     20 N         -28.0750    2.0890   25.0030 N.2     1  UNL1       -0.2081
     21 C         -27.5430    0.8490   25.0790 C.2     1  UNL1        0.2533
     22 O         -28.1930   -0.2080   24.4770 O.2     1  UNL1       -0.4558
     23 C         -29.4600    0.0050   23.8660 C.3     1  UNL1        0.2426
     24 C         -30.0650   -1.3770   23.5730 C.3     1  UNL1        0.2292
     25 O         -30.7290   -1.8780   24.7210 O.3     1  UNL1       -0.2162
     26 C         -26.3540    0.5760   25.7770 C.2     1  UNL1        0.1931
     27 F         -25.8600   -0.6810   25.7950 F       1  UNL1       -0.1992
     28 C         -25.2063    0.4878   28.3865 C.ar    1  UNL1        0.0852
     29 N         -26.7551    0.3409   28.6263 N.pl3   1  UNL1       -0.2112
     30 C         -20.9368    1.1038   27.8038 C.3     1  UNL1        0.0467
     31 C         -27.8554   -0.1725   29.4720 C.2     1  UNL1        0.0718
     32 C         -31.1026    1.2928   32.8914 C.2     1  UNL1        0.2456
     33 C         -20.0470   -0.1080   28.3239 C.3     1  UNL1        0.0067
     34 C         -28.1358   -1.5377   29.6707 C.2     1  UNL1        0.0166
     35 N         -30.7061    1.1318   31.6449 N.am    1  UNL1       -0.1792
     36 C         -24.6731    1.1976   27.3330 C.ar    1  UNL1        0.0307
     37 C         -32.6028    1.5484   33.0693 C.3     1  UNL1        0.0872
     38 C         -33.0940    1.3176   34.4628 C.3     1  UNL1        0.0101
     39 C         -22.4544    0.8329   28.0255 C.ar    1  UNL1        0.0692
     40 C         -23.3718    1.3783   27.1194 C.ar    1  UNL1        0.0725
     41 N         -22.9237    0.1079   29.0569 N.ar    1  UNL1       -0.2515
     42 CL        -22.9204    2.3266   25.6482 Cl      1  UNL1       -0.0810
     43 C         -29.7109    0.2957   30.9291 C.2     1  UNL1        0.0747
     44 O         -30.3403    1.1155   33.8024 O.2     1  UNL1       -0.2730
     45 C         -29.8747   -1.0409   31.2128 C.2     1  UNL1        0.0167
     46 C         -24.2666   -0.0964   29.1776 C.ar    1  UNL1        0.0788
     47 C         -28.6900    0.7311   30.0876 C.2     1  UNL1        0.0331
     48 C         -29.1059   -1.9708   30.5410 C.2     1  UNL1        0.0027
@<TRIPOS>BOND
     1     1    46    1
     2     2     7    1
     3     2     1    1
     4     3     2    2
     5     4     3    1
     6     4     5    2
     7     5     6    1
     8     6     7    2
     9     8     1    1
    10     8     9    1
    11     8    12    1
    12     9    10    1
    13    10    11    1
    14    12    11    1
    15    13    36    1
    16    14    13    1
    17    14    15    1
    18    15    18    2
    19    16    17    1
    20    16    15    1
    21    19    14    2
    22    20    21    2
    23    20    19    1
    24    21    26    1
    25    22    21    1
    26    23    22    1
    27    24    23    1
    28    24    25    1
    29    26    27    1
    30    26    13    2
    31    28    29    1
    32    28    46   ar
    33    29    31    1
    34    30    39    1
    35    30    33    1
    36    31    34    2
    37    31    47    1
    38    32    37    1
    39    32    44    2
    40    34    48    1
    41    35    32    1
    42    36    28   ar
    43    37    38    1
    44    39    41   ar
    45    40    36   ar
    46    40    39   ar
    47    41    46   ar
    48    42    40    1
    49    43    45    1
    50    43    35    1
    51    47    43    2
    52    48    45    2
