@<TRIPOS>MOLECULE
outputs/IAG933/test6/raw/output_2594_IAG933_linker_design_.xyz
 46 50 0 0 0
SMALL
GASTEIGER

@<TRIPOS>ATOM
      1 C         -24.8550   -1.0120   30.1430 C.3     1  UNL1        0.0454
      2 C         -24.9730   -2.5050   29.7880 C.2     1  UNL1       -0.0207
      3 C         -23.9060   -3.1730   29.1460 C.2     1  UNL1       -0.0042
      4 C         -23.9890   -4.5490   28.8530 C.2     1  UNL1       -0.0003
      5 C         -25.1370   -5.2800   29.2050 C.2     1  UNL1       -0.0000
      6 C         -26.2320   -4.6110   29.7840 C.2     1  UNL1       -0.0003
      7 C         -26.1550   -3.2320   30.0650 C.2     1  UNL1       -0.0042
      8 C         -25.3870   -0.6790   31.5710 C.3     1  UNL1        0.0772
      9 C         -25.1890    0.7730   32.0280 C.3     1  UNL1        0.0192
     10 C         -25.3360    0.6840   33.5440 C.3     1  UNL1        0.0202
     11 C         -24.8290   -0.7150   33.9050 C.3     1  UNL1        0.0887
     12 N         -24.7580   -1.4810   32.6460 N.3     1  UNL1       -0.2191
     13 C         -25.6880    1.6140   26.4610 C.2     1  UNL1        0.1032
     14 C         -26.2500    2.9200   26.3950 C.2     1  UNL1        0.0927
     15 C         -25.6420    4.0930   27.1230 C.2     1  UNL1        0.2678
     16 N         -25.6140    5.2520   26.4490 N.am    1  UNL1       -0.1997
     17 C         -25.0260    6.4790   26.9630 C.3     1  UNL1        0.1388
     18 O         -25.1430    3.9660   28.2430 O.2     1  UNL1       -0.2683
     19 C         -27.4380    3.0910   25.6450 C.2     1  UNL1        0.1082
     20 N         -28.0750    2.0890   25.0030 N.2     1  UNL1       -0.2080
     21 C         -27.5430    0.8490   25.0790 C.2     1  UNL1        0.2548
     22 O         -28.1930   -0.2080   24.4770 O.2     1  UNL1       -0.4558
     23 C         -29.4600    0.0050   23.8660 C.3     1  UNL1        0.2426
     24 C         -30.0650   -1.3770   23.5730 C.3     1  UNL1        0.2292
     25 O         -30.7290   -1.8780   24.7210 O.3     1  UNL1       -0.2162
     26 C         -26.3540    0.5760   25.7770 C.2     1  UNL1        0.2090
     27 F         -25.8600   -0.6810   25.7950 F       1  UNL1       -0.1977
     28 N         -24.5530    1.3553   27.1995 N.ar    1  UNL1       -0.2860
     29 C         -28.4886    4.2640   32.3638 C.3     1  UNL1        0.0000
     30 C         -23.2086    1.4908   26.9193 C.ar    1  UNL1        0.1609
     31 C         -27.6307    4.2472   31.0661 C.3     1  UNL1        0.0000
     32 C         -27.6141    1.7735   30.5136 C.3     1  UNL1        0.0005
     33 C         -22.5341    1.7879   25.6724 C.2     1  UNL1        0.3919
     34 N         -21.4023   -1.2523   29.0361 N.2     1  UNL1       -0.1482
     35 C         -24.4705    0.7220   28.5203 C.ar    1  UNL1        0.1240
     36 C         -20.6492   -0.5841   28.1670 C.2     1  UNL1        0.1356
     37 C         -22.4641    1.0668   27.9516 C.ar    1  UNL1        0.1199
     38 C         -20.9196    0.8060   27.8968 C.3     1  UNL1        0.2484
     39 O         -20.5040    1.1675   26.6246 O.3     1  UNL1       -0.1595
     40 O         -21.2162    1.6508   25.6100 O.3     1  UNL1       -0.2886
     41 C         -25.6913   -0.0278   29.1649 C.3     1  UNL1        0.0626
     42 N         -23.1675    0.6853   29.0439 N.ar    1  UNL1       -0.2318
     43 C         -26.1508    4.4306   31.5214 C.3     1  UNL1        0.0000
     44 C         -28.1004    3.1397   30.1184 C.3     1  UNL1        0.0000
     45 C         -26.9404    1.0462   29.2894 C.3     1  UNL1        0.0079
     46 O         -23.2669    2.1425   24.6123 O.2     1  UNL1       -0.2401
@<TRIPOS>BOND
     1     1    41    1
     2     2     7    1
     3     2     1    1
     4     3     2    2
     5     4     3    1
     6     4     5    2
     7     5     6    1
     8     6     7    2
     9     8     1    1
    10     8     9    1
    11     8    12    1
    12     9    10    1
    13    10    11    1
    14    12    11    1
    15    13    28    1
    16    14    13    1
    17    14    15    1
    18    15    18    2
    19    16    17    1
    20    16    15    1
    21    19    14    2
    22    20    21    2
    23    20    19    1
    24    21    26    1
    25    22    21    1
    26    23    22    1
    27    24    23    1
    28    24    25    1
    29    26    27    1
    30    26    13    2
    31    28    35   ar
    32    30    28   ar
    33    30    37   ar
    34    31    43    1
    35    31    29    1
    36    33    30    1
    37    35    42   ar
    38    35    41    1
    39    36    34    2
    40    37    42   ar
    41    38    37    1
    42    38    36    1
    43    39    38    1
    44    40    33    1
    45    40    39    1
    46    41    45    1
    47    44    32    1
    48    44    31    1
    49    45    32    1
    50    46    33    2
