@<TRIPOS>MOLECULE
No_2595-gen_results/8p0m/2024-11-27-11-27-31/
 5 4 0 0 0
SMALL
GASTEIGER

@<TRIPOS>ATOM
      1 CL        -28.1493   -0.8198   28.9079 Cl      1  UNL1       -0.1086
      2 C         -27.8339    0.4961   29.0598 C.3     1  UNL1        0.1205
      3 C         -27.6022    1.0128   30.2974 C.2     1  UNL1       -0.0133
      4 C         -27.5822    0.3544   31.3106 C.2     1  UNL1       -0.0291
      5 C         -27.8896   -1.0945   31.2200 C.3     1  UNL1        0.0304
@<TRIPOS>BOND
     1     1     2    1
     2     2     3    1
     3     3     4    2
     4     4     5    1
