@<TRIPOS>MOLECULE
outputs/IAG933/test6/raw/output_2596_IAG933_linker_design_.xyz
 40 43 0 0 0
SMALL
GASTEIGER

@<TRIPOS>ATOM
      1 C         -24.8550   -1.0120   30.1430 C.3     1  UNL1        0.0619
      2 C         -24.9730   -2.5050   29.7880 C.2     1  UNL1       -0.0170
      3 C         -23.9060   -3.1730   29.1460 C.2     1  UNL1       -0.0039
      4 C         -23.9890   -4.5490   28.8530 C.2     1  UNL1       -0.0003
      5 C         -25.1370   -5.2800   29.2050 C.2     1  UNL1       -0.0000
      6 C         -26.2320   -4.6110   29.7840 C.2     1  UNL1       -0.0003
      7 C         -26.1550   -3.2320   30.0650 C.2     1  UNL1       -0.0039
      8 C         -25.3870   -0.6790   31.5710 C.3     1  UNL1        0.0809
      9 C         -25.1890    0.7730   32.0280 C.3     1  UNL1        0.0195
     10 C         -25.3360    0.6840   33.5440 C.3     1  UNL1        0.0203
     11 C         -24.8290   -0.7150   33.9050 C.3     1  UNL1        0.0887
     12 N         -24.7580   -1.4810   32.6460 N.3     1  UNL1       -0.2188
     13 C         -25.6880    1.6140   26.4610 C.2     1  UNL1        0.0286
     14 C         -26.2500    2.9200   26.3950 C.2     1  UNL1        0.0733
     15 C         -25.6420    4.0930   27.1230 C.2     1  UNL1        0.2661
     16 N         -25.6140    5.2520   26.4490 N.am    1  UNL1       -0.1997
     17 C         -25.0260    6.4790   26.9630 C.3     1  UNL1        0.1388
     18 O         -25.1430    3.9660   28.2430 O.2     1  UNL1       -0.2683
     19 C         -27.4380    3.0910   25.6450 C.2     1  UNL1        0.1064
     20 N         -28.0750    2.0890   25.0030 N.2     1  UNL1       -0.2081
     21 C         -27.5430    0.8490   25.0790 C.2     1  UNL1        0.2530
     22 O         -28.1930   -0.2080   24.4770 O.2     1  UNL1       -0.4558
     23 C         -29.4600    0.0050   23.8660 C.3     1  UNL1        0.2426
     24 C         -30.0650   -1.3770   23.5730 C.3     1  UNL1        0.2292
     25 O         -30.7290   -1.8780   24.7210 O.3     1  UNL1       -0.2162
     26 C         -26.3540    0.5760   25.7770 C.2     1  UNL1        0.1899
     27 F         -25.8600   -0.6810   25.7950 F       1  UNL1       -0.1996
     28 C         -22.4264    0.5118   29.1872 C.2     1  UNL1        0.0300
     29 O         -26.6147   -0.2153   28.5886 O.2     1  UNL1       -0.3505
     30 C         -22.0991    1.2229   28.0857 C.2     1  UNL1        0.1740
     31 C         -27.9134   -0.0481   28.9010 C.2     1  UNL1        0.2122
     32 C         -24.5932    0.4777   28.2148 C.2     1  UNL1        0.1052
     33 C         -29.0809    0.1563   28.6571 C.2     1  UNL1        0.0468
     34 C         -24.4236    1.3186   27.1853 C.3     1  UNL1        0.1308
     35 C         -23.0035    1.6314   27.0653 C.2     1  UNL1        0.1999
     36 F         -20.7709    1.5634   27.8932 F       1  UNL1       -0.2012
     37 O         -22.4381    2.3541   26.1433 O.2     1  UNL1       -0.3044
     38 N         -25.4552   -0.2374   28.1010 N.2     1  UNL1       -0.0809
     39 C         -23.7731    0.0812   29.1647 C.2     1  UNL1        0.0027
     40 O         -23.2756    2.6631   25.1547 O.3     1  UNL1        0.0281
@<TRIPOS>BOND
     1     1    39    1
     2     2     7    1
     3     2     1    1
     4     3     2    2
     5     4     3    1
     6     4     5    2
     7     5     6    1
     8     6     7    2
     9     8     1    1
    10     8     9    1
    11     8    12    1
    12     9    10    1
    13    10    11    1
    14    12    11    1
    15    14    13    1
    16    14    15    1
    17    15    18    2
    18    16    17    1
    19    16    15    1
    20    19    14    2
    21    20    21    2
    22    20    19    1
    23    21    26    1
    24    22    21    1
    25    23    22    1
    26    24    23    1
    27    24    25    1
    28    26    27    1
    29    26    13    2
    30    29    31    1
    31    30    28    1
    32    32    39    1
    33    33    31    2
    34    34    13    1
    35    34    32    1
    36    35    34    1
    37    35    30    2
    38    36    30    1
    39    37    35    1
    40    38    32    2
    41    38    29    1
    42    39    28    2
    43    40    37    1
