@<TRIPOS>MOLECULE
No_2600-gen_results/8p0m/2024-11-27-11-27-31/
 10 10 0 0 0
SMALL
GASTEIGER

@<TRIPOS>ATOM
      1 C         -28.0162   -0.8135   28.8779 C.ar    1  UNL1       -0.0023
      2 C         -28.4690   -0.7850   29.8287 C.ar    1  UNL1        0.0020
      3 C         -26.5042   -0.7777   28.8766 C.ar    1  UNL1       -0.0003
      4 C         -25.8103   -0.8531   30.1028 C.ar    1  UNL1       -0.0000
      5 C         -27.9906   -0.8916   31.2257 C.ar    1  UNL1       -0.0023
      6 C         -26.6042   -0.8676   31.2652 C.ar    1  UNL1       -0.0003
      7 C         -30.0739   -0.8360   29.8615 C.3     1  UNL1        0.1515
      8 N         -30.7170    0.0956   30.4784 N.2     1  UNL1       -0.2687
      9 C         -30.5285    1.1120   30.6398 C.2     1  UNL1        0.0675
     10 C         -31.5037    2.0418   31.4074 C.3     1  UNL1        0.0529
@<TRIPOS>BOND
     1     2     7    1
     2     7     8    1
     3     8     9    2
     4     9    10    1
     5     1     2   ar
     6     2     5   ar
     7     5     6   ar
     8     6     4   ar
     9     4     3   ar
    10     3     1   ar
