@<TRIPOS>MOLECULE
outputs/IAG933/test6/raw/output_2601_IAG933_linker_design_.xyz
 46 51 0 0 0
SMALL
GASTEIGER

@<TRIPOS>ATOM
      1 C         -24.8550   -1.0120   30.1430 C.3     1  UNL1        0.0572
      2 C         -24.9730   -2.5050   29.7880 C.2     1  UNL1       -0.0195
      3 C         -23.9060   -3.1730   29.1460 C.2     1  UNL1       -0.0042
      4 C         -23.9890   -4.5490   28.8530 C.2     1  UNL1       -0.0003
      5 C         -25.1370   -5.2800   29.2050 C.2     1  UNL1       -0.0000
      6 C         -26.2320   -4.6110   29.7840 C.2     1  UNL1       -0.0003
      7 C         -26.1550   -3.2320   30.0650 C.2     1  UNL1       -0.0042
      8 C         -25.3870   -0.6790   31.5710 C.3     1  UNL1        0.0784
      9 C         -25.1890    0.7730   32.0280 C.3     1  UNL1        0.0192
     10 C         -25.3360    0.6840   33.5440 C.3     1  UNL1        0.0202
     11 C         -24.8290   -0.7150   33.9050 C.3     1  UNL1        0.0887
     12 N         -24.7580   -1.4810   32.6460 N.3     1  UNL1       -0.2191
     13 C         -25.6880    1.6140   26.4610 C.2     1  UNL1        0.0391
     14 C         -26.2500    2.9200   26.3950 C.2     1  UNL1        0.0766
     15 C         -25.6420    4.0930   27.1230 C.2     1  UNL1        0.2664
     16 N         -25.6140    5.2520   26.4490 N.am    1  UNL1       -0.1997
     17 C         -25.0260    6.4790   26.9630 C.3     1  UNL1        0.1388
     18 O         -25.1430    3.9660   28.2430 O.2     1  UNL1       -0.2683
     19 C         -27.4380    3.0910   25.6450 C.2     1  UNL1        0.1067
     20 N         -28.0750    2.0890   25.0030 N.2     1  UNL1       -0.2081
     21 C         -27.5430    0.8490   25.0790 C.2     1  UNL1        0.2533
     22 O         -28.1930   -0.2080   24.4770 O.2     1  UNL1       -0.4558
     23 C         -29.4600    0.0050   23.8660 C.3     1  UNL1        0.2426
     24 C         -30.0650   -1.3770   23.5730 C.3     1  UNL1        0.2292
     25 O         -30.7290   -1.8780   24.7210 O.3     1  UNL1       -0.2162
     26 C         -26.3540    0.5760   25.7770 C.2     1  UNL1        0.1931
     27 F         -25.8600   -0.6810   25.7950 F       1  UNL1       -0.1992
     28 S         -21.8418    1.5317   27.5246 S.3     1  UNL1       -0.0753
     29 C         -24.3666    1.3091   27.1121 C.2     1  UNL1        0.0170
     30 C         -24.1137    0.5949   28.2832 C.2     1  UNL1        0.0005
     31 C         -31.6749   -0.9280   29.3769 C.3     1  UNL1        0.2068
     32 N         -26.4239    0.6143   29.2256 N.3     1  UNL1       -0.2667
     33 C         -25.2014   -0.0476   29.0425 C.3     1  UNL1        0.0861
     34 CL        -23.2025    2.5480   24.9764 Cl      1  UNL1       -0.0752
     35 O         -31.7089   -2.9748   28.0989 O.2     1  UNL1       -0.2642
     36 C         -29.6048    0.1167   29.4215 C.3     1  UNL1        0.1313
     37 C         -23.2311    1.7996   26.5512 C.2     1  UNL1        0.0867
     38 C         -30.0735    1.3716   29.5291 C.3     1  UNL1        0.0311
     39 O         -30.5693   -0.3888   28.5506 O.3     1  UNL1       -0.3494
     40 C         -31.7228   -0.3305   30.8089 C.3     1  UNL1        0.0378
     41 C         -27.3677    1.4245   29.5741 C.3     1  UNL1        0.0910
     42 O         -31.9563   -3.0510   30.3977 O.2     1  UNL1       -0.2642
     43 C         -31.2654   -2.4358   29.3400 C.3     1  UNL1        0.4521
     44 C         -27.8713    0.1101   29.1088 C.3     1  UNL1        0.1012
     45 C         -31.2546    1.2695   30.7051 C.3     1  UNL1        0.0053
     46 C         -22.6893    0.4905   28.6414 C.2     1  UNL1        0.0333
@<TRIPOS>BOND
     1     1    33    1
     2     2     7    1
     3     2     1    1
     4     3     2    2
     5     4     3    1
     6     4     5    2
     7     5     6    1
     8     6     7    2
     9     8     1    1
    10     8     9    1
    11     8    12    1
    12     9    10    1
    13    10    11    1
    14    12    11    1
    15    13    29    1
    16    14    13    1
    17    14    15    1
    18    15    18    2
    19    16    17    1
    20    16    15    1
    21    19    14    2
    22    20    21    2
    23    20    19    1
    24    21    26    1
    25    22    21    1
    26    23    22    1
    27    24    23    1
    28    24    25    1
    29    26    27    1
    30    26    13    2
    31    28    46    1
    32    29    30    1
    33    30    46    2
    34    31    43    1
    35    31    40    1
    36    32    41    1
    37    33    30    1
    38    33    32    1
    39    34    37    1
    40    35    43    1
    41    36    38    1
    42    37    29    2
    43    37    28    1
    44    38    45    1
    45    39    31    1
    46    39    36    1
    47    43    42    1
    48    44    32    1
    49    44    36    1
    50    44    41    1
    51    45    40    1
