@<TRIPOS>MOLECULE
No_261-gen_results/8p0m/2024-11-27-11-27-31/
 12 12 0 0 0
SMALL
GASTEIGER

@<TRIPOS>ATOM
      1 C         -28.0162   -0.8135   28.8779 C.ar    1  UNL1        0.0410
      2 C         -28.4690   -0.7850   29.8287 C.ar    1  UNL1        0.0599
      3 C         -26.5042   -0.7777   28.8766 C.ar    1  UNL1        0.1448
      4 C         -25.8103   -0.8531   30.1028 C.ar    1  UNL1        0.0988
      5 C         -27.9906   -0.8916   31.2257 C.ar    1  UNL1        0.0115
      6 C         -26.6042   -0.8676   31.2652 C.ar    1  UNL1        0.0070
      7 CL        -30.2937   -0.8377   29.8355 Cl      1  UNL1       -0.0822
      8 C         -24.3700   -0.8208   30.1393 C.3     1  UNL1        0.4207
      9 F         -23.8532   -1.6783   30.8085 F       1  UNL1       -0.1658
     10 F         -23.6852   -0.1955   29.3230 F       1  UNL1       -0.1658
     11 F         -25.7816   -0.7979   27.7694 F       1  UNL1       -0.2042
     12 F         -24.1771    0.1480   31.1406 F       1  UNL1       -0.1658
@<TRIPOS>BOND
     1     2     7    1
     2     4     8    1
     3     8     9    1
     4     8    10    1
     5     3    11    1
     6     8    12    1
     7     1     2   ar
     8     2     5   ar
     9     5     6   ar
    10     6     4   ar
    11     4     3   ar
    12     3     1   ar
