@<TRIPOS>MOLECULE
No_2611-gen_results/8p0m/2024-11-27-11-27-31/
 15 16 0 0 0
SMALL
GASTEIGER

@<TRIPOS>ATOM
      1 C         -28.0162   -0.8135   28.8779 C.ar    1  UNL1        0.0032
      2 C         -28.4690   -0.7850   29.8287 C.ar    1  UNL1        0.0390
      3 C         -26.5455   -0.8762   28.8500 C.ar    1  UNL1        0.0001
      4 C         -25.8041   -1.0324   30.0571 C.ar    1  UNL1        0.0000
      5 C         -27.9437   -0.9869   31.2075 C.ar    1  UNL1        0.0032
      6 C         -26.5825   -1.0386   31.2231 C.ar    1  UNL1        0.0001
      7 C         -30.0606   -0.7371   29.9024 C.2     1  UNL1        0.1956
      8 C         -30.6577    0.4233   30.3732 C.ar    1  UNL1        0.0398
      9 C         -30.0086    1.3899   30.6447 C.ar    1  UNL1        0.0032
     10 C         -30.7191    2.6895   31.0762 C.ar    1  UNL1        0.0010
     11 C         -32.0967    2.6143   31.0860 C.ar    1  UNL1        0.0114
     12 C         -32.0940    0.4214   30.3997 C.ar    1  UNL1        0.0146
     13 C         -32.7581    1.5140   30.7587 C.ar    1  UNL1        0.0578
     14 O         -30.6414   -1.7873   29.5138 O.2     1  UNL1       -0.2866
     15 CL        -34.4548    1.4687   30.8072 Cl      1  UNL1       -0.0822
@<TRIPOS>BOND
     1     2     7    1
     2     7     8    1
     3     7    14    2
     4    13    15    1
     5     1     2   ar
     6     2     5   ar
     7     5     6   ar
     8     6     4   ar
     9     4     3   ar
    10     3     1   ar
    11     8     9   ar
    12     9    10   ar
    13    10    11   ar
    14    11    13   ar
    15    13    12   ar
    16    12     8   ar
