@<TRIPOS>MOLECULE
outputs/IAG933/test6/raw/output_2613_IAG933_linker_design_.xyz
 47 51 0 0 0
SMALL
GASTEIGER

@<TRIPOS>ATOM
      1 C         -24.8550   -1.0120   30.1430 C.3     1  UNL1        0.0424
      2 C         -24.9730   -2.5050   29.7880 C.2     1  UNL1       -0.0208
      3 C         -23.9060   -3.1730   29.1460 C.2     1  UNL1       -0.0042
      4 C         -23.9890   -4.5490   28.8530 C.2     1  UNL1       -0.0003
      5 C         -25.1370   -5.2800   29.2050 C.2     1  UNL1       -0.0000
      6 C         -26.2320   -4.6110   29.7840 C.2     1  UNL1       -0.0003
      7 C         -26.1550   -3.2320   30.0650 C.2     1  UNL1       -0.0042
      8 C         -25.3870   -0.6790   31.5710 C.3     1  UNL1        0.0771
      9 C         -25.1890    0.7730   32.0280 C.3     1  UNL1        0.0192
     10 C         -25.3360    0.6840   33.5440 C.3     1  UNL1        0.0202
     11 C         -24.8290   -0.7150   33.9050 C.3     1  UNL1        0.0887
     12 N         -24.7580   -1.4810   32.6460 N.3     1  UNL1       -0.2191
     13 C         -25.6880    1.6140   26.4610 C.3     1  UNL1        0.0745
     14 C         -26.2500    2.9200   26.3950 C.2     1  UNL1        0.0551
     15 C         -25.6420    4.0930   27.1230 C.2     1  UNL1        0.2624
     16 N         -25.6140    5.2520   26.4490 N.am    1  UNL1       -0.2000
     17 C         -25.0260    6.4790   26.9630 C.3     1  UNL1        0.1388
     18 O         -25.1430    3.9660   28.2430 O.2     1  UNL1       -0.2687
     19 C         -27.4380    3.0910   25.6450 C.2     1  UNL1        0.1021
     20 N         -28.0750    2.0890   25.0030 N.2     1  UNL1       -0.2119
     21 C         -27.5430    0.8490   25.0790 C.2     1  UNL1        0.2341
     22 O         -28.1930   -0.2080   24.4770 O.2     1  UNL1       -0.4585
     23 C         -29.4600    0.0050   23.8660 C.3     1  UNL1        0.2423
     24 C         -30.0650   -1.3770   23.5730 C.3     1  UNL1        0.2292
     25 O         -30.7290   -1.8780   24.7210 O.3     1  UNL1       -0.2162
     26 C         -26.3540    0.5760   25.7770 C.3     1  UNL1        0.2403
     27 F         -25.8600   -0.6810   25.7950 F       1  UNL1       -0.2269
     28 C         -28.5534    4.7920   29.5761 C.2     1  UNL1       -0.0003
     29 C         -26.4441   -0.2048   28.8129 C.3     1  UNL1        0.0221
     30 C         -22.9988    2.0200   26.8616 C.2     1  UNL1       -0.0046
     31 C         -23.9566    1.2737   27.7656 C.2     1  UNL1       -0.0257
     32 C         -27.6633    4.8548   30.6542 C.2     1  UNL1       -0.0000
     33 C         -23.7799    0.6586   28.6292 C.2     1  UNL1       -0.0260
     34 C         -21.6957    1.8804   27.2621 C.2     1  UNL1       -0.0003
     35 N         -28.6612    0.4908   29.0103 N.3     1  UNL1       -0.2409
     36 C         -27.3385    1.0637   29.0148 C.3     1  UNL1        0.0751
     37 C         -21.4135    1.0755   28.3347 C.2     1  UNL1       -0.0003
     38 C         -28.3034    2.6578   31.3655 C.2     1  UNL1       -0.0029
     39 O         -30.4354   -0.3598   27.8365 O.3     1  UNL1       -0.2005
     40 C         -29.3378    3.6413   29.4255 C.2     1  UNL1       -0.0029
     41 C         -27.5466    3.8058   31.5528 C.2     1  UNL1       -0.0003
     42 C         -24.7690   -0.0399   29.0479 C.3     1  UNL1        0.0288
     43 C         -24.8044    1.2450   27.5003 C.3     1  UNL1        0.0338
     44 C         -22.3887    0.4884   29.0952 C.2     1  UNL1       -0.0046
     45 C         -29.6157    1.1588   29.9247 C.3     1  UNL1        0.1011
     46 C         -29.1934    0.2702   27.6690 C.3     1  UNL1        0.2592
     47 C         -29.1419    2.5473   30.2674 C.2     1  UNL1       -0.0061
@<TRIPOS>BOND
     1     1    42    1
     2     2     7    1
     3     2     1    1
     4     3     2    2
     5     4     3    1
     6     4     5    2
     7     5     6    1
     8     6     7    2
     9     8     1    1
    10     8     9    1
    11     8    12    1
    12     9    10    1
    13    10    11    1
    14    12    11    1
    15    13    43    1
    16    14    13    1
    17    14    15    1
    18    15    18    2
    19    16    17    1
    20    16    15    1
    21    19    14    2
    22    20    21    2
    23    20    19    1
    24    21    26    1
    25    22    21    1
    26    23    22    1
    27    24    23    1
    28    24    25    1
    29    26    27    1
    30    26    13    1
    31    28    32    1
    32    29    36    1
    33    30    34    2
    34    30    31    1
    35    31    33    2
    36    32    41    2
    37    33    42    1
    38    33    44    1
    39    34    37    1
    40    35    36    1
    41    35    45    1
    42    37    44    2
    43    38    41    1
    44    40    28    2
    45    40    47    1
    46    42    29    1
    47    43    31    1
    48    45    47    1
    49    46    39    1
    50    46    35    1
    51    47    38    2
