@<TRIPOS>MOLECULE
No_2614-gen_results/8p0m/2024-11-27-11-27-31/
 25 27 0 0 0
SMALL
GASTEIGER

@<TRIPOS>ATOM
      1 C         -28.0162   -0.8135   28.8779 C.3     1  UNL1        0.1189
      2 C         -27.0636   -0.1189   28.6079 C.ar    1  UNL1        0.0818
      3 N         -25.8176   -0.3427   29.0488 N.ar    1  UNL1       -0.2211
      4 C         -24.6757    0.3814   28.7496 C.ar    1  UNL1        0.2191
      5 C         -24.7608    1.3095   27.7159 C.ar    1  UNL1        0.0387
      6 C         -27.2322    1.1407   27.8970 C.ar    1  UNL1        0.0684
      7 C         -23.5536    2.0551   27.3133 C.3     1  UNL1        0.1058
      8 C         -26.0346    1.8227   27.2856 C.ar    1  UNL1        0.0065
      9 N         -28.5677   -0.7226   30.1685 N.3     1  UNL1       -0.2677
     10 CL        -23.1051    2.2520   25.7970 Cl      1  UNL1       -0.1101
     11 C         -22.4585    2.1899   28.3100 C.3     1  UNL1        0.0225
     12 C         -29.4467   -1.5372   30.7177 C.3     1  UNL1        0.0724
     13 C         -29.8409   -1.3650   32.0727 C.3     1  UNL1        0.0174
     14 C         -28.1232    0.2701   31.1447 C.3     1  UNL1        0.0724
     15 C         -28.4897    0.4569   32.3441 C.3     1  UNL1        0.0174
     16 C         -29.3840   -0.3882   32.8934 C.3     1  UNL1        0.0029
     17 F         -23.6475   -0.1421   29.2937 F       1  UNL1       -0.1835
     18 C         -28.2791    1.9887   28.1789 C.2     1  UNL1        0.2502
     19 O         -28.3543    2.8296   29.0566 O.2     1  UNL1       -0.2699
     20 N         -29.3851    1.7167   27.3813 N.am    1  UNL1       -0.2760
     21 C         -30.7045    2.4059   27.6276 C.3     1  UNL1        0.0937
     22 C         -29.4293    0.8052   26.2950 C.3     1  UNL1        0.0937
     23 C         -30.6720    0.3176   25.8711 C.3     1  UNL1        0.0216
     24 C         -31.6890    0.6631   26.3616 C.3     1  UNL1        0.0035
     25 C         -31.8259    1.8015   27.2485 C.3     1  UNL1        0.0216
@<TRIPOS>BOND
     1     1     2    1
     2     5     7    1
     3     1     9    1
     4     7    10    1
     5     7    11    1
     6     9    12    1
     7     9    14    1
     8    13    16    1
     9    15    16    1
    10     4    17    1
    11     6    18    1
    12    18    19    2
    13    18    20   am
    14    20    21    1
    15    20    22    1
    16    23    24    1
    17    12    13    1
    18    15    14    1
    19    21    25    1
    20    25    24    1
    21    23    22    1
    22     2     3   ar
    23     3     4   ar
    24     4     5   ar
    25     5     8   ar
    26     8     6   ar
    27     6     2   ar
