@<TRIPOS>MOLECULE
outputs/IAG933/test6/raw/output_2615_IAG933_linker_design_.xyz
 44 46 0 0 0
SMALL
GASTEIGER

@<TRIPOS>ATOM
      1 C         -24.8550   -1.0120   30.1430 C.3     1  UNL1        0.0655
      2 C         -24.9730   -2.5050   29.7880 C.2     1  UNL1       -0.0188
      3 C         -23.9060   -3.1730   29.1460 C.2     1  UNL1       -0.0042
      4 C         -23.9890   -4.5490   28.8530 C.2     1  UNL1       -0.0003
      5 C         -25.1370   -5.2800   29.2050 C.2     1  UNL1       -0.0000
      6 C         -26.2320   -4.6110   29.7840 C.2     1  UNL1       -0.0003
      7 C         -26.1550   -3.2320   30.0650 C.2     1  UNL1       -0.0042
      8 C         -25.3870   -0.6790   31.5710 C.3     1  UNL1        0.0792
      9 C         -25.1890    0.7730   32.0280 C.3     1  UNL1        0.0193
     10 C         -25.3360    0.6840   33.5440 C.3     1  UNL1        0.0202
     11 C         -24.8290   -0.7150   33.9050 C.3     1  UNL1        0.0887
     12 N         -24.7580   -1.4810   32.6460 N.3     1  UNL1       -0.2191
     13 C         -25.6880    1.6140   26.4610 C.2     1  UNL1        0.0161
     14 C         -26.2500    2.9200   26.3950 C.2     1  UNL1        0.0726
     15 C         -25.6420    4.0930   27.1230 C.2     1  UNL1        0.2661
     16 N         -25.6140    5.2520   26.4490 N.am    1  UNL1       -0.1997
     17 C         -25.0260    6.4790   26.9630 C.3     1  UNL1        0.1388
     18 O         -25.1430    3.9660   28.2430 O.2     1  UNL1       -0.2683
     19 C         -27.4380    3.0910   25.6450 C.2     1  UNL1        0.1064
     20 N         -28.0750    2.0890   25.0030 N.2     1  UNL1       -0.2081
     21 C         -27.5430    0.8490   25.0790 C.2     1  UNL1        0.2530
     22 O         -28.1930   -0.2080   24.4770 O.2     1  UNL1       -0.4558
     23 C         -29.4600    0.0050   23.8660 C.3     1  UNL1        0.2426
     24 C         -30.0650   -1.3770   23.5730 C.3     1  UNL1        0.2292
     25 O         -30.7290   -1.8780   24.7210 O.3     1  UNL1       -0.2162
     26 C         -26.3540    0.5760   25.7770 C.2     1  UNL1        0.1891
     27 F         -25.8600   -0.6810   25.7950 F       1  UNL1       -0.1996
     28 C         -28.4024    3.1250   29.1616 C.3     1  UNL1        0.1467
     29 F         -21.1639    1.9758   27.3169 F       1  UNL1       -0.1864
     30 C         -28.7294    5.2869   30.2639 C.3     1  UNL1        0.2524
     31 C         -28.3293    0.6113   29.5263 C.3     1  UNL1        0.1839
     32 O         -28.1539    3.9727   30.3102 O.3     1  UNL1       -0.3354
     33 O         -29.4746    0.4057   28.7051 O.3     1  UNL1       -0.2204
     34 C         -27.5166    1.9306   29.5220 C.3     1  UNL1        0.0676
     35 O         -26.6430   -0.7423   28.4620 O.3     1  UNL1       -0.3532
     36 C         -27.5989   -0.7391   29.5231 C.3     1  UNL1        0.1748
     37 C         -24.7872    1.2391   27.3111 C.3     1  UNL1        0.0353
     38 C         -22.3301    1.6681   27.7829 C.2     1  UNL1        0.2189
     39 C         -24.4413   -0.2108   27.8544 C.3     1  UNL1        0.0348
     40 N         -22.4491    1.3144   29.0349 N.2     1  UNL1       -0.1206
     41 N         -29.7586    5.6726   31.2272 N.3     1  UNL1       -0.0957
     42 C         -25.3333   -0.6075   28.7642 C.3     1  UNL1        0.1210
     43 C         -23.0703    2.0345   25.4612 C.3     1  UNL1        0.0092
     44 C         -23.2659    1.3787   26.9165 C.3     1  UNL1        0.0749
@<TRIPOS>BOND
     1     1    42    1
     2     2     7    1
     3     2     1    1
     4     3     2    2
     5     4     3    1
     6     4     5    2
     7     5     6    1
     8     6     7    2
     9     8     1    1
    10     8     9    1
    11     8    12    1
    12     9    10    1
    13    10    11    1
    14    12    11    1
    15    13    37    1
    16    14    13    1
    17    14    15    1
    18    15    18    2
    19    16    17    1
    20    16    15    1
    21    19    14    2
    22    20    21    2
    23    20    19    1
    24    21    26    1
    25    22    21    1
    26    23    22    1
    27    24    23    1
    28    24    25    1
    29    26    27    1
    30    26    13    2
    31    28    34    1
    32    28    32    1
    33    29    38    1
    34    30    32    1
    35    30    41    1
    36    31    33    1
    37    34    31    1
    38    35    42    1
    39    35    36    1
    40    36    31    1
    41    37    39    1
    42    38    40    2
    43    42    39    1
    44    44    43    1
    45    44    37    1
    46    44    38    1
