@<TRIPOS>MOLECULE
outputs/IAG933/test6/raw/output_2616_IAG933_linker_design_.xyz
 44 47 0 0 0
SMALL
GASTEIGER

@<TRIPOS>ATOM
      1 C         -24.8550   -1.0120   30.1430 C.3     1  UNL1        0.1196
      2 C         -24.9730   -2.5050   29.7880 C.2     1  UNL1       -0.0025
      3 C         -23.9060   -3.1730   29.1460 C.2     1  UNL1       -0.0026
      4 C         -23.9890   -4.5490   28.8530 C.2     1  UNL1       -0.0003
      5 C         -25.1370   -5.2800   29.2050 C.2     1  UNL1       -0.0000
      6 C         -26.2320   -4.6110   29.7840 C.2     1  UNL1       -0.0003
      7 C         -26.1550   -3.2320   30.0650 C.2     1  UNL1       -0.0026
      8 C         -25.3870   -0.6790   31.5710 C.3     1  UNL1        0.0955
      9 C         -25.1890    0.7730   32.0280 C.3     1  UNL1        0.0209
     10 C         -25.3360    0.6840   33.5440 C.3     1  UNL1        0.0203
     11 C         -24.8290   -0.7150   33.9050 C.3     1  UNL1        0.0888
     12 N         -24.7580   -1.4810   32.6460 N.3     1  UNL1       -0.2174
     13 C         -25.6880    1.6140   26.4610 C.2     1  UNL1        0.0422
     14 C         -26.2500    2.9200   26.3950 C.2     1  UNL1        0.0767
     15 C         -25.6420    4.0930   27.1230 C.2     1  UNL1        0.2664
     16 N         -25.6140    5.2520   26.4490 N.am    1  UNL1       -0.1997
     17 C         -25.0260    6.4790   26.9630 C.3     1  UNL1        0.1388
     18 O         -25.1430    3.9660   28.2430 O.2     1  UNL1       -0.2683
     19 C         -27.4380    3.0910   25.6450 C.2     1  UNL1        0.1067
     20 N         -28.0750    2.0890   25.0030 N.2     1  UNL1       -0.2081
     21 C         -27.5430    0.8490   25.0790 C.2     1  UNL1        0.2533
     22 O         -28.1930   -0.2080   24.4770 O.2     1  UNL1       -0.4558
     23 C         -29.4600    0.0050   23.8660 C.3     1  UNL1        0.2426
     24 C         -30.0650   -1.3770   23.5730 C.3     1  UNL1        0.2292
     25 O         -30.7290   -1.8780   24.7210 O.3     1  UNL1       -0.2162
     26 C         -26.3540    0.5760   25.7770 C.2     1  UNL1        0.1932
     27 F         -25.8600   -0.6810   25.7950 F       1  UNL1       -0.1992
     28 N         -25.1798   -0.0885   29.0533 N.am    1  UNL1       -0.2382
     29 C         -24.2924    1.2721   27.0455 C.2     1  UNL1        0.0502
     30 C         -28.4296    3.2036   30.1798 C.3     1  UNL1        0.2769
     31 C         -27.2622    3.3313   31.1626 C.3     1  UNL1        0.0716
     32 C         -23.0376    1.6450   26.3722 C.2     1  UNL1        0.1399
     33 C         -26.6409    0.0793   29.0274 C.2     1  UNL1        0.3274
     34 C         -21.5558    0.7055   28.0972 C.2     1  UNL1        0.0044
     35 O         -29.6671    3.0720   30.7987 O.3     1  UNL1       -0.1880
     36 C         -28.2528    1.9379   29.3531 C.3     1  UNL1        0.1807
     37 N         -27.1279    1.1163   29.7538 N.am    1  UNL1       -0.1825
     38 F         -28.3889    4.4187   29.4420 F       1  UNL1       -0.2048
     39 O         -27.3885   -0.8345   28.5081 O.2     1  UNL1       -0.2504
     40 C         -21.7415    1.4743   26.9238 C.2     1  UNL1        0.0370
     41 C         -22.7577    0.2040   28.7595 C.2     1  UNL1        0.0152
     42 C         -23.5988    1.1706   24.1862 C.3     1  UNL1        0.2525
     43 O         -23.0529    2.1665   25.1163 O.2     1  UNL1       -0.4714
     44 C         -24.1484    0.4532   28.3214 C.2     1  UNL1        0.0586
@<TRIPOS>BOND
     1     1    28    1
     2     2     7    1
     3     2     1    1
     4     3     2    2
     5     4     3    1
     6     4     5    2
     7     5     6    1
     8     6     7    2
     9     8     1    1
    10     8     9    1
    11     8    12    1
    12     9    10    1
    13    10    11    1
    14    12    11    1
    15    13    29    1
    16    14    13    1
    17    14    15    1
    18    15    18    2
    19    16    17    1
    20    16    15    1
    21    19    14    2
    22    20    21    2
    23    20    19    1
    24    21    26    1
    25    22    21    1
    26    23    22    1
    27    24    23    1
    28    24    25    1
    29    26    27    1
    30    26    13    2
    31    29    44    1
    32    30    35    1
    33    30    31    1
    34    32    40    1
    35    32    29    2
    36    33    28   am
    37    33    37    1
    38    34    41    1
    39    36    37    1
    40    36    30    1
    41    38    30    1
    42    39    33    2
    43    40    34    2
    44    42    43    1
    45    43    32    1
    46    44    41    2
    47    44    28    1
