@<TRIPOS>MOLECULE
No_2617-gen_results/8p0m/2024-11-27-11-27-31/
 28 29 0 0 0
SMALL
GASTEIGER

@<TRIPOS>ATOM
      1 C         -28.0162   -0.8135   28.8779 C.ar    1  UNL1        0.0019
      2 C         -27.0636   -0.1190   28.6079 C.ar    1  UNL1        0.0208
      3 C         -26.9716    0.7139   27.5060 C.ar    1  UNL1        0.0386
      4 C         -28.1053    0.7744   26.6421 C.ar    1  UNL1        0.1449
      5 C         -29.2008    0.1044   27.0527 C.ar    1  UNL1        0.1095
      6 C         -29.2096   -0.6029   28.1853 C.ar    1  UNL1        0.0096
      7 C         -30.3749    0.2232   26.1670 C.2     1  UNL1        0.3442
      8 O         -30.3266    0.0573   24.9664 O.2     1  UNL1       -0.2448
      9 O         -31.5073    0.6887   26.6488 O.3     1  UNL1       -0.4454
     10 C         -25.6960   -0.2180   29.4261 C.ar    1  UNL1        0.0849
     11 N         -24.5895   -0.0538   28.9372 N.ar    1  UNL1       -0.2059
     12 C         -23.3813   -0.4063   29.3710 C.ar    1  UNL1        0.2674
     13 C         -23.1501   -1.2819   30.2763 C.ar    1  UNL1        0.0650
     14 C         -24.3806   -1.5894   31.0475 C.ar    1  UNL1        0.0069
     15 C         -25.6728   -1.2716   30.4983 C.ar    1  UNL1        0.0194
     16 N         -22.2411    0.1030   28.6581 N.pl3   1  UNL1        0.0261
     17 C         -22.2464    1.2529   27.8674 C.2     1  UNL1        0.4830
     18 C         -21.4737    1.5039   26.8503 C.1     1  UNL1        0.2289
     19 N         -22.9694    2.3330   28.4014 N.pl3   1  UNL1        0.2270
     20 O         -21.9114    2.4685   26.0630 O.2     1  UNL1       -0.2235
     21 O         -28.0140    1.6086   25.6237 O.3     1  UNL1       -0.4712
     22 C         -27.4496    2.8939   25.8364 C.3     1  UNL1        0.2525
     23 C         -32.7148    0.4287   26.0874 C.3     1  UNL1        0.2091
     24 C         -33.8197    0.5448   26.9303 C.3     1  UNL1        0.0521
     25 C         -33.6032    1.1136   28.1525 C.3     1  UNL1        0.0295
     26 C         -33.4628    2.4805   28.2132 C.2     1  UNL1       -0.0306
     27 C         -34.1547    3.2987   27.6143 C.2     1  UNL1       -0.0304
     28 C         -33.8883    4.7420   27.6230 C.3     1  UNL1        0.0303
@<TRIPOS>BOND
     1     5     7    1
     2     7     8    2
     3     7     9    1
     4     2    10    1
     5    12    16    1
     6    16    17    1
     7    17    18    2
     8    17    19    1
     9    18    20    2
    10     4    21    1
    11    21    22    1
    12     9    23    1
    13    23    24    1
    14    24    25    1
    15    25    26    1
    16    26    27    2
    17    27    28    1
    18     1     2   ar
    19     2     3   ar
    20     3     4   ar
    21     4     5   ar
    22     5     6   ar
    23     6     1   ar
    24    10    11   ar
    25    11    12   ar
    26    12    13   ar
    27    13    14   ar
    28    14    15   ar
    29    15    10   ar
