@<TRIPOS>MOLECULE
outputs/IAG933/test6/raw/output_2620_IAG933_linker_design_.xyz
 43 45 0 0 0
SMALL
GASTEIGER

@<TRIPOS>ATOM
      1 C         -24.8550   -1.0120   30.1430 C.3     1  UNL1        0.0985
      2 C         -24.9730   -2.5050   29.7880 C.2     1  UNL1       -0.0064
      3 C         -23.9060   -3.1730   29.1460 C.2     1  UNL1       -0.0029
      4 C         -23.9890   -4.5490   28.8530 C.2     1  UNL1       -0.0003
      5 C         -25.1370   -5.2800   29.2050 C.2     1  UNL1       -0.0000
      6 C         -26.2320   -4.6110   29.7840 C.2     1  UNL1       -0.0003
      7 C         -26.1550   -3.2320   30.0650 C.2     1  UNL1       -0.0029
      8 C         -25.3870   -0.6790   31.5710 C.3     1  UNL1        0.0916
      9 C         -25.1890    0.7730   32.0280 C.3     1  UNL1        0.0206
     10 C         -25.3360    0.6840   33.5440 C.3     1  UNL1        0.0203
     11 C         -24.8290   -0.7150   33.9050 C.3     1  UNL1        0.0888
     12 N         -24.7580   -1.4810   32.6460 N.3     1  UNL1       -0.2178
     13 C         -25.6880    1.6140   26.4610 C.3     1  UNL1        0.0894
     14 C         -26.2500    2.9200   26.3950 C.2     1  UNL1        0.0586
     15 C         -25.6420    4.0930   27.1230 C.2     1  UNL1        0.2627
     16 N         -25.6140    5.2520   26.4490 N.am    1  UNL1       -0.2000
     17 C         -25.0260    6.4790   26.9630 C.3     1  UNL1        0.1388
     18 O         -25.1430    3.9660   28.2430 O.2     1  UNL1       -0.2686
     19 C         -27.4380    3.0910   25.6450 C.2     1  UNL1        0.1025
     20 N         -28.0750    2.0890   25.0030 N.2     1  UNL1       -0.2118
     21 C         -27.5430    0.8490   25.0790 C.2     1  UNL1        0.2344
     22 O         -28.1930   -0.2080   24.4770 O.2     1  UNL1       -0.4585
     23 C         -29.4600    0.0050   23.8660 C.3     1  UNL1        0.2423
     24 C         -30.0650   -1.3770   23.5730 C.3     1  UNL1        0.2292
     25 O         -30.7290   -1.8780   24.7210 O.3     1  UNL1       -0.2162
     26 C         -26.3540    0.5760   25.7770 C.3     1  UNL1        0.2437
     27 F         -25.8600   -0.6810   25.7950 F       1  UNL1       -0.2265
     28 C         -23.0250    2.1880   25.0919 C.3     1  UNL1        0.3211
     29 O         -28.6279    1.1947   29.2787 O.3     1  UNL1       -0.0332
     30 O         -27.3197    1.3008   28.9006 O.3     1  UNL1       -0.1706
     31 O         -21.1889    0.8074   27.7493 O.3     1  UNL1       -0.3490
     32 C         -22.5951    0.5451   28.3615 C.3     1  UNL1        0.1695
     33 C         -22.4644    0.2223   29.5846 C.3     1  UNL1        0.2159
     34 N         -25.4916   -0.1184   29.1612 N.3     1  UNL1       -0.2373
     35 F         -22.3955    3.1430   24.6114 F       1  UNL1       -0.1983
     36 F         -23.9857    1.5777   24.4000 F       1  UNL1       -0.1983
     37 C         -26.9119   -0.0731   28.8539 C.3     1  UNL1        0.2626
     38 C         -23.5691    1.0733   27.6026 C.2     1  UNL1       -0.0012
     39 C         -21.1528    1.5206   26.5916 C.3     1  UNL1        0.1485
     40 O         -22.2552   -0.5725   29.5161 O.3     1  UNL1       -0.2173
     41 C         -24.7921    0.6988   28.1534 C.3     1  UNL1        0.0973
     42 C         -22.4568    1.7157   26.1170 C.3     1  UNL1        0.1043
     43 C         -24.7022    1.1644   27.4498 C.2     1  UNL1       -0.0230
@<TRIPOS>BOND
     1     1    34    1
     2     2     7    1
     3     2     1    1
     4     3     2    2
     5     4     3    1
     6     4     5    2
     7     5     6    1
     8     6     7    2
     9     8     1    1
    10     8     9    1
    11     8    12    1
    12     9    10    1
    13    10    11    1
    14    12    11    1
    15    13    43    1
    16    14    13    1
    17    14    15    1
    18    15    18    2
    19    16    17    1
    20    16    15    1
    21    19    14    2
    22    20    21    2
    23    20    19    1
    24    21    26    1
    25    22    21    1
    26    23    22    1
    27    24    23    1
    28    24    25    1
    29    26    27    1
    30    26    13    1
    31    28    42    1
    32    30    29    1
    33    31    32    1
    34    32    38    1
    35    32    33    1
    36    35    28    1
    37    36    28    1
    38    37    30    1
    39    37    34    1
    40    39    31    1
    41    40    33    1
    42    41    34    1
    43    42    39    1
    44    43    38    2
    45    43    41    1
