@<TRIPOS>MOLECULE
outputs/IAG933/test6/raw/output_2621_IAG933_linker_design_.xyz
 43 47 0 0 0
SMALL
GASTEIGER

@<TRIPOS>ATOM
      1 C         -24.8550   -1.0120   30.1430 C.3     1  UNL1        0.0603
      2 C         -24.9730   -2.5050   29.7880 C.2     1  UNL1       -0.0171
      3 C         -23.9060   -3.1730   29.1460 C.2     1  UNL1       -0.0039
      4 C         -23.9890   -4.5490   28.8530 C.2     1  UNL1       -0.0003
      5 C         -25.1370   -5.2800   29.2050 C.2     1  UNL1       -0.0000
      6 C         -26.2320   -4.6110   29.7840 C.2     1  UNL1       -0.0003
      7 C         -26.1550   -3.2320   30.0650 C.2     1  UNL1       -0.0039
      8 C         -25.3870   -0.6790   31.5710 C.3     1  UNL1        0.0808
      9 C         -25.1890    0.7730   32.0280 C.3     1  UNL1        0.0195
     10 C         -25.3360    0.6840   33.5440 C.3     1  UNL1        0.0203
     11 C         -24.8290   -0.7150   33.9050 C.3     1  UNL1        0.0887
     12 N         -24.7580   -1.4810   32.6460 N.3     1  UNL1       -0.2188
     13 C         -25.6880    1.6140   26.4610 C.3     1  UNL1        0.0922
     14 C         -26.2500    2.9200   26.3950 C.2     1  UNL1        0.0589
     15 C         -25.6420    4.0930   27.1230 C.2     1  UNL1        0.2628
     16 N         -25.6140    5.2520   26.4490 N.am    1  UNL1       -0.2000
     17 C         -25.0260    6.4790   26.9630 C.3     1  UNL1        0.1388
     18 O         -25.1430    3.9660   28.2430 O.2     1  UNL1       -0.2686
     19 C         -27.4380    3.0910   25.6450 C.2     1  UNL1        0.1025
     20 N         -28.0750    2.0890   25.0030 N.2     1  UNL1       -0.2118
     21 C         -27.5430    0.8490   25.0790 C.2     1  UNL1        0.2344
     22 O         -28.1930   -0.2080   24.4770 O.2     1  UNL1       -0.4585
     23 C         -29.4600    0.0050   23.8660 C.3     1  UNL1        0.2423
     24 C         -30.0650   -1.3770   23.5730 C.3     1  UNL1        0.2292
     25 O         -30.7290   -1.8780   24.7210 O.3     1  UNL1       -0.2162
     26 C         -26.3540    0.5760   25.7770 C.3     1  UNL1        0.2440
     27 F         -25.8600   -0.6810   25.7950 F       1  UNL1       -0.2265
     28 C         -28.0052    0.1143   28.9372 C.3     1  UNL1        0.0051
     29 C         -26.6956   -0.3338   28.4921 C.3     1  UNL1        0.0258
     30 C         -24.3686   -0.0405   29.2955 C.2     1  UNL1       -0.0182
     31 C         -29.7210    0.9316   31.5100 C.2     1  UNL1        0.1511
     32 C         -22.6188    1.1439   28.0987 C.2     1  UNL1        0.1763
     33 N         -21.5250    2.0323   26.3380 N.2     1  UNL1       -0.0753
     34 O         -21.3614    1.5412   27.5394 O.2     1  UNL1       -0.3534
     35 C         -29.2430   -0.4746   29.6382 C.3     1  UNL1        0.0081
     36 C         -23.5203    1.5185   27.1531 C.2     1  UNL1        0.0557
     37 C         -29.3525   -0.4685   31.1225 C.3     1  UNL1        0.0645
     38 C         -23.0584    0.4163   29.3025 C.2     1  UNL1        0.0360
     39 C         -25.3666    0.3742   28.4429 C.2     1  UNL1       -0.0291
     40 C         -22.8539    2.0845   26.0362 C.2     1  UNL1        0.1434
     41 O         -29.5151    1.8643   30.7120 O.2     1  UNL1       -0.2960
     42 C         -24.8879    1.1735   27.4365 C.2     1  UNL1       -0.0147
     43 C         -30.4339    1.0315   32.8192 C.3     1  UNL1        0.0722
@<TRIPOS>BOND
     1     1    30    1
     2     2     7    1
     3     2     1    1
     4     3     2    2
     5     4     3    1
     6     4     5    2
     7     5     6    1
     8     6     7    2
     9     8     1    1
    10     8     9    1
    11     8    12    1
    12     9    10    1
    13    10    11    1
    14    12    11    1
    15    13    42    1
    16    14    13    1
    17    14    15    1
    18    15    18    2
    19    16    17    1
    20    16    15    1
    21    19    14    2
    22    20    21    2
    23    20    19    1
    24    21    26    1
    25    22    21    1
    26    23    22    1
    27    24    23    1
    28    24    25    1
    29    26    27    1
    30    26    13    1
    31    28    35    1
    32    29    28    1
    33    30    38    1
    34    31    43    1
    35    32    38    2
    36    33    34    1
    37    34    32    1
    38    35    37    1
    39    36    42    2
    40    36    32    1
    41    37    31    1
    42    39    29    1
    43    39    30    2
    44    40    33    2
    45    40    36    1
    46    41    31    2
    47    42    39    1
