@<TRIPOS>MOLECULE
outputs/IAG933/test6/raw/output_2622_IAG933_linker_design_.xyz
 42 46 0 0 0
SMALL
GASTEIGER

@<TRIPOS>ATOM
      1 C         -24.8550   -1.0120   30.1430 C.3     1  UNL1        0.0625
      2 C         -24.9730   -2.5050   29.7880 C.2     1  UNL1       -0.0191
      3 C         -23.9060   -3.1730   29.1460 C.2     1  UNL1       -0.0042
      4 C         -23.9890   -4.5490   28.8530 C.2     1  UNL1       -0.0003
      5 C         -25.1370   -5.2800   29.2050 C.2     1  UNL1       -0.0000
      6 C         -26.2320   -4.6110   29.7840 C.2     1  UNL1       -0.0003
      7 C         -26.1550   -3.2320   30.0650 C.2     1  UNL1       -0.0042
      8 C         -25.3870   -0.6790   31.5710 C.3     1  UNL1        0.0788
      9 C         -25.1890    0.7730   32.0280 C.3     1  UNL1        0.0193
     10 C         -25.3360    0.6840   33.5440 C.3     1  UNL1        0.0202
     11 C         -24.8290   -0.7150   33.9050 C.3     1  UNL1        0.0887
     12 N         -24.7580   -1.4810   32.6460 N.3     1  UNL1       -0.2191
     13 C         -25.6880    1.6140   26.4610 C.3     1  UNL1        0.0923
     14 C         -26.2500    2.9200   26.3950 C.2     1  UNL1        0.0589
     15 C         -25.6420    4.0930   27.1230 C.2     1  UNL1        0.2628
     16 N         -25.6140    5.2520   26.4490 N.am    1  UNL1       -0.2000
     17 C         -25.0260    6.4790   26.9630 C.3     1  UNL1        0.1388
     18 O         -25.1430    3.9660   28.2430 O.2     1  UNL1       -0.2686
     19 C         -27.4380    3.0910   25.6450 C.2     1  UNL1        0.1025
     20 N         -28.0750    2.0890   25.0030 N.2     1  UNL1       -0.2118
     21 C         -27.5430    0.8490   25.0790 C.2     1  UNL1        0.2344
     22 O         -28.1930   -0.2080   24.4770 O.2     1  UNL1       -0.4585
     23 C         -29.4600    0.0050   23.8660 C.3     1  UNL1        0.2423
     24 C         -30.0650   -1.3770   23.5730 C.3     1  UNL1        0.2292
     25 O         -30.7290   -1.8780   24.7210 O.3     1  UNL1       -0.2162
     26 C         -26.3540    0.5760   25.7770 C.3     1  UNL1        0.2440
     27 F         -25.8600   -0.6810   25.7950 F       1  UNL1       -0.2265
     28 C         -21.4378    0.6335   29.1916 C.2     1  UNL1       -0.0009
     29 C         -22.6739    0.2113   29.3809 C.2     1  UNL1       -0.0030
     30 C         -21.1019    1.4254   28.1205 C.2     1  UNL1        0.0212
     31 C         -24.2522    1.6155   26.2762 C.2     1  UNL1       -0.0125
     32 N         -27.6222    1.7411   29.3442 N.am    1  UNL1       -0.0679
     33 C         -27.4144    0.3549   29.0742 C.2     1  UNL1        0.3592
     34 O         -21.6161    2.1416   25.9221 O.2     1  UNL1       -0.4673
     35 C         -23.7270    0.5636   28.5690 C.2     1  UNL1       -0.0027
     36 N         -26.2363    0.0102   28.3790 N.am    1  UNL1       -0.1828
     37 C         -24.9558   -0.0363   28.9738 C.3     1  UNL1        0.1243
     38 C         -23.4013    1.3080   27.3778 C.2     1  UNL1        0.0157
     39 O         -28.3595   -0.4284   29.4498 O.2     1  UNL1       -0.2474
     40 C         -22.4765    2.1954   24.8548 C.2     1  UNL1        0.1727
     41 C         -22.0493    1.6941   27.1396 C.3     1  UNL1        0.2099
     42 C         -23.7701    1.8994   25.0889 C.2     1  UNL1        0.0360
@<TRIPOS>BOND
     1     1    37    1
     2     2     7    1
     3     2     1    1
     4     3     2    2
     5     4     3    1
     6     4     5    2
     7     5     6    1
     8     6     7    2
     9     8     1    1
    10     8     9    1
    11     8    12    1
    12     9    10    1
    13    10    11    1
    14    12    11    1
    15    13    31    1
    16    14    13    1
    17    14    15    1
    18    15    18    2
    19    16    17    1
    20    16    15    1
    21    19    14    2
    22    20    21    2
    23    20    19    1
    24    21    26    1
    25    22    21    1
    26    23    22    1
    27    24    23    1
    28    24    25    1
    29    26    27    1
    30    26    13    1
    31    28    29    1
    32    30    28    2
    33    31    38    2
    34    33    32    1
    35    33    39    2
    36    34    41    1
    37    35    37    1
    38    35    29    2
    39    36    33    1
    40    37    36    1
    41    38    35    1
    42    40    42    2
    43    40    34    1
    44    41    38    1
    45    41    30    1
    46    42    31    1
