@<TRIPOS>MOLECULE
outputs/IAG933/test6/raw/output_2625_IAG933_linker_design_.xyz
 46 50 0 0 0
SMALL
GASTEIGER

@<TRIPOS>ATOM
      1 C         -24.8550   -1.0120   30.1430 C.3     1  UNL1        0.0625
      2 C         -24.9730   -2.5050   29.7880 C.2     1  UNL1       -0.0191
      3 C         -23.9060   -3.1730   29.1460 C.2     1  UNL1       -0.0042
      4 C         -23.9890   -4.5490   28.8530 C.2     1  UNL1       -0.0003
      5 C         -25.1370   -5.2800   29.2050 C.2     1  UNL1       -0.0000
      6 C         -26.2320   -4.6110   29.7840 C.2     1  UNL1       -0.0003
      7 C         -26.1550   -3.2320   30.0650 C.2     1  UNL1       -0.0042
      8 C         -25.3870   -0.6790   31.5710 C.3     1  UNL1        0.0788
      9 C         -25.1890    0.7730   32.0280 C.3     1  UNL1        0.0193
     10 C         -25.3360    0.6840   33.5440 C.3     1  UNL1        0.0202
     11 C         -24.8290   -0.7150   33.9050 C.3     1  UNL1        0.0887
     12 N         -24.7580   -1.4810   32.6460 N.3     1  UNL1       -0.2191
     13 C         -25.6880    1.6140   26.4610 C.2     1  UNL1        0.0398
     14 C         -26.2500    2.9200   26.3950 C.2     1  UNL1        0.0766
     15 C         -25.6420    4.0930   27.1230 C.2     1  UNL1        0.2664
     16 N         -25.6140    5.2520   26.4490 N.am    1  UNL1       -0.1997
     17 C         -25.0260    6.4790   26.9630 C.3     1  UNL1        0.1388
     18 O         -25.1430    3.9660   28.2430 O.2     1  UNL1       -0.2683
     19 C         -27.4380    3.0910   25.6450 C.2     1  UNL1        0.1067
     20 N         -28.0750    2.0890   25.0030 N.2     1  UNL1       -0.2081
     21 C         -27.5430    0.8490   25.0790 C.2     1  UNL1        0.2533
     22 O         -28.1930   -0.2080   24.4770 O.2     1  UNL1       -0.4558
     23 C         -29.4600    0.0050   23.8660 C.3     1  UNL1        0.2426
     24 C         -30.0650   -1.3770   23.5730 C.3     1  UNL1        0.2292
     25 O         -30.7290   -1.8780   24.7210 O.3     1  UNL1       -0.2162
     26 C         -26.3540    0.5760   25.7770 C.2     1  UNL1        0.1931
     27 F         -25.8600   -0.6810   25.7950 F       1  UNL1       -0.1992
     28 C         -23.3071    1.7495   26.6230 C.2     1  UNL1        0.1541
     29 N         -26.6346   -0.0984   28.6748 N.am    1  UNL1       -0.2020
     30 C         -29.4666    4.7754   27.9556 C.3     1  UNL1        0.0310
     31 C         -24.3686    0.6109   28.2821 C.2     1  UNL1       -0.0014
     32 C         -28.7492    1.8328   30.3748 C.2     1  UNL1       -0.0133
     33 C         -29.9394    4.3643   30.3796 C.2     1  UNL1       -0.0043
     34 C         -29.3965    3.8767   29.1908 C.2     1  UNL1       -0.0221
     35 C         -24.4914    1.2902   27.0383 C.2     1  UNL1        0.0263
     36 C         -25.2807   -0.0931   28.9791 C.3     1  UNL1        0.1226
     37 F         -23.0291    2.4846   25.5022 F       1  UNL1       -0.2057
     38 O         -28.8299   -0.4975   28.3438 O.2     1  UNL1       -0.2730
     39 F         -21.1086    1.7675   27.4801 F       1  UNL1       -0.2251
     40 C         -22.4344    1.4202   27.5494 C.3     1  UNL1        0.2321
     41 C         -29.2894    2.3686   31.5596 C.2     1  UNL1       -0.0038
     42 C         -29.8678    3.6298   31.5534 C.2     1  UNL1       -0.0006
     43 C         -28.2374    0.4065   30.4070 C.3     1  UNL1        0.1131
     44 C         -23.0201    0.7599   28.5819 C.2     1  UNL1        0.0128
     45 C         -28.7855    2.6047   29.1952 C.2     1  UNL1       -0.0080
     46 C         -27.9157   -0.1300   29.0555 C.2     1  UNL1        0.2461
@<TRIPOS>BOND
     1     1    36    1
     2     2     7    1
     3     2     1    1
     4     3     2    2
     5     4     3    1
     6     4     5    2
     7     5     6    1
     8     6     7    2
     9     8     1    1
    10     8     9    1
    11     8    12    1
    12     9    10    1
    13    10    11    1
    14    12    11    1
    15    13    35    1
    16    14    13    1
    17    14    15    1
    18    15    18    2
    19    16    17    1
    20    16    15    1
    21    19    14    2
    22    20    21    2
    23    20    19    1
    24    21    26    1
    25    22    21    1
    26    23    22    1
    27    24    23    1
    28    24    25    1
    29    26    27    1
    30    26    13    2
    31    28    35    2
    32    28    40    1
    33    29    46    1
    34    30    34    1
    35    31    44    2
    36    31    36    1
    37    32    43    1
    38    32    41    1
    39    33    42    1
    40    34    45    1
    41    34    33    2
    42    35    31    1
    43    36    29    1
    44    37    28    1
    45    38    46    2
    46    40    39    1
    47    40    44    1
    48    42    41    2
    49    45    32    2
    50    46    43    1
