@<TRIPOS>MOLECULE
outputs/IAG933/test6/raw/output_2628_IAG933_linker_design_.xyz
 49 53 0 0 0
SMALL
GASTEIGER

@<TRIPOS>ATOM
      1 C         -24.8550   -1.0120   30.1430 C.3     1  UNL1        0.0975
      2 C         -24.9730   -2.5050   29.7880 C.2     1  UNL1       -0.0064
      3 C         -23.9060   -3.1730   29.1460 C.2     1  UNL1       -0.0029
      4 C         -23.9890   -4.5490   28.8530 C.2     1  UNL1       -0.0003
      5 C         -25.1370   -5.2800   29.2050 C.2     1  UNL1       -0.0000
      6 C         -26.2320   -4.6110   29.7840 C.2     1  UNL1       -0.0003
      7 C         -26.1550   -3.2320   30.0650 C.2     1  UNL1       -0.0029
      8 C         -25.3870   -0.6790   31.5710 C.3     1  UNL1        0.0916
      9 C         -25.1890    0.7730   32.0280 C.3     1  UNL1        0.0206
     10 C         -25.3360    0.6840   33.5440 C.3     1  UNL1        0.0203
     11 C         -24.8290   -0.7150   33.9050 C.3     1  UNL1        0.0888
     12 N         -24.7580   -1.4810   32.6460 N.3     1  UNL1       -0.2178
     13 C         -25.6880    1.6140   26.4610 C.2     1  UNL1        0.0872
     14 C         -26.2500    2.9200   26.3950 C.2     1  UNL1        0.0899
     15 C         -25.6420    4.0930   27.1230 C.2     1  UNL1        0.2676
     16 N         -25.6140    5.2520   26.4490 N.am    1  UNL1       -0.1997
     17 C         -25.0260    6.4790   26.9630 C.3     1  UNL1        0.1388
     18 O         -25.1430    3.9660   28.2430 O.2     1  UNL1       -0.2683
     19 C         -27.4380    3.0910   25.6450 C.2     1  UNL1        0.1080
     20 N         -28.0750    2.0890   25.0030 N.2     1  UNL1       -0.2080
     21 C         -27.5430    0.8490   25.0790 C.2     1  UNL1        0.2546
     22 O         -28.1930   -0.2080   24.4770 O.2     1  UNL1       -0.4558
     23 C         -29.4600    0.0050   23.8660 C.3     1  UNL1        0.2426
     24 C         -30.0650   -1.3770   23.5730 C.3     1  UNL1        0.2292
     25 O         -30.7290   -1.8780   24.7210 O.3     1  UNL1       -0.2162
     26 C         -26.3540    0.5760   25.7770 C.2     1  UNL1        0.2063
     27 F         -25.8600   -0.6810   25.7950 F       1  UNL1       -0.1979
     28 C         -27.5462    1.2424   29.2507 C.3     1  UNL1        0.1064
     29 C         -30.6314    5.6003   29.3545 C.3     1  UNL1        0.1175
     30 C         -30.6449    5.0276   30.6137 C.2     1  UNL1       -0.0050
     31 C         -29.5933    4.1798   31.0138 C.2     1  UNL1       -0.0045
     32 N         -27.3998    1.9504   30.5459 N.3     1  UNL1       -0.2135
     33 C         -28.5028    3.9901   30.1041 C.2     1  UNL1        0.0079
     34 C         -29.4764    6.3390   27.2785 C.3     1  UNL1        0.1125
     35 N         -29.5738    5.4315   28.4538 N.pl3   1  UNL1       -0.3011
     36 N         -25.3729   -0.1424   29.0263 N.3     1  UNL1       -0.2532
     37 C         -26.9261   -0.1158   28.8658 C.3     1  UNL1        0.0926
     38 N         -24.5360    1.3373   26.9804 N.pl3   1  UNL1       -0.2942
     39 C         -22.9041    0.3184   28.3056 C.3     1  UNL1        0.0385
     40 C         -25.4771    4.1618   32.0572 C.3     1  UNL1        0.1441
     41 C         -22.5046    1.7641   27.9763 C.3     1  UNL1        0.0229
     42 C         -24.3974    0.1945   27.8796 C.3     1  UNL1        0.1345
     43 C         -27.3885    3.3790   30.5018 C.3     1  UNL1        0.0987
     44 O         -26.4556    4.7042   32.8717 O.3     1  UNL1       -0.3510
     45 C         -20.9991    1.9019   27.8120 C.3     1  UNL1        0.0019
     46 C         -28.5628    4.5095   28.7617 C.2     1  UNL1        0.0586
     47 C         -25.8293    5.7322   33.6593 C.3     1  UNL1        0.1741
     48 C         -26.0369    4.0290   30.6266 C.3     1  UNL1        0.0540
     49 C         -23.2629    2.1093   26.7069 C.3     1  UNL1        0.0921
@<TRIPOS>BOND
     1     1    36    1
     2     2     7    1
     3     2     1    1
     4     3     2    2
     5     4     3    1
     6     4     5    2
     7     5     6    1
     8     6     7    2
     9     8     1    1
    10     8     9    1
    11     8    12    1
    12     9    10    1
    13    10    11    1
    14    12    11    1
    15    13    38    1
    16    14    13    1
    17    14    15    1
    18    15    18    2
    19    16    17    1
    20    16    15    1
    21    19    14    2
    22    20    21    2
    23    20    19    1
    24    21    26    1
    25    22    21    1
    26    23    22    1
    27    24    23    1
    28    24    25    1
    29    26    27    1
    30    26    13    2
    31    28    32    1
    32    29    30    1
    33    30    31    2
    34    33    43    1
    35    33    31    1
    36    34    35    1
    37    35    46    1
    38    35    29    1
    39    37    36    1
    40    37    28    1
    41    38    42    1
    42    40    44    1
    43    41    45    1
    44    41    39    1
    45    42    39    1
    46    42    36    1
    47    43    32    1
    48    43    48    1
    49    44    47    1
    50    46    33    2
    51    48    40    1
    52    49    38    1
    53    49    41    1
