@<TRIPOS>MOLECULE
No_263-gen_results/8p0m/2024-11-27-11-27-31/
 7 7 0 0 0
SMALL
GASTEIGER

@<TRIPOS>ATOM
      1 C         -28.0162   -0.8135   28.8779 C.3     1  UNL1        0.0093
      2 C         -28.4690   -0.7850   29.8287 C.3     1  UNL1        0.0264
      3 C         -26.5042   -0.7777   28.8766 C.3     1  UNL1        0.0264
      4 C         -25.9500    0.1157   29.4052 C.2     1  UNL1       -0.0261
      5 C         -28.1871    0.3718   30.8329 C.2     1  UNL1       -0.0261
      6 C         -26.4462    0.9283   30.0317 C.2     1  UNL1       -0.0049
      7 C         -27.1286    1.2867   30.9083 C.2     1  UNL1       -0.0049
@<TRIPOS>BOND
     1     1     2    1
     2     1     3    1
     3     3     4    1
     4     2     5    1
     5     4     6    2
     6     5     7    2
     7     6     7    1
