@<TRIPOS>MOLECULE
outputs/IAG933/test6/raw/output_2630_IAG933_linker_design_.xyz
 42 46 0 0 0
SMALL
GASTEIGER

@<TRIPOS>ATOM
      1 C         -24.8550   -1.0120   30.1430 C.3     1  UNL1        0.1127
      2 C         -24.9730   -2.5050   29.7880 C.2     1  UNL1       -0.0030
      3 C         -23.9060   -3.1730   29.1460 C.2     1  UNL1       -0.0026
      4 C         -23.9890   -4.5490   28.8530 C.2     1  UNL1       -0.0003
      5 C         -25.1370   -5.2800   29.2050 C.2     1  UNL1       -0.0000
      6 C         -26.2320   -4.6110   29.7840 C.2     1  UNL1       -0.0003
      7 C         -26.1550   -3.2320   30.0650 C.2     1  UNL1       -0.0026
      8 C         -25.3870   -0.6790   31.5710 C.3     1  UNL1        0.0951
      9 C         -25.1890    0.7730   32.0280 C.3     1  UNL1        0.0209
     10 C         -25.3360    0.6840   33.5440 C.3     1  UNL1        0.0203
     11 C         -24.8290   -0.7150   33.9050 C.3     1  UNL1        0.0888
     12 N         -24.7580   -1.4810   32.6460 N.3     1  UNL1       -0.2174
     13 C         -25.6880    1.6140   26.4610 C.2     1  UNL1        0.1832
     14 C         -26.2500    2.9200   26.3950 C.2     1  UNL1        0.1111
     15 C         -25.6420    4.0930   27.1230 C.2     1  UNL1        0.2694
     16 N         -25.6140    5.2520   26.4490 N.am    1  UNL1       -0.1996
     17 C         -25.0260    6.4790   26.9630 C.3     1  UNL1        0.1388
     18 O         -25.1430    3.9660   28.2430 O.2     1  UNL1       -0.2682
     19 C         -27.4380    3.0910   25.6450 C.2     1  UNL1        0.1098
     20 N         -28.0750    2.0890   25.0030 N.2     1  UNL1       -0.2079
     21 C         -27.5430    0.8490   25.0790 C.2     1  UNL1        0.2564
     22 O         -28.1930   -0.2080   24.4770 O.2     1  UNL1       -0.4558
     23 C         -29.4600    0.0050   23.8660 C.3     1  UNL1        0.2426
     24 C         -30.0650   -1.3770   23.5730 C.3     1  UNL1        0.2292
     25 O         -30.7290   -1.8780   24.7210 O.3     1  UNL1       -0.2162
     26 C         -26.3540    0.5760   25.7770 C.2     1  UNL1        0.2273
     27 F         -25.8600   -0.6810   25.7950 F       1  UNL1       -0.1960
     28 C         -23.8049    1.2758   27.5331 C.2     1  UNL1        0.1690
     29 C         -28.2254    1.9484   29.0978 C.3     1  UNL1        0.0904
     30 N         -27.4114   -0.2412   28.9693 N.am    1  UNL1       -0.1867
     31 CL        -22.9345    2.3920   25.2957 Cl      1  UNL1       -0.0790
     32 C         -21.4400    0.9747   28.6926 C.2     1  UNL1        0.0023
     33 O         -24.9430    1.3654   27.0485 O.2     1  UNL1       -0.4487
     34 C         -26.9276    1.8766   29.8742 C.3     1  UNL1        0.0520
     35 C         -21.5201    1.6851   27.5244 C.2     1  UNL1        0.0146
     36 C         -28.3379    0.5651   28.4818 C.2     1  UNL1        0.2429
     37 C         -22.7585    1.7920   26.9156 C.2     1  UNL1        0.0933
     38 C         -23.8116    0.5529   28.6488 C.2     1  UNL1        0.0851
     39 N         -24.9334    0.0009   29.1806 N.pl3   1  UNL1       -0.2862
     40 C         -22.5801    0.4308   29.2356 C.2     1  UNL1        0.0177
     41 C         -26.2210    0.6570   29.2494 C.3     1  UNL1        0.1708
     42 O         -29.0753    0.2674   27.6176 O.2     1  UNL1       -0.2733
@<TRIPOS>BOND
     1     1    39    1
     2     2     7    1
     3     2     1    1
     4     3     2    2
     5     4     3    1
     6     4     5    2
     7     5     6    1
     8     6     7    2
     9     8     1    1
    10     8     9    1
    11     8    12    1
    12     9    10    1
    13    10    11    1
    14    12    11    1
    15    13    33    1
    16    14    13    1
    17    14    15    1
    18    15    18    2
    19    16    17    1
    20    16    15    1
    21    19    14    2
    22    20    21    2
    23    20    19    1
    24    21    26    1
    25    22    21    1
    26    23    22    1
    27    24    23    1
    28    24    25    1
    29    26    27    1
    30    26    13    2
    31    28    38    1
    32    29    34    1
    33    30    41    1
    34    31    37    1
    35    32    40    1
    36    33    28    1
    37    35    32    2
    38    36    30    1
    39    36    29    1
    40    37    35    1
    41    37    28    2
    42    38    39    1
    43    38    40    2
    44    41    39    1
    45    41    34    1
    46    42    36    2
