@<TRIPOS>MOLECULE
No_2631-gen_results/8p0m/2024-11-27-11-27-31/
 17 18 0 0 0
SMALL
GASTEIGER

@<TRIPOS>ATOM
      1 C         -28.0162   -0.8135   28.8779 C.ar    1  UNL1        0.0512
      2 C         -27.0636   -0.1189   28.6079 C.ar    1  UNL1        0.1735
      3 C         -25.7647   -0.3897   29.0360 C.ar    1  UNL1        0.1744
      4 C         -25.5296   -1.5302   29.9014 C.ar    1  UNL1        0.0337
      5 C         -26.6577   -2.2915   30.2035 C.ar    1  UNL1        0.0139
      6 C         -27.8548   -1.9555   29.7630 C.ar    1  UNL1        0.0609
      7 F         -24.6989    0.3589   28.7784 F       1  UNL1       -0.2009
      8 CL        -29.2046   -2.9455   30.2169 Cl      1  UNL1       -0.0821
      9 O         -27.1716    1.0309   27.8210 O.3     1  UNL1       -0.4485
     10 C         -27.2640    2.1352   28.0920 C.2     1  UNL1        0.1750
     11 C         -26.9663    3.0785   27.2495 C.2     1  UNL1        0.0121
     12 C         -25.9943    3.5680   27.1267 C.2     1  UNL1       -0.0187
     13 C         -24.8238    3.3144   27.9447 C.2     1  UNL1       -0.0045
     14 C         -23.4831    3.6927   27.6265 C.2     1  UNL1       -0.0046
     15 C         -23.4096    3.8983   26.1864 C.2     1  UNL1       -0.0214
     16 C         -24.8777    3.8735   25.8969 C.3     1  UNL1        0.0521
     17 C         -27.8926    4.3679   27.4165 C.3     1  UNL1        0.0340
@<TRIPOS>BOND
     1     3     7    1
     2     6     8    1
     3     2     9    1
     4     9    10    1
     5    10    11    2
     6    11    12    1
     7    12    13    2
     8    13    14    1
     9    14    15    2
    10    12    16    1
    11    15    16    1
    12    11    17    1
    13     1     2   ar
    14     2     3   ar
    15     3     4   ar
    16     4     5   ar
    17     5     6   ar
    18     6     1   ar
