@<TRIPOS>MOLECULE
No_2632-gen_results/8p0m/2024-11-27-11-27-31/
 31 34 0 0 0
SMALL
GASTEIGER

@<TRIPOS>ATOM
      1 C         -28.0162   -0.8135   28.8779 C.ar    1  UNL1        0.0160
      2 C         -27.0636   -0.1190   28.6079 C.ar    1  UNL1        0.0578
      3 C         -25.7923   -0.4302   29.0761 C.ar    1  UNL1        0.0106
      4 C         -25.5756   -1.5654   29.9363 C.ar    1  UNL1        0.0010
      5 C         -26.7354   -2.3004   30.2173 C.ar    1  UNL1        0.0046
      6 C         -27.9184   -1.9537   29.7629 C.ar    1  UNL1        0.0562
      7 CL        -27.1463    1.2916   27.6407 Cl      1  UNL1       -0.0822
      8 C         -29.1644   -2.6283   30.1397 C.2     1  UNL1        0.2690
      9 N         -29.1597   -3.8842   30.4178 N.am    1  UNL1       -0.1754
     10 O         -30.2449   -2.0448   30.1652 O.2     1  UNL1       -0.2680
     11 C         -30.3151   -4.7315   30.7461 C.ar    1  UNL1        0.0737
     12 C         -30.9560   -5.1379   29.6118 C.ar    1  UNL1        0.0166
     13 C         -31.5919   -6.3222   29.6503 C.ar    1  UNL1        0.0013
     14 C         -31.7675   -7.0175   30.9086 C.ar    1  UNL1        0.0001
     15 C         -31.0627   -6.5506   32.0203 C.ar    1  UNL1        0.0013
     16 C         -30.1828   -5.4600   31.9384 C.ar    1  UNL1        0.0166
     17 C         -24.5195    0.3472   28.7182 C.ar    1  UNL1        0.0008
     18 C         -23.3386   -0.1542   29.0964 C.ar    1  UNL1        0.0000
     19 C         -22.1525    0.5991   28.8158 C.ar    1  UNL1        0.0000
     20 C         -22.1731    1.6208   27.8958 C.ar    1  UNL1        0.0000
     21 C         -23.3926    2.1462   27.4859 C.ar    1  UNL1        0.0000
     22 C         -24.5482    1.4880   27.8815 C.ar    1  UNL1        0.0000
     23 C         -32.3998   -6.7794   28.5053 C.ar    1  UNL1        0.0000
     24 C         -31.8237   -7.7384   27.7225 C.ar    1  UNL1        0.0000
     25 C         -32.2284   -7.9541   26.3910 C.ar    1  UNL1        0.0000
     26 C         -33.2778   -7.1317   25.9083 C.ar    1  UNL1       -0.0000
     27 C         -33.3139   -5.9413   27.8882 C.ar    1  UNL1       -0.0003
     28 C         -33.7635   -6.1096   26.6233 C.ar    1  UNL1       -0.0000
     29 C         -33.8365   -4.7875   28.6732 C.2     1  UNL1       -0.0046
     30 C         -34.8942   -5.0712   29.5037 C.2     1  UNL1       -0.0258
     31 C         -35.4377   -4.0291   30.3067 C.3     1  UNL1        0.0307
@<TRIPOS>BOND
     1     2     7    1
     2     6     8    1
     3     8     9   am
     4     8    10    2
     5     9    11    1
     6     3    17    1
     7    13    23    1
     8    27    29    1
     9    29    30    2
    10    30    31    1
    11    11    12   ar
    12    12    13   ar
    13    13    14   ar
    14    14    15   ar
    15    15    16   ar
    16    16    11   ar
    17     1     2   ar
    18     2     3   ar
    19     3     4   ar
    20     4     5   ar
    21     5     6   ar
    22     6     1   ar
    23    17    18   ar
    24    18    19   ar
    25    19    20   ar
    26    20    21   ar
    27    21    22   ar
    28    22    17   ar
    29    23    24   ar
    30    24    25   ar
    31    25    26   ar
    32    26    28   ar
    33    28    27   ar
    34    27    23   ar
