@<TRIPOS>MOLECULE
outputs/IAG933/test6/raw/output_2634_IAG933_linker_design_.xyz
 41 45 0 0 0
SMALL
GASTEIGER

@<TRIPOS>ATOM
      1 C         -24.8550   -1.0120   30.1430 C.3     1  UNL1        0.0454
      2 C         -24.9730   -2.5050   29.7880 C.2     1  UNL1       -0.0207
      3 C         -23.9060   -3.1730   29.1460 C.2     1  UNL1       -0.0042
      4 C         -23.9890   -4.5490   28.8530 C.2     1  UNL1       -0.0003
      5 C         -25.1370   -5.2800   29.2050 C.2     1  UNL1       -0.0000
      6 C         -26.2320   -4.6110   29.7840 C.2     1  UNL1       -0.0003
      7 C         -26.1550   -3.2320   30.0650 C.2     1  UNL1       -0.0042
      8 C         -25.3870   -0.6790   31.5710 C.3     1  UNL1        0.0952
      9 C         -25.1890    0.7730   32.0280 C.3     1  UNL1        0.0907
     10 C         -25.3360    0.6840   33.5440 C.3     1  UNL1        0.0400
     11 C         -24.8290   -0.7150   33.9050 C.3     1  UNL1        0.0905
     12 N         -24.7580   -1.4810   32.6460 N.3     1  UNL1       -0.2174
     13 C         -25.6880    1.6140   26.4610 C.2     1  UNL1        0.0303
     14 C         -26.2500    2.9200   26.3950 C.2     1  UNL1        0.0738
     15 C         -25.6420    4.0930   27.1230 C.2     1  UNL1        0.2662
     16 N         -25.6140    5.2520   26.4490 N.am    1  UNL1       -0.1997
     17 C         -25.0260    6.4790   26.9630 C.3     1  UNL1        0.1388
     18 O         -25.1430    3.9660   28.2430 O.2     1  UNL1       -0.2683
     19 C         -27.4380    3.0910   25.6450 C.2     1  UNL1        0.1065
     20 N         -28.0750    2.0890   25.0030 N.2     1  UNL1       -0.2081
     21 C         -27.5430    0.8490   25.0790 C.2     1  UNL1        0.2530
     22 O         -28.1930   -0.2080   24.4770 O.2     1  UNL1       -0.4558
     23 C         -29.4600    0.0050   23.8660 C.3     1  UNL1        0.2426
     24 C         -30.0650   -1.3770   23.5730 C.3     1  UNL1        0.2292
     25 O         -30.7290   -1.8780   24.7210 O.3     1  UNL1       -0.2162
     26 C         -26.3540    0.5760   25.7770 C.2     1  UNL1        0.1904
     27 F         -25.8600   -0.6810   25.7950 F       1  UNL1       -0.1995
     28 C         -26.5139    5.0603   34.0892 C.3     1  UNL1        0.0530
     29 C         -27.1531    2.7836   32.8125 C.2     1  UNL1        0.0572
     30 C         -24.9035    3.0262   31.4664 C.3     1  UNL1        0.0961
     31 C         -24.8003    4.4506   32.2299 C.2     1  UNL1       -0.0110
     32 C         -27.3237    4.0593   33.7058 C.2     1  UNL1       -0.0057
     33 C         -21.9797    1.8498   26.1955 C.3     1  UNL1        0.0191
     34 C         -22.0349    1.5731   27.7223 C.3     1  UNL1        0.0724
     35 C         -23.4146    1.8248   25.6478 C.3     1  UNL1        0.0220
     36 C         -25.2682    5.3992   33.1093 C.2     1  UNL1       -0.0243
     37 N         -25.9914    2.0649   31.8040 N.pl3   1  UNL1       -0.3048
     38 C         -23.8161    2.4256   30.4389 C.3     1  UNL1        0.0416
     39 N         -23.4647    1.9378   28.0626 N.3     1  UNL1       -0.2702
     40 C         -23.6698    1.5090   29.4495 C.3     1  UNL1        0.0744
     41 C         -24.2879    1.3995   26.9319 C.3     1  UNL1        0.0827
@<TRIPOS>BOND
     1     2     7    1
     2     2     1    1
     3     3     2    2
     4     4     3    1
     5     4     5    2
     6     5     6    1
     7     6     7    2
     8     8     1    1
     9     8     9    1
    10     8    12    1
    11     9    37    1
    12     9    10    1
    13    10    11    1
    14    12    11    1
    15    14    13    1
    16    14    15    1
    17    15    18    2
    18    16    17    1
    19    16    15    1
    20    19    14    2
    21    20    21    2
    22    20    19    1
    23    21    26    1
    24    22    21    1
    25    23    22    1
    26    24    23    1
    27    24    25    1
    28    26    27    1
    29    26    13    2
    30    29    32    2
    31    30    38    1
    32    30    37    1
    33    30    31    1
    34    31    36    2
    35    32    28    1
    36    33    34    1
    37    34    39    1
    38    35    33    1
    39    35    41    1
    40    36    28    1
    41    37    29    1
    42    39    40    1
    43    40    38    1
    44    41    13    1
    45    41    39    1
