@<TRIPOS>MOLECULE
outputs/IAG933/test6/raw/output_2635_IAG933_linker_design_.xyz
 43 48 0 0 0
SMALL
GASTEIGER

@<TRIPOS>ATOM
      1 C         -24.8550   -1.0120   30.1430 C.3     1  UNL1        0.1007
      2 C         -24.9730   -2.5050   29.7880 C.2     1  UNL1       -0.0063
      3 C         -23.9060   -3.1730   29.1460 C.2     1  UNL1       -0.0029
      4 C         -23.9890   -4.5490   28.8530 C.2     1  UNL1       -0.0003
      5 C         -25.1370   -5.2800   29.2050 C.2     1  UNL1       -0.0000
      6 C         -26.2320   -4.6110   29.7840 C.2     1  UNL1       -0.0003
      7 C         -26.1550   -3.2320   30.0650 C.2     1  UNL1       -0.0029
      8 C         -25.3870   -0.6790   31.5710 C.3     1  UNL1        0.1097
      9 C         -25.1890    0.7730   32.0280 C.3     1  UNL1        0.0948
     10 C         -25.3360    0.6840   33.5440 C.3     1  UNL1        0.0401
     11 C         -24.8290   -0.7150   33.9050 C.3     1  UNL1        0.0905
     12 N         -24.7580   -1.4810   32.6460 N.3     1  UNL1       -0.2160
     13 C         -25.6880    1.6140   26.4610 C.2     1  UNL1        0.0407
     14 C         -26.2500    2.9200   26.3950 C.2     1  UNL1        0.0748
     15 C         -25.6420    4.0930   27.1230 C.2     1  UNL1        0.2269
     16 N         -25.6140    5.2520   26.4490 N.2     1  UNL1       -0.2353
     17 C         -25.0260    6.4790   26.9630 C.3     1  UNL1        0.1550
     18 O         -25.1430    3.9660   28.2430 O.2     1  UNL1       -0.4352
     19 C         -27.4380    3.0910   25.6450 C.2     1  UNL1        0.1068
     20 N         -28.0750    2.0890   25.0030 N.2     1  UNL1       -0.2081
     21 C         -27.5430    0.8490   25.0790 C.2     1  UNL1        0.2533
     22 O         -28.1930   -0.2080   24.4770 O.2     1  UNL1       -0.4558
     23 C         -29.4600    0.0050   23.8660 C.3     1  UNL1        0.2426
     24 C         -30.0650   -1.3770   23.5730 C.3     1  UNL1        0.2292
     25 O         -30.7290   -1.8780   24.7210 O.3     1  UNL1       -0.2162
     26 C         -26.3540    0.5760   25.7770 C.2     1  UNL1        0.1931
     27 F         -25.8600   -0.6810   25.7950 F       1  UNL1       -0.1992
     28 C         -26.1225    4.7312   32.3006 C.2     1  UNL1        0.0015
     29 C         -21.5691    0.4525   28.4508 C.3     1  UNL1        0.0234
     30 C         -22.6673    1.9475   27.1305 C.2     1  UNL1        0.0511
     31 C         -26.3041    5.6602   31.2998 C.2     1  UNL1        0.0032
     32 CL        -22.0541    2.4113   24.6524 Cl      1  UNL1       -0.1072
     33 N         -23.7795    1.8758   28.1595 N.2     1  UNL1       -0.2443
     34 C         -21.5308    1.3741   27.3834 C.3     1  UNL1        0.0437
     35 C         -24.1487    1.4783   29.6669 C.3     1  UNL1        0.2447
     36 C         -23.0878    2.7037   25.8675 C.3     1  UNL1        0.1355
     37 C         -25.3282    3.1514   30.8616 C.2     1  UNL1        0.0852
     38 C         -25.6349    3.4927   32.0794 C.2     1  UNL1        0.0177
     39 C         -25.9530    5.3281   29.9982 C.2     1  UNL1        0.0388
     40 N         -24.8446    1.7142   30.8254 N.pl3   1  UNL1       -0.2748
     41 C         -25.4660    4.0972   29.6467 C.2     1  UNL1        0.1604
     42 N         -23.8626    0.0346   29.8319 N.3     1  UNL1       -0.2347
     43 C         -22.5814   -0.3135   29.1928 C.3     1  UNL1        0.0761
@<TRIPOS>BOND
     1     1     2    1
     2     1     8    1
     3     2     7    1
     4     3     2    2
     5     4     3    1
     6     4     5    2
     7     5     6    1
     8     6     7    2
     9     8     9    1
    10     8    12    1
    11     9    10    1
    12    10    11    1
    13    12    11    1
    14    14    13    1
    15    14    15    1
    16    15    18    1
    17    16    17    1
    18    16    15    2
    19    18    41    1
    20    19    14    2
    21    20    21    2
    22    20    19    1
    23    21    26    1
    24    22    21    1
    25    23    22    1
    26    24    23    1
    27    24    25    1
    28    26    27    1
    29    26    13    2
    30    29    43    1
    31    30    34    1
    32    30    33    2
    33    31    28    2
    34    32    36    1
    35    34    29    1
    36    35    33    1
    37    35    42    1
    38    35    40    1
    39    36    30    1
    40    37    38    2
    41    38    28    1
    42    39    31    1
    43    40    37    1
    44    40     9    1
    45    41    39    2
    46    41    37    1
    47    42    43    1
    48    42     1    1
