@<TRIPOS>MOLECULE
outputs/IAG933/test6/raw/output_2636_IAG933_linker_design_.xyz
 45 49 0 0 0
SMALL
GASTEIGER

@<TRIPOS>ATOM
      1 C         -24.8550   -1.0120   30.1430 C.3     1  UNL1        0.0585
      2 C         -24.9730   -2.5050   29.7880 C.2     1  UNL1       -0.0195
      3 C         -23.9060   -3.1730   29.1460 C.2     1  UNL1       -0.0042
      4 C         -23.9890   -4.5490   28.8530 C.2     1  UNL1       -0.0003
      5 C         -25.1370   -5.2800   29.2050 C.2     1  UNL1       -0.0000
      6 C         -26.2320   -4.6110   29.7840 C.2     1  UNL1       -0.0003
      7 C         -26.1550   -3.2320   30.0650 C.2     1  UNL1       -0.0042
      8 C         -25.3870   -0.6790   31.5710 C.3     1  UNL1        0.0785
      9 C         -25.1890    0.7730   32.0280 C.3     1  UNL1        0.0192
     10 C         -25.3360    0.6840   33.5440 C.3     1  UNL1        0.0202
     11 C         -24.8290   -0.7150   33.9050 C.3     1  UNL1        0.0887
     12 N         -24.7580   -1.4810   32.6460 N.3     1  UNL1       -0.2191
     13 C         -25.6880    1.6140   26.4610 C.2     1  UNL1        0.0378
     14 C         -26.2500    2.9200   26.3950 C.2     1  UNL1        0.0765
     15 C         -25.6420    4.0930   27.1230 C.2     1  UNL1        0.2664
     16 N         -25.6140    5.2520   26.4490 N.am    1  UNL1       -0.1997
     17 C         -25.0260    6.4790   26.9630 C.3     1  UNL1        0.1388
     18 O         -25.1430    3.9660   28.2430 O.2     1  UNL1       -0.2683
     19 C         -27.4380    3.0910   25.6450 C.2     1  UNL1        0.1067
     20 N         -28.0750    2.0890   25.0030 N.2     1  UNL1       -0.2081
     21 C         -27.5430    0.8490   25.0790 C.2     1  UNL1        0.2533
     22 O         -28.1930   -0.2080   24.4770 O.2     1  UNL1       -0.4558
     23 C         -29.4600    0.0050   23.8660 C.3     1  UNL1        0.2426
     24 C         -30.0650   -1.3770   23.5730 C.3     1  UNL1        0.2292
     25 O         -30.7290   -1.8780   24.7210 O.3     1  UNL1       -0.2162
     26 C         -26.3540    0.5760   25.7770 C.2     1  UNL1        0.1930
     27 F         -25.8600   -0.6810   25.7950 F       1  UNL1       -0.1992
     28 C         -29.8294    0.2997   28.1416 C.3     1  UNL1        0.0320
     29 C         -29.7984    3.8089   28.7308 C.3     1  UNL1        0.0935
     30 F         -20.7037    1.7373   28.1596 F       1  UNL1       -0.2042
     31 C         -23.4738    1.7637   25.9578 C.2     1  UNL1        0.0021
     32 C         -28.6707    0.4065   28.9118 C.3     1  UNL1        0.0958
     33 C         -24.4741    1.2703   26.8929 C.2     1  UNL1       -0.0000
     34 C         -27.6372   -0.5613   29.2583 C.3     1  UNL1        0.0981
     35 N         -29.5858    2.3784   28.8841 N.am    1  UNL1       -0.2795
     36 C         -21.8487    1.4069   27.6869 C.2     1  UNL1        0.1399
     37 N         -26.4589   -0.3996   28.4327 N.3     1  UNL1       -0.2142
     38 C         -22.7760    0.6881   28.4662 C.2     1  UNL1        0.0267
     39 C         -28.5482    1.7881   29.3213 C.2     1  UNL1        0.2266
     40 C         -22.1463    1.8313   26.3996 C.2     1  UNL1        0.0296
     41 C         -30.4967    1.5095   28.2867 C.3     1  UNL1        0.0939
     42 C         -25.0265   -0.3996   28.7708 C.3     1  UNL1        0.1003
     43 O         -27.5262    2.1197   29.9896 O.2     1  UNL1       -0.2748
     44 C         -28.6638    4.5448   29.4290 C.3     1  UNL1        0.0233
     45 C         -24.1179    0.5494   28.0782 C.2     1  UNL1       -0.0038
@<TRIPOS>BOND
     1     1    42    1
     2     2     7    1
     3     2     1    1
     4     3     2    2
     5     4     3    1
     6     4     5    2
     7     5     6    1
     8     6     7    2
     9     8     1    1
    10     8     9    1
    11     8    12    1
    12     9    10    1
    13    10    11    1
    14    12    11    1
    15    13    33    1
    16    14    13    1
    17    14    15    1
    18    15    18    2
    19    16    17    1
    20    16    15    1
    21    19    14    2
    22    20    21    2
    23    20    19    1
    24    21    26    1
    25    22    21    1
    26    23    22    1
    27    24    23    1
    28    24    25    1
    29    26    27    1
    30    26    13    2
    31    28    41    1
    32    28    32    1
    33    29    35    1
    34    29    44    1
    35    31    40    2
    36    31    33    1
    37    32    34    1
    38    32    39    1
    39    33    45    2
    40    35    39   am
    41    36    30    1
    42    36    38    2
    43    37    34    1
    44    39    43    2
    45    40    36    1
    46    41    35    1
    47    42    37    1
    48    45    38    1
    49    45    42    1
