@<TRIPOS>MOLECULE
outputs/IAG933/test6/raw/output_2638_IAG933_linker_design_.xyz
 40 44 0 0 0
SMALL
GASTEIGER

@<TRIPOS>ATOM
      1 C         -24.8550   -1.0120   30.1430 C.3     1  UNL1        0.0802
      2 C         -24.9730   -2.5050   29.7880 C.2     1  UNL1       -0.0155
      3 C         -23.9060   -3.1730   29.1460 C.2     1  UNL1       -0.0039
      4 C         -23.9890   -4.5490   28.8530 C.2     1  UNL1       -0.0003
      5 C         -25.1370   -5.2800   29.2050 C.2     1  UNL1       -0.0000
      6 C         -26.2320   -4.6110   29.7840 C.2     1  UNL1       -0.0003
      7 C         -26.1550   -3.2320   30.0650 C.2     1  UNL1       -0.0039
      8 C         -25.3870   -0.6790   31.5710 C.3     1  UNL1        0.0824
      9 C         -25.1890    0.7730   32.0280 C.3     1  UNL1        0.0196
     10 C         -25.3360    0.6840   33.5440 C.3     1  UNL1        0.0203
     11 C         -24.8290   -0.7150   33.9050 C.3     1  UNL1        0.0887
     12 N         -24.7580   -1.4810   32.6460 N.3     1  UNL1       -0.2187
     13 C         -25.6880    1.6140   26.4610 C.3     1  UNL1        0.1750
     14 C         -26.2500    2.9200   26.3950 C.2     1  UNL1        0.0773
     15 C         -25.6420    4.0930   27.1230 C.2     1  UNL1        0.2643
     16 N         -25.6140    5.2520   26.4490 N.am    1  UNL1       -0.1999
     17 C         -25.0260    6.4790   26.9630 C.3     1  UNL1        0.1388
     18 O         -25.1430    3.9660   28.2430 O.2     1  UNL1       -0.2686
     19 C         -27.4380    3.0910   25.6450 C.2     1  UNL1        0.1040
     20 N         -28.0750    2.0890   25.0030 N.2     1  UNL1       -0.2117
     21 C         -27.5430    0.8490   25.0790 C.2     1  UNL1        0.2361
     22 O         -28.1930   -0.2080   24.4770 O.2     1  UNL1       -0.4585
     23 C         -29.4600    0.0050   23.8660 C.3     1  UNL1        0.2423
     24 C         -30.0650   -1.3770   23.5730 C.3     1  UNL1        0.2292
     25 O         -30.7290   -1.8780   24.7210 O.3     1  UNL1       -0.2162
     26 C         -26.3540    0.5760   25.7770 C.3     1  UNL1        0.2623
     27 F         -25.8600   -0.6810   25.7950 F       1  UNL1       -0.2247
     28 C         -19.8184    0.2249   28.6218 C.3     1  UNL1        0.0726
     29 C         -23.6564    0.9516   27.5502 C.ar    1  UNL1        0.1541
     30 O         -21.4155    1.5635   26.8282 O.2     1  UNL1       -0.4251
     31 C         -24.8154   -0.0786   29.2546 C.ar    1  UNL1        0.0852
     32 O         -22.1904    2.7462   24.9185 O.3     1  UNL1        0.0315
     33 C         -22.3315   -0.1680   29.3019 C.2     1  UNL1        0.0057
     34 N         -24.8151    1.1051   27.3416 N.ar    1  UNL1       -0.2392
     35 C         -22.6413    1.5230   26.5741 C.2     1  UNL1        0.3528
     36 C         -20.9130    0.7993   28.0372 C.2     1  UNL1        0.1267
     37 N         -25.7089    0.4201   28.2679 N.ar    1  UNL1       -0.1728
     38 C         -23.4512    0.2994   28.7405 C.ar    1  UNL1        0.0393
     39 C         -21.2190    0.0382   28.6084 C.2     1  UNL1        0.0332
     40 O         -23.1354    2.0105   25.4752 O.2     1  UNL1       -0.2623
@<TRIPOS>BOND
     1     1    31    1
     2     2     7    1
     3     2     1    1
     4     3     2    2
     5     4     3    1
     6     4     5    2
     7     5     6    1
     8     6     7    2
     9     8     1    1
    10     8     9    1
    11     8    12    1
    12     9    10    1
    13    10    11    1
    14    12    11    1
    15    13    34    1
    16    14    13    1
    17    14    15    1
    18    15    18    2
    19    16    17    1
    20    16    15    1
    21    19    14    2
    22    20    21    2
    23    20    19    1
    24    21    26    1
    25    22    21    1
    26    23    22    1
    27    24    23    1
    28    24    25    1
    29    26    27    1
    30    26    13    1
    31    29    38   ar
    32    30    36    1
    33    32    40    1
    34    34    29   ar
    35    34    37   ar
    36    35    30    1
    37    35    29    2
    38    36    39    2
    39    36    28    1
    40    37    31   ar
    41    38    31   ar
    42    38    33    2
    43    39    33    1
    44    40    35    1
