@<TRIPOS>MOLECULE
No_2639-gen_results/8p0m/2024-11-27-11-27-31/
 23 26 0 0 0
SMALL
GASTEIGER

@<TRIPOS>ATOM
      1 C         -28.0162   -0.8135   28.8779 C.ar    1  UNL1        0.0164
      2 C         -28.4690   -0.7850   29.8287 C.ar    1  UNL1        0.0014
      3 C         -26.5042   -0.7777   28.8766 C.ar    1  UNL1        0.0060
      4 C         -25.7622   -0.0022   27.9705 C.ar    1  UNL1        0.0572
      5 C         -24.3914    0.1198   28.1381 C.ar    1  UNL1        0.0150
      6 C         -23.7115   -0.7200   29.0863 C.ar    1  UNL1        0.0686
      7 C         -24.4207   -1.5358   29.9161 C.ar    1  UNL1        0.0103
      8 C         -25.8017   -1.5837   29.8123 C.ar    1  UNL1        0.0009
      9 C         -29.9399   -0.6147   29.9523 C.ar    1  UNL1        0.0001
     10 C         -30.5535   -0.3493   28.7375 C.ar    1  UNL1        0.0015
     11 C         -29.8307   -0.1348   27.6333 C.ar    1  UNL1        0.0176
     12 C         -28.5010   -0.1617   27.6990 C.ar    1  UNL1        0.0668
     13 N         -27.6582    0.1087   26.6387 N.ar    1  UNL1       -0.2745
     14 C         -26.4092    0.5121   26.8519 C.ar    1  UNL1        0.2646
     15 C         -28.2909    0.5938   25.4057 C.ar    1  UNL1        0.0668
     16 O         -25.7048    1.1017   26.0061 O.2     1  UNL1       -0.2666
     17 C         -28.6584    1.8612   25.2676 C.ar    1  UNL1        0.0176
     18 C         -28.5339   -0.4122   24.4856 C.ar    1  UNL1        0.0176
     19 C         -29.3061    2.2662   24.1061 C.ar    1  UNL1        0.0015
     20 C         -29.6368    1.3429   23.1219 C.ar    1  UNL1        0.0001
     21 C         -29.2563    0.0395   23.3956 C.ar    1  UNL1        0.0015
     22 C         -22.2409   -0.5777   29.1725 C.1     1  UNL1        0.1004
     23 N         -21.2880    0.1505   29.1823 N.1     1  UNL1       -0.1908
@<TRIPOS>BOND
     1     1     3   ar
     2    12    13   ar
     3     4    14   ar
     4    13    14   ar
     5    13    15    1
     6    14    16    2
     7     6    22    1
     8    22    23    3
     9     1     2   ar
    10     2     9   ar
    11     9    10   ar
    12    10    11   ar
    13    11    12   ar
    14    12     1   ar
    15     3     4   ar
    16     4     5   ar
    17     5     6   ar
    18     6     7   ar
    19     7     8   ar
    20     8     3   ar
    21    15    17   ar
    22    17    19   ar
    23    19    20   ar
    24    20    21   ar
    25    21    18   ar
    26    18    15   ar
