@<TRIPOS>MOLECULE
No_264-gen_results/8p0m/2024-11-27-11-27-31/
 11 11 0 0 0
SMALL
GASTEIGER

@<TRIPOS>ATOM
      1 C         -28.0162   -0.8135   28.8779 C.ar    1  UNL1        0.0375
      2 C         -28.4690   -0.7850   29.8287 C.ar    1  UNL1        0.1454
      3 C         -26.5042   -0.7777   28.8766 C.ar    1  UNL1        0.0031
      4 C         -25.8103   -0.8531   30.1028 C.ar    1  UNL1        0.0002
      5 C         -27.9906   -0.8916   31.2257 C.ar    1  UNL1        0.0375
      6 C         -26.6042   -0.8676   31.2652 C.ar    1  UNL1        0.0031
      7 O         -29.9385   -0.8194   29.8358 O.3     1  UNL1       -0.4504
      8 C         -30.6393    0.2340   30.2522 C.2     1  UNL1        0.1795
      9 C         -31.5896    0.5939   29.5426 C.2     1  UNL1        0.0407
     10 C         -31.9831   -0.1037   28.3459 C.2     1  UNL1        0.0032
     11 C         -31.6100   -1.3021   28.2074 C.2     1  UNL1        0.0001
@<TRIPOS>BOND
     1     2     7    1
     2     7     8    1
     3     8     9    2
     4     9    10    1
     5    10    11    2
     6     1     2   ar
     7     2     5   ar
     8     5     6   ar
     9     6     4   ar
    10     4     3   ar
    11     3     1   ar
