@<TRIPOS>MOLECULE
outputs/IAG933/test6/raw/output_2645_IAG933_linker_design_.xyz
 43 47 0 0 0
SMALL
GASTEIGER

@<TRIPOS>ATOM
      1 C         -24.8550   -1.0120   30.1430 C.3     1  UNL1        0.0793
      2 C         -24.9730   -2.5050   29.7880 C.2     1  UNL1       -0.0155
      3 C         -23.9060   -3.1730   29.1460 C.2     1  UNL1       -0.0039
      4 C         -23.9890   -4.5490   28.8530 C.2     1  UNL1       -0.0003
      5 C         -25.1370   -5.2800   29.2050 C.2     1  UNL1       -0.0000
      6 C         -26.2320   -4.6110   29.7840 C.2     1  UNL1       -0.0003
      7 C         -26.1550   -3.2320   30.0650 C.2     1  UNL1       -0.0039
      8 C         -25.3870   -0.6790   31.5710 C.3     1  UNL1        0.0824
      9 C         -25.1890    0.7730   32.0280 C.3     1  UNL1        0.0196
     10 C         -25.3360    0.6840   33.5440 C.3     1  UNL1        0.0203
     11 C         -24.8290   -0.7150   33.9050 C.3     1  UNL1        0.0887
     12 N         -24.7580   -1.4810   32.6460 N.3     1  UNL1       -0.2187
     13 C         -25.6880    1.6140   26.4610 C.2     1  UNL1        0.0940
     14 C         -26.2500    2.9200   26.3950 C.2     1  UNL1        0.0905
     15 C         -25.6420    4.0930   27.1230 C.2     1  UNL1        0.2677
     16 N         -25.6140    5.2520   26.4490 N.am    1  UNL1       -0.1997
     17 C         -25.0260    6.4790   26.9630 C.3     1  UNL1        0.1388
     18 O         -25.1430    3.9660   28.2430 O.2     1  UNL1       -0.2683
     19 C         -27.4380    3.0910   25.6450 C.2     1  UNL1        0.1080
     20 N         -28.0750    2.0890   25.0030 N.2     1  UNL1       -0.2080
     21 C         -27.5430    0.8490   25.0790 C.2     1  UNL1        0.2546
     22 O         -28.1930   -0.2080   24.4770 O.2     1  UNL1       -0.4558
     23 C         -29.4600    0.0050   23.8660 C.3     1  UNL1        0.2426
     24 C         -30.0650   -1.3770   23.5730 C.3     1  UNL1        0.2292
     25 O         -30.7290   -1.8780   24.7210 O.3     1  UNL1       -0.2162
     26 C         -26.3540    0.5760   25.7770 C.2     1  UNL1        0.2069
     27 F         -25.8600   -0.6810   25.7950 F       1  UNL1       -0.1979
     28 C         -29.3224    0.8472   30.0355 C.3     1  UNL1        0.1494
     29 C         -24.5194    0.4917   28.3251 C.2     1  UNL1        0.0869
     30 C         -23.2517    1.7351   26.8502 C.2     1  UNL1        0.0825
     31 C         -30.3978    2.4463   28.3569 C.3     1  UNL1        0.2940
     32 C         -30.4500    0.0236   27.7062 C.3     1  UNL1        0.1494
     33 N         -26.8962   -0.2648   28.9692 N.2     1  UNL1       -0.2729
     34 C         -27.9616   -0.0575   28.1537 C.3     1  UNL1        0.1301
     35 C         -25.4918   -0.1038   29.0956 C.2     1  UNL1        0.0739
     36 N         -22.3189   -0.3328   29.7360 N.pl3   1  UNL1       -0.1258
     37 C         -23.0337    0.4417   28.7148 C.2     1  UNL1        0.1158
     38 C         -29.3521   -0.2241   28.8562 C.3     1  UNL1        0.0837
     39 N         -24.5531    1.3113   27.1766 N.pl3   1  UNL1       -0.2592
     40 O         -30.3618    1.4077   27.1966 O.3     1  UNL1       -0.3266
     41 CL        -20.7074    1.5949   27.8735 Cl      1  UNL1       -0.0794
     42 O         -29.2945    2.2189   29.4996 O.3     1  UNL1       -0.3266
     43 C         -22.3824    1.2510   27.7834 C.2     1  UNL1        0.0908
@<TRIPOS>BOND
     1     1    35    1
     2     2     7    1
     3     2     1    1
     4     3     2    2
     5     4     3    1
     6     4     5    2
     7     5     6    1
     8     6     7    2
     9     8     1    1
    10     8     9    1
    11     8    12    1
    12     9    10    1
    13    10    11    1
    14    12    11    1
    15    13    39    1
    16    14    13    1
    17    14    15    1
    18    15    18    2
    19    16    17    1
    20    16    15    1
    21    19    14    2
    22    20    21    2
    23    20    19    1
    24    21    26    1
    25    22    21    1
    26    23    22    1
    27    24    23    1
    28    24    25    1
    29    26    27    1
    30    26    13    2
    31    29    37    2
    32    29    35    1
    33    30    39    1
    34    30    43    2
    35    31    42    1
    36    32    38    1
    37    33    35    2
    38    34    38    1
    39    34    33    1
    40    37    36    1
    41    38    28    1
    42    39    29    1
    43    40    32    1
    44    40    31    1
    45    42    28    1
    46    43    41    1
    47    43    37    1
