@<TRIPOS>MOLECULE
outputs/IAG933/test6/raw/output_2648_IAG933_linker_design_.xyz
 48 53 0 0 0
SMALL
GASTEIGER

@<TRIPOS>ATOM
      1 C         -24.8550   -1.0120   30.1430 C.3     1  UNL1        0.0697
      2 C         -24.9730   -2.5050   29.7880 C.2     1  UNL1       -0.0184
      3 C         -23.9060   -3.1730   29.1460 C.2     1  UNL1       -0.0041
      4 C         -23.9890   -4.5490   28.8530 C.2     1  UNL1       -0.0003
      5 C         -25.1370   -5.2800   29.2050 C.2     1  UNL1       -0.0000
      6 C         -26.2320   -4.6110   29.7840 C.2     1  UNL1       -0.0003
      7 C         -26.1550   -3.2320   30.0650 C.2     1  UNL1       -0.0041
      8 C         -25.3870   -0.6790   31.5710 C.3     1  UNL1        0.0795
      9 C         -25.1890    0.7730   32.0280 C.3     1  UNL1        0.0193
     10 C         -25.3360    0.6840   33.5440 C.3     1  UNL1        0.0202
     11 C         -24.8290   -0.7150   33.9050 C.3     1  UNL1        0.0887
     12 N         -24.7580   -1.4810   32.6460 N.3     1  UNL1       -0.2190
     13 C         -25.6880    1.6140   26.4610 C.3     1  UNL1        0.1026
     14 C         -26.2500    2.9200   26.3950 C.2     1  UNL1        0.0577
     15 C         -25.6420    4.0930   27.1230 C.2     1  UNL1        0.2625
     16 N         -25.6140    5.2520   26.4490 N.am    1  UNL1       -0.2000
     17 C         -25.0260    6.4790   26.9630 C.3     1  UNL1        0.1388
     18 O         -25.1430    3.9660   28.2430 O.2     1  UNL1       -0.2687
     19 C         -27.4380    3.0910   25.6450 C.2     1  UNL1        0.1022
     20 N         -28.0750    2.0890   25.0030 N.2     1  UNL1       -0.2119
     21 C         -27.5430    0.8490   25.0790 C.2     1  UNL1        0.2342
     22 O         -28.1930   -0.2080   24.4770 O.2     1  UNL1       -0.4585
     23 C         -29.4600    0.0050   23.8660 C.3     1  UNL1        0.2423
     24 C         -30.0650   -1.3770   23.5730 C.3     1  UNL1        0.2292
     25 O         -30.7290   -1.8780   24.7210 O.3     1  UNL1       -0.2162
     26 C         -26.3540    0.5760   25.7770 C.3     1  UNL1        0.2429
     27 F         -25.8600   -0.6810   25.7950 F       1  UNL1       -0.2268
     28 O         -29.6509    2.7742   30.3829 O.2     1  UNL1       -0.4730
     29 C         -26.0863   -0.3221   29.2759 C.3     1  UNL1        0.1431
     30 C         -31.2109   -0.2141   28.2913 C.3     1  UNL1        0.2399
     31 C         -24.8608    1.1013   27.6093 C.3     1  UNL1        0.1365
     32 C         -27.6789   -0.1628   29.2455 C.2     1  UNL1        0.0035
     33 C         -22.4100    2.2267   26.1395 C.3     1  UNL1        0.2303
     34 C         -28.1412    1.0517   29.8515 C.2     1  UNL1        0.0328
     35 C         -30.0286   -1.0747   28.2228 C.3     1  UNL1        0.0776
     36 C         -23.5677    1.6537   26.7693 C.2     1  UNL1        0.0260
     37 C         -30.7261    0.7633   29.4219 C.3     1  UNL1        0.2523
     38 O         -21.2852    1.7674   26.7387 O.2     1  UNL1       -0.4679
     39 O         -25.6524   -0.2048   27.9338 O.3     1  UNL1       -0.3479
     40 C         -21.2431    0.9158   27.7996 C.2     1  UNL1        0.1724
     41 C         -22.4142    0.4369   28.2645 C.2     1  UNL1        0.0379
     42 O         -31.5876    0.3674   27.0398 O.3     1  UNL1       -0.2028
     43 C         -23.5308    0.8836   27.6676 C.2     1  UNL1        0.0072
     44 N         -32.4241   -1.0315   28.5865 N.3     1  UNL1       -0.0974
     45 C         -28.6706    3.2629   31.3269 C.3     1  UNL1        0.2521
     46 C         -29.4712    1.4730   29.9073 C.2     1  UNL1        0.1502
     47 O         -31.8146    1.1685   30.0145 O.3     1  UNL1       -0.2106
     48 C         -28.5910   -1.0806   28.5442 C.2     1  UNL1       -0.0238
@<TRIPOS>BOND
     1     1    29    1
     2     2     7    1
     3     2     1    1
     4     3     2    2
     5     4     3    1
     6     4     5    2
     7     5     6    1
     8     6     7    2
     9     8     1    1
    10     8     9    1
    11     8    12    1
    12     9    10    1
    13    10    11    1
    14    12    11    1
    15    13    14    1
    16    13    31    1
    17    14    15    1
    18    15    18    2
    19    16    17    1
    20    16    15    1
    21    19    14    2
    22    20    21    2
    23    20    19    1
    24    21    26    1
    25    22    21    1
    26    23    22    1
    27    24    23    1
    28    24    25    1
    29    26    27    1
    30    26    13    1
    31    28    45    1
    32    29    39    1
    33    30    42    1
    34    30    44    1
    35    30    37    1
    36    31    43    1
    37    31    39    1
    38    32    29    1
    39    32    34    1
    40    33    38    1
    41    33    36    1
    42    34    46    2
    43    35    30    1
    44    35    48    1
    45    36    31    1
    46    36    43    2
    47    37    46    1
    48    37    47    1
    49    38    40    1
    50    40    41    2
    51    43    41    1
    52    46    28    1
    53    48    32    2
