@<TRIPOS>MOLECULE
outputs/IAG933/test6/raw/output_2649_IAG933_linker_design_.xyz
 46 51 0 0 0
SMALL
GASTEIGER

@<TRIPOS>ATOM
      1 C         -24.8550   -1.0120   30.1430 C.3     1  UNL1        0.0971
      2 C         -24.9730   -2.5050   29.7880 C.2     1  UNL1       -0.0064
      3 C         -23.9060   -3.1730   29.1460 C.2     1  UNL1       -0.0029
      4 C         -23.9890   -4.5490   28.8530 C.2     1  UNL1       -0.0003
      5 C         -25.1370   -5.2800   29.2050 C.2     1  UNL1       -0.0000
      6 C         -26.2320   -4.6110   29.7840 C.2     1  UNL1       -0.0003
      7 C         -26.1550   -3.2320   30.0650 C.2     1  UNL1       -0.0029
      8 C         -25.3870   -0.6790   31.5710 C.3     1  UNL1        0.0916
      9 C         -25.1890    0.7730   32.0280 C.3     1  UNL1        0.0206
     10 C         -25.3360    0.6840   33.5440 C.3     1  UNL1        0.0203
     11 C         -24.8290   -0.7150   33.9050 C.3     1  UNL1        0.0888
     12 N         -24.7580   -1.4810   32.6460 N.3     1  UNL1       -0.2178
     13 C         -25.6880    1.6140   26.4610 C.2     1  UNL1        0.0365
     14 C         -26.2500    2.9200   26.3950 C.2     1  UNL1        0.0763
     15 C         -25.6420    4.0930   27.1230 C.2     1  UNL1        0.2664
     16 N         -25.6140    5.2520   26.4490 N.am    1  UNL1       -0.1997
     17 C         -25.0260    6.4790   26.9630 C.3     1  UNL1        0.1388
     18 O         -25.1430    3.9660   28.2430 O.2     1  UNL1       -0.2683
     19 C         -27.4380    3.0910   25.6450 C.2     1  UNL1        0.1067
     20 N         -28.0750    2.0890   25.0030 N.2     1  UNL1       -0.2081
     21 C         -27.5430    0.8490   25.0790 C.2     1  UNL1        0.2533
     22 O         -28.1930   -0.2080   24.4770 O.2     1  UNL1       -0.4558
     23 C         -29.4600    0.0050   23.8660 C.3     1  UNL1        0.2426
     24 C         -30.0650   -1.3770   23.5730 C.3     1  UNL1        0.2292
     25 O         -30.7290   -1.8780   24.7210 O.3     1  UNL1       -0.2162
     26 C         -26.3540    0.5760   25.7770 C.2     1  UNL1        0.1928
     27 F         -25.8600   -0.6810   25.7950 F       1  UNL1       -0.1992
     28 C         -20.8029    1.3322   27.4263 C.3     1  UNL1        0.2043
     29 O         -20.5251    0.2851   28.3441 O.3     1  UNL1       -0.2352
     30 C         -22.9697    0.6636   28.3715 C.2     1  UNL1        0.0985
     31 C         -24.3297    0.6520   28.3201 C.3     1  UNL1        0.1240
     32 C         -29.5745    1.3746   30.6280 C.3     1  UNL1        0.0935
     33 N         -29.2891    1.1007   29.2372 N.am    1  UNL1       -0.2784
     34 C         -29.1428    3.4344   29.2440 C.3     1  UNL1        0.0233
     35 O         -29.0684   -0.5025   28.0023 O.2     1  UNL1       -0.2734
     36 N         -21.9842    0.0730   29.0537 N.3     1  UNL1       -0.1465
     37 C         -22.2304    1.3512   27.2345 C.2     1  UNL1        0.0373
     38 CL        -23.1204    2.2095   24.6823 Cl      1  UNL1       -0.0827
     39 N         -25.2783   -0.0194   29.1397 N.3     1  UNL1       -0.2542
     40 C         -29.7573    2.3028   28.4086 C.3     1  UNL1        0.0935
     41 C         -23.2824    1.7419   26.2938 C.2     1  UNL1        0.0551
     42 C         -24.5308    1.3419   27.0841 C.2     1  UNL1        0.0109
     43 C         -29.3041    2.9056   30.6698 C.3     1  UNL1        0.0233
     44 N         -21.9799   -0.5996   30.1094 N.3     1  UNL1        0.0224
     45 C         -26.9212   -0.0241   28.9231 C.3     1  UNL1        0.1594
     46 C         -28.5231    0.1704   28.6879 C.2     1  UNL1        0.2420
@<TRIPOS>BOND
     1     1    39    1
     2     2     7    1
     3     2     1    1
     4     3     2    2
     5     4     3    1
     6     4     5    2
     7     5     6    1
     8     6     7    2
     9     8     1    1
    10     8     9    1
    11     8    12    1
    12     9    10    1
    13    10    11    1
    14    12    11    1
    15    13    42    1
    16    14    13    1
    17    14    15    1
    18    15    18    2
    19    16    17    1
    20    16    15    1
    21    19    14    2
    22    20    21    2
    23    20    19    1
    24    21    26    1
    25    22    21    1
    26    23    22    1
    27    24    23    1
    28    24    25    1
    29    26    27    1
    30    26    13    2
    31    28    29    1
    32    29    36    1
    33    30    36    1
    34    31    30    1
    35    31    39    1
    36    32    43    1
    37    33    32    1
    38    34    43    1
    39    35    46    2
    40    36    44    1
    41    37    28    1
    42    37    30    2
    43    38    41    1
    44    40    33    1
    45    40    34    1
    46    41    42    2
    47    41    37    1
    48    42    31    1
    49    45    39    1
    50    46    45    1
    51    46    33   am
