@<TRIPOS>MOLECULE
No_2650-gen_results/8p0m/2024-11-27-11-27-31/
 24 26 0 0 0
SMALL
GASTEIGER

@<TRIPOS>ATOM
      1 C         -28.0162   -0.8135   28.8779 C.ar    1  UNL1        0.0549
      2 C         -28.4690   -0.7850   29.8287 C.2     1  UNL1        0.2648
      3 C         -28.1816    0.4277   28.1134 C.ar    1  UNL1        0.0025
      4 C         -27.4498    0.6435   26.8500 C.ar    1  UNL1        0.0051
      5 C         -26.1815    0.0357   26.7145 C.ar    1  UNL1        0.1361
      6 C         -25.7800   -0.9326   27.6938 C.ar    1  UNL1        0.0295
      7 C         -26.5568   -1.2134   28.7413 C.ar    1  UNL1        0.0068
      8 N         -29.5918   -0.3147   30.2054 N.am    1  UNL1       -0.1998
      9 O         -28.3578   -2.0255   30.6307 O.2     1  UNL1       -0.2684
     10 C         -30.5138   -0.6581   31.3044 C.3     1  UNL1        0.1388
     11 F         -25.3704    0.2981   25.6963 F       1  UNL1       -0.2045
     12 C         -27.8111    1.6119   25.8398 C.3     1  UNL1        0.0252
     13 C         -28.3892    1.1322   24.6596 C.3     1  UNL1        0.0088
     14 C         -27.6887    2.9612   26.1301 C.3     1  UNL1        0.0088
     15 C         -29.7466    0.8513   24.6624 C.3     1  UNL1        0.0224
     16 C         -30.5600    1.5495   25.2736 C.ar    1  UNL1       -0.0265
     17 C         -31.9868    1.2289   25.3211 C.ar    1  UNL1       -0.0046
     18 C         -32.9202    1.8412   26.1250 C.ar    1  UNL1       -0.0003
     19 C         -32.4605    2.8977   26.9555 C.ar    1  UNL1       -0.0003
     20 C         -31.1231    3.2332   27.0212 C.ar    1  UNL1       -0.0046
     21 C         -30.2721    2.5731   26.3272 C.ar    1  UNL1       -0.0265
     22 C         -28.8929    3.1215   26.5047 C.3     1  UNL1        0.0224
     23 C         -30.1035   -0.2447   23.7509 C.3     1  UNL1        0.0047
     24 C         -28.9783    4.4070   27.3522 C.3     1  UNL1        0.0047
@<TRIPOS>BOND
     1     1     2    1
     2     2     8   am
     3     2     9    2
     4     8    10    1
     5     5    11    1
     6     4    12    1
     7    12    13    1
     8    12    14    1
     9    13    15    1
    10    15    16    1
    11    14    22    1
    12    21    22    1
    13    15    23    1
    14    22    24    1
    15    16    17   ar
    16    17    18   ar
    17    18    19   ar
    18    19    20   ar
    19    20    21   ar
    20    21    16   ar
    21     1     3   ar
    22     3     4   ar
    23     4     5   ar
    24     5     6   ar
    25     6     7   ar
    26     7     1   ar
