@<TRIPOS>MOLECULE
No_2652-gen_results/8p0m/2024-11-27-11-27-31/
 7 7 0 0 0
SMALL
GASTEIGER

@<TRIPOS>ATOM
      1 C         -28.0162   -0.8135   28.8779 C.ar    1  UNL1        0.0067
      2 C         -27.0636   -0.1190   28.6079 C.ar    1  UNL1        0.0346
      3 C         -26.9287    1.1713   29.0083 C.ar    1  UNL1        0.0067
      4 C         -27.9560    1.7411   29.7840 C.ar    1  UNL1        0.0005
      5 C         -29.0569   -0.3271   29.7466 C.ar    1  UNL1        0.0005
      6 C         -28.9828    0.9722   30.1516 C.ar    1  UNL1        0.0000
      7 BR        -25.6042   -0.7936   27.5664 Br      1  UNL1       -0.0490
@<TRIPOS>BOND
     1     2     7    1
     2     1     2   ar
     3     2     3   ar
     4     3     4   ar
     5     4     6   ar
     6     6     5   ar
     7     5     1   ar
