@<TRIPOS>MOLECULE
outputs/IAG933/test6/raw/output_2653_IAG933_linker_design_.xyz
 46 49 0 0 0
SMALL
GASTEIGER

@<TRIPOS>ATOM
      1 C         -24.8550   -1.0120   30.1430 C.3     1  UNL1        0.0584
      2 C         -24.9730   -2.5050   29.7880 C.2     1  UNL1       -0.0195
      3 C         -23.9060   -3.1730   29.1460 C.2     1  UNL1       -0.0042
      4 C         -23.9890   -4.5490   28.8530 C.2     1  UNL1       -0.0003
      5 C         -25.1370   -5.2800   29.2050 C.2     1  UNL1       -0.0000
      6 C         -26.2320   -4.6110   29.7840 C.2     1  UNL1       -0.0003
      7 C         -26.1550   -3.2320   30.0650 C.2     1  UNL1       -0.0042
      8 C         -25.3870   -0.6790   31.5710 C.3     1  UNL1        0.0785
      9 C         -25.1890    0.7730   32.0280 C.3     1  UNL1        0.0192
     10 C         -25.3360    0.6840   33.5440 C.3     1  UNL1        0.0202
     11 C         -24.8290   -0.7150   33.9050 C.3     1  UNL1        0.0887
     12 N         -24.7580   -1.4810   32.6460 N.3     1  UNL1       -0.2191
     13 C         -25.6880    1.6140   26.4610 C.2     1  UNL1        0.0427
     14 C         -26.2500    2.9200   26.3950 C.2     1  UNL1        0.0748
     15 C         -25.6420    4.0930   27.1230 C.2     1  UNL1        0.2662
     16 N         -25.6140    5.2520   26.4490 N.am    1  UNL1       -0.1997
     17 C         -25.0260    6.4790   26.9630 C.3     1  UNL1        0.1388
     18 O         -25.1430    3.9660   28.2430 O.2     1  UNL1       -0.2683
     19 C         -27.4380    3.0910   25.6450 C.2     1  UNL1        0.1065
     20 N         -28.0750    2.0890   25.0030 N.2     1  UNL1       -0.2081
     21 C         -27.5430    0.8490   25.0790 C.2     1  UNL1        0.2530
     22 O         -28.1930   -0.2080   24.4770 O.2     1  UNL1       -0.4558
     23 C         -29.4600    0.0050   23.8660 C.3     1  UNL1        0.2426
     24 C         -30.0650   -1.3770   23.5730 C.3     1  UNL1        0.2292
     25 O         -30.7290   -1.8780   24.7210 O.3     1  UNL1       -0.2162
     26 C         -26.3540    0.5760   25.7770 C.2     1  UNL1        0.1914
     27 F         -25.8600   -0.6810   25.7950 F       1  UNL1       -0.1995
     28 O         -23.1789    1.5500   26.2320 O.3     1  UNL1       -0.3491
     29 C         -31.9279    2.2544   29.0947 C.3     1  UNL1        0.0688
     30 C         -31.7523    0.5138   27.2600 C.3     1  UNL1        0.1737
     31 C         -31.0863   -0.7393   27.8338 C.2     1  UNL1        0.3245
     32 C         -23.7923    0.7378   28.6239 C.3     1  UNL1        0.0519
     33 C         -27.3026    0.1018   29.1539 C.2     1  UNL1        0.2450
     34 C         -25.0084   -0.1108   28.9858 C.3     1  UNL1        0.1032
     35 C         -30.7499    1.5468   29.9048 C.3     1  UNL1        0.0519
     36 N         -26.1629    0.7891   28.9345 N.am    1  UNL1       -0.2066
     37 C         -22.3962   -0.0218   28.8820 C.3     1  UNL1        0.0046
     38 C         -28.4105    0.9843   29.7956 C.3     1  UNL1        0.1303
     39 O         -29.9600   -0.4473   28.6398 O.3     1  UNL1       -0.4514
     40 C         -21.8111    1.6415   26.6755 C.3     1  UNL1        0.1745
     41 O         -33.6904    1.5927   27.6524 O.2     1  UNL1       -0.2955
     42 C         -32.5168    1.4633   27.9077 C.2     1  UNL1        0.1620
     43 O         -31.3495   -1.8236   27.6329 O.2     1  UNL1       -0.2496
     44 C         -24.3124    1.4388   27.2906 C.3     1  UNL1        0.1416
     45 C         -29.6671    0.9565   28.9110 C.3     1  UNL1        0.1784
     46 O         -27.5001   -1.1157   29.0195 O.2     1  UNL1       -0.2732
@<TRIPOS>BOND
     1     1    34    1
     2     2     7    1
     3     2     1    1
     4     3     2    2
     5     4     3    1
     6     4     5    2
     7     5     6    1
     8     6     7    2
     9     8     1    1
    10     8     9    1
    11     8    12    1
    12     9    10    1
    13    10    11    1
    14    12    11    1
    15    13    44    1
    16    14    13    1
    17    14    15    1
    18    15    18    2
    19    16    17    1
    20    16    15    1
    21    19    14    2
    22    20    21    2
    23    20    19    1
    24    21    26    1
    25    22    21    1
    26    23    22    1
    27    24    23    1
    28    24    25    1
    29    26    27    1
    30    26    13    2
    31    28    40    1
    32    29    35    1
    33    30    31    1
    34    30    42    1
    35    31    39    1
    36    32    37    1
    37    32    34    1
    38    33    38    1
    39    34    36    1
    40    36    33    1
    41    39    45    1
    42    41    42    2
    43    42    29    1
    44    43    31    2
    45    44    28    1
    46    44    32    1
    47    45    38    1
    48    45    35    1
    49    46    33    2
