@<TRIPOS>MOLECULE
No_2656-gen_results/8p0m/2024-11-27-11-27-31/
 26 27 0 0 0
SMALL
GASTEIGER

@<TRIPOS>ATOM
      1 O         -28.1229   -1.3353   28.4874 O.2     1  UNL1       -0.2748
      2 C         -27.4806   -0.4044   28.7094 C.2     1  UNL1        0.2288
      3 C         -27.1904    0.2460   29.5268 C.3     1  UNL1        0.0800
      4 N         -26.8157    0.1371   27.4262 N.am    1  UNL1       -0.2289
      5 C         -26.3550    1.4196   29.7643 C.3     1  UNL1        0.0547
      6 C         -27.0032   -0.3835   26.2012 C.3     1  UNL1        0.1198
      7 C         -25.8006    1.8629   28.4858 C.3     1  UNL1        0.2581
      8 C         -25.9935    1.2451   27.3785 C.3     1  UNL1        0.3553
      9 F         -25.4980    1.6879   26.3509 F       1  UNL1       -0.1821
     10 C         -27.7150   -0.2876   30.9879 C.3     1  UNL1        0.0097
     11 C         -24.8598    3.0881   28.5914 C.2     1  UNL1        0.3955
     12 O         -24.9784    3.8875   29.4653 O.co2   1  UNL1       -0.2428
     13 O         -23.7454    3.0363   27.8883 O.co2   1  UNL1       -0.2428
     14 O         -26.3575    2.9307   28.3615 O.3     1  UNL1       -0.3372
     15 C         -26.6584    3.6336   27.3117 C.3     1  UNL1        0.1694
     16 O         -24.9303    0.3783   27.4905 O.3     1  UNL1       -0.1658
     17 C         -28.1478    3.6130   26.9426 C.ar    1  UNL1        0.0072
     18 C         -28.8568    4.6963   27.1816 C.ar    1  UNL1       -0.0019
     19 C         -30.1538    4.6355   26.7072 C.ar    1  UNL1       -0.0003
     20 C         -30.6149    3.5570   25.9816 C.ar    1  UNL1        0.0038
     21 C         -29.8040    2.5133   25.6702 C.ar    1  UNL1        0.0712
     22 C         -28.4902    2.5795   26.1860 C.ar    1  UNL1        0.0020
     23 C         -30.2974    1.3823   24.9417 C.3     1  UNL1        0.4186
     24 F         -30.7093    1.4878   23.9426 F       1  UNL1       -0.1659
     25 F         -31.1945    0.6284   25.7362 F       1  UNL1       -0.1659
     26 F         -29.2314    0.4810   24.8219 F       1  UNL1       -0.1659
@<TRIPOS>BOND
     1     1     2    2
     2     2     3    1
     3     2     4   am
     4     3     5    1
     5     4     6    1
     6     5     7    1
     7     4     8    1
     8     7     8    1
     9     8     9    1
    10     3    10    1
    11     7    11    1
    12    11    12   ar
    13    11    13   ar
    14     7    14    1
    15    14    15    1
    16     8    16    1
    17    15    17    1
    18    21    23    1
    19    23    24    1
    20    23    25    1
    21    23    26    1
    22    17    18   ar
    23    18    19   ar
    24    19    20   ar
    25    20    21   ar
    26    21    22   ar
    27    22    17   ar
