@<TRIPOS>MOLECULE
outputs/IAG933/test6/raw/output_2658_IAG933_linker_design_.xyz
 42 46 0 0 0
SMALL
GASTEIGER

@<TRIPOS>ATOM
      1 C         -24.8550   -1.0120   30.1430 C.3     1  UNL1        0.1155
      2 C         -24.9730   -2.5050   29.7880 C.2     1  UNL1       -0.0027
      3 C         -23.9060   -3.1730   29.1460 C.2     1  UNL1       -0.0026
      4 C         -23.9890   -4.5490   28.8530 C.2     1  UNL1       -0.0003
      5 C         -25.1370   -5.2800   29.2050 C.2     1  UNL1       -0.0000
      6 C         -26.2320   -4.6110   29.7840 C.2     1  UNL1       -0.0003
      7 C         -26.1550   -3.2320   30.0650 C.2     1  UNL1       -0.0026
      8 C         -25.3870   -0.6790   31.5710 C.3     1  UNL1        0.0954
      9 C         -25.1890    0.7730   32.0280 C.3     1  UNL1        0.0209
     10 C         -25.3360    0.6840   33.5440 C.3     1  UNL1        0.0203
     11 C         -24.8290   -0.7150   33.9050 C.3     1  UNL1        0.0888
     12 N         -24.7580   -1.4810   32.6460 N.3     1  UNL1       -0.2174
     13 C         -25.6880    1.6140   26.4610 C.2     1  UNL1        0.0416
     14 C         -26.2500    2.9200   26.3950 C.2     1  UNL1        0.0767
     15 C         -25.6420    4.0930   27.1230 C.2     1  UNL1        0.2664
     16 N         -25.6140    5.2520   26.4490 N.am    1  UNL1       -0.1997
     17 C         -25.0260    6.4790   26.9630 C.3     1  UNL1        0.1388
     18 O         -25.1430    3.9660   28.2430 O.2     1  UNL1       -0.2683
     19 C         -27.4380    3.0910   25.6450 C.2     1  UNL1        0.1067
     20 N         -28.0750    2.0890   25.0030 N.2     1  UNL1       -0.2081
     21 C         -27.5430    0.8490   25.0790 C.2     1  UNL1        0.2533
     22 O         -28.1930   -0.2080   24.4770 O.2     1  UNL1       -0.4558
     23 C         -29.4600    0.0050   23.8660 C.3     1  UNL1        0.2426
     24 C         -30.0650   -1.3770   23.5730 C.3     1  UNL1        0.2292
     25 O         -30.7290   -1.8780   24.7210 O.3     1  UNL1       -0.2162
     26 C         -26.3540    0.5760   25.7770 C.2     1  UNL1        0.1932
     27 F         -25.8600   -0.6810   25.7950 F       1  UNL1       -0.1992
     28 C         -27.6525   -0.3429   28.4352 C.2     1  UNL1        0.0148
     29 C         -27.1045    1.6801   29.6691 C.2     1  UNL1        0.0148
     30 C         -22.2871    1.0666   27.4463 C.2     1  UNL1        0.2073
     31 C         -24.4169    1.3102   27.1321 C.2     1  UNL1        0.0492
     32 F         -22.8034    2.0265   25.2655 F       1  UNL1       -0.2016
     33 F         -20.9751    1.0359   27.3814 F       1  UNL1       -0.1984
     34 O         -22.3137   -0.1308   29.5668 O.2     1  UNL1       -0.2827
     35 C         -29.0220    0.0013   28.4320 C.2     1  UNL1        0.0013
     36 C         -26.6813    0.4456   29.1163 C.2     1  UNL1        0.0519
     37 C         -23.1661    1.5829   26.5497 C.2     1  UNL1        0.1719
     38 C         -24.3082    0.5432   28.3225 C.2     1  UNL1        0.0959
     39 C         -29.4398    1.1991   29.0630 C.2     1  UNL1        0.0001
     40 C         -22.8821    0.4288   28.5891 C.2     1  UNL1        0.2386
     41 C         -28.4849    2.0144   29.7045 C.2     1  UNL1        0.0013
     42 N         -25.3402    0.0061   29.1545 N.pl3   1  UNL1       -0.2805
@<TRIPOS>BOND
     1     1    42    1
     2     2     7    1
     3     2     1    1
     4     3     2    2
     5     4     3    1
     6     4     5    2
     7     5     6    1
     8     6     7    2
     9     8     1    1
    10     8     9    1
    11     8    12    1
    12     9    10    1
    13    10    11    1
    14    12    11    1
    15    13    31    1
    16    14    13    1
    17    14    15    1
    18    15    18    2
    19    16    17    1
    20    16    15    1
    21    19    14    2
    22    20    21    2
    23    20    19    1
    24    21    26    1
    25    22    21    1
    26    23    22    1
    27    24    23    1
    28    24    25    1
    29    26    27    1
    30    26    13    2
    31    28    36    1
    32    29    41    1
    33    30    40    1
    34    31    38    2
    35    32    37    1
    36    33    30    1
    37    35    28    2
    38    35    39    1
    39    36    42    1
    40    36    29    2
    41    37    31    1
    42    37    30    2
    43    38    40    1
    44    38    42    1
    45    39    41    2
    46    40    34    2
