@<TRIPOS>MOLECULE
No_2661-gen_results/8p0m/2024-11-27-11-27-31/
 7 7 0 0 0
SMALL
GASTEIGER

@<TRIPOS>ATOM
      1 C         -28.0162   -0.8135   28.8779 C.ar    1  UNL1        0.0023
      2 C         -28.4690   -0.7850   29.8287 C.ar    1  UNL1        0.0001
      3 C         -26.5455   -0.8762   28.8500 C.ar    1  UNL1        0.0296
      4 C         -25.8041   -1.0324   30.0571 C.ar    1  UNL1        0.1401
      5 C         -26.5373   -1.0386   31.2171 C.ar    1  UNL1        0.0296
      6 C         -27.8843   -0.9532   31.1862 C.ar    1  UNL1        0.0023
      7 F         -24.5255   -1.0850   30.0372 F       1  UNL1       -0.2042
@<TRIPOS>BOND
     1     4     7    1
     2     1     2   ar
     3     2     6   ar
     4     6     5   ar
     5     5     4   ar
     6     4     3   ar
     7     3     1   ar
