@<TRIPOS>MOLECULE
outputs/IAG933/test6/raw/output_2662_IAG933_linker_design_.xyz
 42 45 0 0 0
SMALL
GASTEIGER

@<TRIPOS>ATOM
      1 C         -24.8550   -1.0120   30.1430 C.3     1  UNL1        0.0791
      2 C         -24.9730   -2.5050   29.7880 C.2     1  UNL1       -0.0177
      3 C         -23.9060   -3.1730   29.1460 C.2     1  UNL1       -0.0041
      4 C         -23.9890   -4.5490   28.8530 C.2     1  UNL1       -0.0003
      5 C         -25.1370   -5.2800   29.2050 C.2     1  UNL1       -0.0000
      6 C         -26.2320   -4.6110   29.7840 C.2     1  UNL1       -0.0003
      7 C         -26.1550   -3.2320   30.0650 C.2     1  UNL1       -0.0041
      8 C         -25.3870   -0.6790   31.5710 C.3     1  UNL1        0.0802
      9 C         -25.1890    0.7730   32.0280 C.3     1  UNL1        0.0193
     10 C         -25.3360    0.6840   33.5440 C.3     1  UNL1        0.0202
     11 C         -24.8290   -0.7150   33.9050 C.3     1  UNL1        0.0887
     12 N         -24.7580   -1.4810   32.6460 N.3     1  UNL1       -0.2190
     13 C         -25.6880    1.6140   26.4610 C.3     1  UNL1        0.0911
     14 C         -26.2500    2.9200   26.3950 C.2     1  UNL1        0.0565
     15 C         -25.6420    4.0930   27.1230 C.2     1  UNL1        0.2625
     16 N         -25.6140    5.2520   26.4490 N.am    1  UNL1       -0.2000
     17 C         -25.0260    6.4790   26.9630 C.3     1  UNL1        0.1388
     18 O         -25.1430    3.9660   28.2430 O.2     1  UNL1       -0.2687
     19 C         -27.4380    3.0910   25.6450 C.2     1  UNL1        0.1022
     20 N         -28.0750    2.0890   25.0030 N.2     1  UNL1       -0.2119
     21 C         -27.5430    0.8490   25.0790 C.2     1  UNL1        0.2341
     22 O         -28.1930   -0.2080   24.4770 O.2     1  UNL1       -0.4585
     23 C         -29.4600    0.0050   23.8660 C.3     1  UNL1        0.2423
     24 C         -30.0650   -1.3770   23.5730 C.3     1  UNL1        0.2292
     25 O         -30.7290   -1.8780   24.7210 O.3     1  UNL1       -0.2162
     26 C         -26.3540    0.5760   25.7770 C.3     1  UNL1        0.2417
     27 F         -25.8600   -0.6810   25.7950 F       1  UNL1       -0.2268
     28 O         -29.6887   -0.0217   27.9525 O.2     1  UNL1       -0.2711
     29 C         -29.4138    1.1358   28.3332 C.2     1  UNL1        0.2700
     30 N         -22.0126    0.2303   28.9643 N.2     1  UNL1       -0.1625
     31 C         -24.4362    0.0362   29.3393 C.3     1  UNL1        0.1958
     32 C         -21.9638    0.9473   27.8777 C.2     1  UNL1        0.1238
     33 C         -26.8665    0.4951   28.6650 C.2     1  UNL1        0.2363
     34 N         -25.4523    0.8294   28.7819 N.am    1  UNL1       -0.2600
     35 N         -23.1680    0.0590   29.5522 N.pl3   1  UNL1       -0.1246
     36 O         -22.9062    2.4824   26.2514 O.3     1  UNL1       -0.3458
     37 C         -28.0182    1.4784   28.7560 C.3     1  UNL1        0.1735
     38 C         -24.6493    1.2857   27.5247 C.3     1  UNL1        0.1171
     39 C         -21.6565    2.1244   25.5715 C.3     1  UNL1        0.1746
     40 N         -30.3469    2.1117   28.3113 N.am    1  UNL1       -0.0874
     41 C         -23.1522    1.4910   27.2501 C.3     1  UNL1        0.1762
     42 O         -27.1236   -0.6718   28.3712 O.2     1  UNL1       -0.2743
@<TRIPOS>BOND
     1     1     2    1
     2     2     7    1
     3     3     2    2
     4     4     3    1
     5     4     5    2
     6     5     6    1
     7     6     7    2
     8     8     1    1
     9     8     9    1
    10     8    12    1
    11     9    10    1
    12    10    11    1
    13    12    11    1
    14    13    14    1
    15    13    38    1
    16    14    15    1
    17    15    18    2
    18    16    17    1
    19    16    15    1
    20    19    14    2
    21    20    21    2
    22    20    19    1
    23    21    26    1
    24    22    21    1
    25    23    22    1
    26    24    23    1
    27    24    25    1
    28    26    27    1
    29    26    13    1
    30    28    29    2
    31    29    37    1
    32    30    35    1
    33    31    35    1
    34    31     1    1
    35    32    30    2
    36    33    37    1
    37    33    34   am
    38    34    31    1
    39    38    34    1
    40    39    36    1
    41    40    29    1
    42    41    36    1
    43    41    38    1
    44    41    32    1
    45    42    33    2
