@<TRIPOS>MOLECULE
outputs/IAG933/test6/raw/output_2663_IAG933_linker_design_.xyz
 45 49 0 0 0
SMALL
GASTEIGER

@<TRIPOS>ATOM
      1 C         -24.8550   -1.0120   30.1430 C.3     1  UNL1        0.1116
      2 C         -24.9730   -2.5050   29.7880 C.2     1  UNL1       -0.0051
      3 C         -23.9060   -3.1730   29.1460 C.2     1  UNL1       -0.0029
      4 C         -23.9890   -4.5490   28.8530 C.2     1  UNL1       -0.0003
      5 C         -25.1370   -5.2800   29.2050 C.2     1  UNL1       -0.0000
      6 C         -26.2320   -4.6110   29.7840 C.2     1  UNL1       -0.0003
      7 C         -26.1550   -3.2320   30.0650 C.2     1  UNL1       -0.0029
      8 C         -25.3870   -0.6790   31.5710 C.3     1  UNL1        0.0929
      9 C         -25.1890    0.7730   32.0280 C.3     1  UNL1        0.0206
     10 C         -25.3360    0.6840   33.5440 C.3     1  UNL1        0.0203
     11 C         -24.8290   -0.7150   33.9050 C.3     1  UNL1        0.0888
     12 N         -24.7580   -1.4810   32.6460 N.3     1  UNL1       -0.2177
     13 C         -25.6880    1.6140   26.4610 C.3     1  UNL1        0.0922
     14 C         -26.2500    2.9200   26.3950 C.2     1  UNL1        0.0589
     15 C         -25.6420    4.0930   27.1230 C.2     1  UNL1        0.2628
     16 N         -25.6140    5.2520   26.4490 N.am    1  UNL1       -0.2000
     17 C         -25.0260    6.4790   26.9630 C.3     1  UNL1        0.1388
     18 O         -25.1430    3.9660   28.2430 O.2     1  UNL1       -0.2686
     19 C         -27.4380    3.0910   25.6450 C.2     1  UNL1        0.1025
     20 N         -28.0750    2.0890   25.0030 N.2     1  UNL1       -0.2118
     21 C         -27.5430    0.8490   25.0790 C.2     1  UNL1        0.2344
     22 O         -28.1930   -0.2080   24.4770 O.2     1  UNL1       -0.4585
     23 C         -29.4600    0.0050   23.8660 C.3     1  UNL1        0.2423
     24 C         -30.0650   -1.3770   23.5730 C.3     1  UNL1        0.2292
     25 O         -30.7290   -1.8780   24.7210 O.3     1  UNL1       -0.2162
     26 C         -26.3540    0.5760   25.7770 C.3     1  UNL1        0.2440
     27 F         -25.8600   -0.6810   25.7950 F       1  UNL1       -0.2265
     28 C         -26.4012    4.3496   31.4323 C.3     1  UNL1        0.1426
     29 C         -23.3741    2.0402   25.7717 C.2     1  UNL1       -0.0040
     30 F         -22.4405    0.2664   29.4026 F       1  UNL1       -0.2045
     31 C         -22.0230    1.9276   26.1736 C.2     1  UNL1        0.0020
     32 O         -27.7065    0.5311   29.6418 O.2     1  UNL1       -0.2917
     33 N         -25.5265   -0.3518   29.0544 N.3     1  UNL1       -0.2030
     34 C         -24.3658    1.5722   26.6763 C.2     1  UNL1       -0.0151
     35 C         -27.0243    2.8160   29.6506 C.3     1  UNL1        0.1738
     36 O         -26.4204    3.0620   30.8913 O.3     1  UNL1       -0.3488
     37 C         -28.5297    3.1863   29.7832 C.3     1  UNL1        0.0373
     38 C         -24.0959    1.1175   27.9442 C.2     1  UNL1        0.0245
     39 C         -21.7060    1.3809   27.4479 C.2     1  UNL1        0.0293
     40 C         -28.8654    4.7318   30.0748 C.3     1  UNL1        0.0030
     41 C         -22.7437    0.9363   28.3018 C.2     1  UNL1        0.1375
     42 C         -26.8262    1.3014   29.4777 C.2     1  UNL1        0.1973
     43 C         -27.6253    4.7272   32.2426 C.3     1  UNL1        0.0321
     44 C         -25.3712    1.0535   28.8300 C.3     1  UNL1        0.1567
     45 C         -28.6505    5.5283   31.4089 C.3     1  UNL1        0.0027
@<TRIPOS>BOND
     1     1    33    1
     2     2     7    1
     3     2     1    1
     4     3     2    2
     5     4     3    1
     6     4     5    2
     7     5     6    1
     8     6     7    2
     9     8     1    1
    10     8     9    1
    11     8    12    1
    12     9    10    1
    13    10    11    1
    14    12    11    1
    15    13    34    1
    16    14    13    1
    17    14    15    1
    18    15    18    2
    19    16    17    1
    20    16    15    1
    21    19    14    2
    22    20    21    2
    23    20    19    1
    24    21    26    1
    25    22    21    1
    26    23    22    1
    27    24    23    1
    28    24    25    1
    29    26    27    1
    30    26    13    1
    31    28    43    1
    32    29    31    2
    33    29    34    1
    34    31    39    1
    35    34    38    2
    36    35    42    1
    37    35    37    1
    38    35    36    1
    39    36    28    1
    40    37    40    1
    41    38    41    1
    42    38    44    1
    43    39    41    2
    44    40    45    1
    45    41    30    1
    46    42    32    2
    47    44    33    1
    48    44    42    1
    49    45    43    1
