@<TRIPOS>MOLECULE
No_2668-gen_results/8p0m/2024-11-27-11-27-31/
 23 24 0 0 0
SMALL
GASTEIGER

@<TRIPOS>ATOM
      1 C         -28.0162   -0.8135   28.8779 C.ar    1  UNL1        0.0066
      2 C         -28.4690   -0.7850   29.8287 C.ar    1  UNL1        0.0800
      3 C         -28.1816    0.4277   28.1134 C.ar    1  UNL1        0.0004
      4 C         -27.4498    0.6435   26.8500 C.ar    1  UNL1        0.0000
      5 C         -27.8596    1.4573   25.9076 C.ar    1  UNL1        0.0000
      6 C         -29.4263    0.1097   30.4178 C.ar    1  UNL1        0.0130
      7 C         -29.6233    1.2198   29.7351 C.ar    1  UNL1        0.0762
      8 C         -28.9609    1.4529   28.5513 C.ar    1  UNL1        0.0065
      9 C         -27.1733    1.5743   24.7028 C.ar    1  UNL1        0.0000
     10 C         -26.2980    0.6788   24.4655 C.ar    1  UNL1        0.0000
     11 C         -25.7369   -0.2006   25.3237 C.ar    1  UNL1        0.0000
     12 C         -26.3413   -0.2721   26.5414 C.ar    1  UNL1        0.0000
     13 C         -30.5367    2.3223   30.2531 C.2     1  UNL1        0.3458
     14 O         -31.2026    2.9490   29.6170 O.2     1  UNL1       -0.2445
     15 O         -30.1402    2.7164   31.5087 O.3     1  UNL1       -0.4179
     16 C         -28.2744   -2.1620   30.7125 C.2     1  UNL1        0.3878
     17 O         -27.4955   -2.9568   30.3375 O.co2   1  UNL1       -0.2406
     18 O         -29.0080   -2.3667   31.7426 O.co2   1  UNL1       -0.2406
     19 C         -31.0334    3.2388   32.3408 C.2     1  UNL1        0.1831
     20 C         -30.5898    3.5977   33.4633 C.2     1  UNL1        0.0405
     21 C         -29.2861    3.6240   33.8536 C.2     1  UNL1       -0.0013
     22 C         -28.2742    3.4980   32.9775 C.2     1  UNL1       -0.0257
     23 C         -28.3075    3.3478   31.9811 C.3     1  UNL1        0.0307
@<TRIPOS>BOND
     1     3     4    1
     2     7    13    1
     3    13    14    2
     4    13    15    1
     5     2    16    1
     6    16    17   ar
     7    16    18   ar
     8    15    19    1
     9    19    20    2
    10    20    21    1
    11    21    22    2
    12    22    23    1
    13     4     5   ar
    14     5     9   ar
    15     9    10   ar
    16    10    11   ar
    17    11    12   ar
    18    12     4   ar
    19     1     2   ar
    20     2     6   ar
    21     6     7   ar
    22     7     8   ar
    23     8     3   ar
    24     3     1   ar
