@<TRIPOS>MOLECULE
No_267-gen_results/8p0m/2024-11-27-11-27-31/
 17 18 0 0 0
SMALL
GASTEIGER

@<TRIPOS>ATOM
      1 C         -28.0162   -0.8135   28.8779 C.ar    1  UNL1        0.0066
      2 C         -28.4690   -0.7850   29.8287 C.ar    1  UNL1        0.0798
      3 C         -27.0871    0.2903   28.6377 C.ar    1  UNL1        0.0003
      4 C         -26.0238    0.3644   29.2526 C.ar    1  UNL1        0.0029
      5 C         -27.5370   -0.6187   31.0883 C.ar    1  UNL1        0.0066
      6 C         -26.3844    0.1834   30.8012 C.ar    1  UNL1        0.0003
      7 C         -29.6227   -1.6698   30.2973 C.2     1  UNL1        0.3878
      8 O         -30.6594   -1.3298   29.6877 O.co2   1  UNL1       -0.2406
      9 O         -29.6096   -2.6153   31.1898 O.co2   1  UNL1       -0.2406
     10 C         -24.8731    1.3086   29.1038 C.ar    1  UNL1        0.0340
     11 C         -23.7898    1.1234   29.4037 C.ar    1  UNL1        0.1386
     12 C         -22.5367    1.8063   28.9597 C.ar    1  UNL1        0.0369
     13 C         -25.0731    2.4404   28.1805 C.ar    1  UNL1        0.0030
     14 C         -23.9644    3.1044   27.5629 C.ar    1  UNL1        0.0002
     15 C         -22.6711    2.7789   28.0092 C.ar    1  UNL1        0.0031
     16 O         -23.4849    0.1711   30.4177 O.3     1  UNL1       -0.4714
     17 C         -23.3712   -1.1706   30.1914 C.3     1  UNL1        0.2525
@<TRIPOS>BOND
     1     2     7    1
     2     7     8   ar
     3     7     9   ar
     4     4    10    1
     5    11    16    1
     6    16    17    1
     7     1     2   ar
     8     2     5   ar
     9     5     6   ar
    10     6     4   ar
    11     4     3   ar
    12     3     1   ar
    13    10    11   ar
    14    11    12   ar
    15    12    15   ar
    16    15    14   ar
    17    14    13   ar
    18    13    10   ar
