@<TRIPOS>MOLECULE
outputs/IAG933/test6/raw/output_2671_IAG933_linker_design_.xyz
 44 48 0 0 0
SMALL
GASTEIGER

@<TRIPOS>ATOM
      1 C         -24.8550   -1.0120   30.1430 C.3     1  UNL1        0.1994
      2 C         -24.9730   -2.5050   29.7880 C.2     1  UNL1        0.0213
      3 C         -23.9060   -3.1730   29.1460 C.2     1  UNL1       -0.0004
      4 C         -23.9890   -4.5490   28.8530 C.2     1  UNL1       -0.0002
      5 C         -25.1370   -5.2800   29.2050 C.2     1  UNL1       -0.0000
      6 C         -26.2320   -4.6110   29.7840 C.2     1  UNL1       -0.0002
      7 C         -26.1550   -3.2320   30.0650 C.2     1  UNL1       -0.0004
      8 C         -25.3870   -0.6790   31.5710 C.3     1  UNL1        0.1197
      9 C         -25.1890    0.7730   32.0280 C.3     1  UNL1        0.0233
     10 C         -25.3360    0.6840   33.5440 C.3     1  UNL1        0.0204
     11 C         -24.8290   -0.7150   33.9050 C.3     1  UNL1        0.0889
     12 N         -24.7580   -1.4810   32.6460 N.3     1  UNL1       -0.2150
     13 C         -25.6880    1.6140   26.4610 C.2     1  UNL1        0.2208
     14 C         -26.2500    2.9200   26.3950 C.2     1  UNL1        0.1175
     15 C         -25.6420    4.0930   27.1230 C.2     1  UNL1        0.2699
     16 N         -25.6140    5.2520   26.4490 N.am    1  UNL1       -0.1996
     17 C         -25.0260    6.4790   26.9630 C.3     1  UNL1        0.1388
     18 O         -25.1430    3.9660   28.2430 O.2     1  UNL1       -0.2682
     19 C         -27.4380    3.0910   25.6450 C.2     1  UNL1        0.1103
     20 N         -28.0750    2.0890   25.0030 N.2     1  UNL1       -0.2078
     21 C         -27.5430    0.8490   25.0790 C.2     1  UNL1        0.2569
     22 O         -28.1930   -0.2080   24.4770 O.2     1  UNL1       -0.4557
     23 C         -29.4600    0.0050   23.8660 C.3     1  UNL1        0.2426
     24 C         -30.0650   -1.3770   23.5730 C.3     1  UNL1        0.2292
     25 O         -30.7290   -1.8780   24.7210 O.3     1  UNL1       -0.2162
     26 C         -26.3540    0.5760   25.7770 C.2     1  UNL1        0.2336
     27 F         -25.8600   -0.6810   25.7950 F       1  UNL1       -0.1954
     28 C         -26.5928    0.3485   28.9103 C.3     1  UNL1        0.2440
     29 C         -27.7974    3.6403   30.3818 C.2     1  UNL1        0.0076
     30 N         -24.7202    1.3447   27.3595 N.pl3   1  UNL1       -0.0087
     31 N         -27.7614   -0.2432   28.4482 N.3     1  UNL1       -0.1552
     32 C         -28.9695    0.4381   28.9721 C.3     1  UNL1        0.1906
     33 C         -20.6312    0.9336   28.2419 C.3     1  UNL1        0.0226
     34 C         -29.1368    3.7060   30.7307 C.2     1  UNL1       -0.0061
     35 C         -26.7785    1.7357   28.9947 C.3     1  UNL1        0.1073
     36 C         -23.1064    0.3730   28.7729 C.2     1  UNL1        0.0768
     37 C         -24.4977    0.5681   28.3873 C.2     1  UNL1        0.3124
     38 C         -22.0867    1.2166   28.0953 C.3     1  UNL1        0.1091
     39 C         -27.6725    2.4946   29.6037 C.2     1  UNL1        0.0354
     40 C         -29.8095    4.6838   31.6474 C.3     1  UNL1        0.0324
     41 N         -25.3356   -0.0309   29.0878 N.pl3   1  UNL1       -0.1795
     42 N         -28.8616    1.8214   29.5354 N.pl3   1  UNL1       -0.2740
     43 CL        -22.1094    1.4844   26.2356 Cl      1  UNL1       -0.1100
     44 C         -29.8075    2.6890   30.1352 C.2     1  UNL1        0.0619
@<TRIPOS>BOND
     1     1    41    1
     2     2     7    1
     3     2     1    1
     4     3     2    2
     5     4     3    1
     6     4     5    2
     7     5     6    1
     8     6     7    2
     9     8     1    1
    10     8     9    1
    11     8    12    1
    12     9    10    1
    13    10    11    1
    14    12    11    1
    15    13    30    1
    16    14    13    1
    17    14    15    1
    18    15    18    2
    19    16    17    1
    20    16    15    1
    21    19    14    2
    22    20    21    2
    23    20    19    1
    24    21    26    1
    25    22    21    1
    26    23    22    1
    27    24    23    1
    28    24    25    1
    29    26    27    1
    30    26    13    2
    31    28    35    1
    32    28    41    1
    33    29    34    1
    34    30    37    1
    35    31    28    1
    36    31    32    1
    37    32    42    1
    38    34    40    1
    39    35    39    1
    40    37    36    2
    41    37    41    1
    42    38    33    1
    43    38    36    1
    44    39    29    2
    45    42    39    1
    46    42    44    1
    47    43    38    1
    48    44    34    2
