@<TRIPOS>MOLECULE
outputs/IAG933/test6/raw/output_2675_IAG933_linker_design_.xyz
 43 46 0 0 0
SMALL
GASTEIGER

@<TRIPOS>ATOM
      1 C         -24.8550   -1.0120   30.1430 C.3     1  UNL1        0.1551
      2 C         -24.9730   -2.5050   29.7880 C.2     1  UNL1        0.0060
      3 C         -23.9060   -3.1730   29.1460 C.2     1  UNL1       -0.0019
      4 C         -23.9890   -4.5490   28.8530 C.2     1  UNL1       -0.0002
      5 C         -25.1370   -5.2800   29.2050 C.2     1  UNL1       -0.0000
      6 C         -26.2320   -4.6110   29.7840 C.2     1  UNL1       -0.0002
      7 C         -26.1550   -3.2320   30.0650 C.2     1  UNL1       -0.0019
      8 C         -25.3870   -0.6790   31.5710 C.3     1  UNL1        0.1042
      9 C         -25.1890    0.7730   32.0280 C.3     1  UNL1        0.0217
     10 C         -25.3360    0.6840   33.5440 C.3     1  UNL1        0.0203
     11 C         -24.8290   -0.7150   33.9050 C.3     1  UNL1        0.0888
     12 N         -24.7580   -1.4810   32.6460 N.3     1  UNL1       -0.2166
     13 C         -25.6880    1.6140   26.4610 C.2     1  UNL1        0.0891
     14 C         -26.2500    2.9200   26.3950 C.2     1  UNL1        0.0900
     15 C         -25.6420    4.0930   27.1230 C.2     1  UNL1        0.2676
     16 N         -25.6140    5.2520   26.4490 N.am    1  UNL1       -0.1997
     17 C         -25.0260    6.4790   26.9630 C.3     1  UNL1        0.1388
     18 O         -25.1430    3.9660   28.2430 O.2     1  UNL1       -0.2683
     19 C         -27.4380    3.0910   25.6450 C.2     1  UNL1        0.1080
     20 N         -28.0750    2.0890   25.0030 N.2     1  UNL1       -0.2080
     21 C         -27.5430    0.8490   25.0790 C.2     1  UNL1        0.2546
     22 O         -28.1930   -0.2080   24.4770 O.2     1  UNL1       -0.4558
     23 C         -29.4600    0.0050   23.8660 C.3     1  UNL1        0.2426
     24 C         -30.0650   -1.3770   23.5730 C.3     1  UNL1        0.2292
     25 O         -30.7290   -1.8780   24.7210 O.3     1  UNL1       -0.2162
     26 C         -26.3540    0.5760   25.7770 C.2     1  UNL1        0.2063
     27 F         -25.8600   -0.6810   25.7950 F       1  UNL1       -0.1979
     28 C         -25.3667    5.1455   33.2394 C.3     1  UNL1        0.2069
     29 O         -25.4526   -0.1931   29.0411 O.3     1  UNL1       -0.3342
     30 C         -24.1042    2.4496   30.8035 C.3     1  UNL1        0.0925
     31 N         -21.5963    0.7367   28.7458 N.am    1  UNL1       -0.2028
     32 C         -23.6952    1.5390   29.5463 C.3     1  UNL1        0.0778
     33 O         -24.9440    3.7688   32.8002 O.2     1  UNL1       -0.4622
     34 C         -24.0459    5.9338   33.4749 C.3     1  UNL1        0.0512
     35 C         -22.2016    1.3310   27.5277 C.2     1  UNL1        0.2755
     36 C         -23.4405    1.7062   26.7914 C.3     1  UNL1        0.2342
     37 C         -25.0455    3.4738   31.4599 C.2     1  UNL1        0.2197
     38 C         -22.6826    0.5167   29.0058 C.3     1  UNL1        0.1199
     39 O         -21.1204    1.7488   26.8380 O.2     1  UNL1       -0.2701
     40 N         -24.5895    1.3822   27.3338 N.pl3   1  UNL1       -0.2648
     41 CL        -23.1425    2.5759   25.3546 Cl      1  UNL1       -0.0825
     42 N         -25.8385    4.1261   30.7223 N.2     1  UNL1       -0.1122
     43 C         -25.0265    1.1543   28.7936 C.3     1  UNL1        0.1958
@<TRIPOS>BOND
     1     1    29    1
     2     2     7    1
     3     2     1    1
     4     3     2    2
     5     4     3    1
     6     4     5    2
     7     5     6    1
     8     6     7    2
     9     8     1    1
    10     8     9    1
    11     8    12    1
    12     9    10    1
    13    10    11    1
    14    12    11    1
    15    13    40    1
    16    14    13    1
    17    14    15    1
    18    15    18    2
    19    16    17    1
    20    16    15    1
    21    19    14    2
    22    20    21    2
    23    20    19    1
    24    21    26    1
    25    22    21    1
    26    23    22    1
    27    24    23    1
    28    24    25    1
    29    26    27    1
    30    26    13    2
    31    28    34    1
    32    30    37    1
    33    31    38    1
    34    32    30    1
    35    33    28    1
    36    35    31    1
    37    36    41    1
    38    36    40    1
    39    36    35    1
    40    37    33    1
    41    38    32    1
    42    39    35    2
    43    40    43    1
    44    42    37    2
    45    43    29    1
    46    43    32    1
