@<TRIPOS>MOLECULE
outputs/IAG933/test6/raw/output_2676_IAG933_linker_design_.xyz
 42 46 0 0 0
SMALL
GASTEIGER

@<TRIPOS>ATOM
      1 C         -24.8550   -1.0120   30.1430 C.3     1  UNL1        0.1129
      2 C         -24.9730   -2.5050   29.7880 C.2     1  UNL1       -0.0030
      3 C         -23.9060   -3.1730   29.1460 C.2     1  UNL1       -0.0026
      4 C         -23.9890   -4.5490   28.8530 C.2     1  UNL1       -0.0003
      5 C         -25.1370   -5.2800   29.2050 C.2     1  UNL1       -0.0000
      6 C         -26.2320   -4.6110   29.7840 C.2     1  UNL1       -0.0003
      7 C         -26.1550   -3.2320   30.0650 C.2     1  UNL1       -0.0026
      8 C         -25.3870   -0.6790   31.5710 C.3     1  UNL1        0.0951
      9 C         -25.1890    0.7730   32.0280 C.3     1  UNL1        0.0209
     10 C         -25.3360    0.6840   33.5440 C.3     1  UNL1        0.0203
     11 C         -24.8290   -0.7150   33.9050 C.3     1  UNL1        0.0888
     12 N         -24.7580   -1.4810   32.6460 N.3     1  UNL1       -0.2174
     13 C         -25.6880    1.6140   26.4610 C.2     1  UNL1        0.0398
     14 C         -26.2500    2.9200   26.3950 C.2     1  UNL1        0.0764
     15 C         -25.6420    4.0930   27.1230 C.2     1  UNL1        0.2664
     16 N         -25.6140    5.2520   26.4490 N.am    1  UNL1       -0.1997
     17 C         -25.0260    6.4790   26.9630 C.3     1  UNL1        0.1388
     18 O         -25.1430    3.9660   28.2430 O.2     1  UNL1       -0.2683
     19 C         -27.4380    3.0910   25.6450 C.2     1  UNL1        0.1067
     20 N         -28.0750    2.0890   25.0030 N.2     1  UNL1       -0.2081
     21 C         -27.5430    0.8490   25.0790 C.2     1  UNL1        0.2533
     22 O         -28.1930   -0.2080   24.4770 O.2     1  UNL1       -0.4558
     23 C         -29.4600    0.0050   23.8660 C.3     1  UNL1        0.2426
     24 C         -30.0650   -1.3770   23.5730 C.3     1  UNL1        0.2292
     25 O         -30.7290   -1.8780   24.7210 O.3     1  UNL1       -0.2162
     26 C         -26.3540    0.5760   25.7770 C.2     1  UNL1        0.1929
     27 F         -25.8600   -0.6810   25.7950 F       1  UNL1       -0.1992
     28 C         -26.6811    0.2925   28.8290 C.2     1  UNL1        0.0311
     29 N         -23.0887    0.5188   28.5920 N.2     1  UNL1       -0.2191
     30 C         -26.7800    1.5928   29.5984 C.3     1  UNL1        0.0671
     31 C         -29.2418    2.0376   29.9936 C.2     1  UNL1       -0.0042
     32 N         -25.2992   -0.1899   28.9888 N.pl3   1  UNL1       -0.2861
     33 F         -21.1533    1.6224   27.6196 F       1  UNL1       -0.1811
     34 F         -22.8249    2.1948   25.5081 F       1  UNL1       -0.2003
     35 C         -23.1882    1.6198   26.6569 C.2     1  UNL1        0.1850
     36 C         -27.8200   -0.7614   28.6663 C.2     1  UNL1        0.0105
     37 C         -29.0756   -0.4306   28.8834 C.2     1  UNL1        0.0009
     38 C         -22.4347    1.2221   27.5779 C.2     1  UNL1        0.2471
     39 C         -24.5677    1.2436   27.1030 C.2     1  UNL1        0.0527
     40 C         -24.3878    0.4962   28.2524 C.3     1  UNL1        0.2063
     41 C         -27.8950    2.5203   29.7291 C.2     1  UNL1       -0.0201
     42 C         -29.8389    0.9417   29.1961 C.2     1  UNL1       -0.0003
@<TRIPOS>BOND
     1     1    32    1
     2     2     7    1
     3     2     1    1
     4     3     2    2
     5     4     3    1
     6     4     5    2
     7     5     6    1
     8     6     7    2
     9     8     1    1
    10     8     9    1
    11     8    12    1
    12     9    10    1
    13    10    11    1
    14    12    11    1
    15    13    39    1
    16    14    13    1
    17    14    15    1
    18    15    18    2
    19    16    17    1
    20    16    15    1
    21    19    14    2
    22    20    21    2
    23    20    19    1
    24    21    26    1
    25    22    21    1
    26    23    22    1
    27    24    23    1
    28    24    25    1
    29    26    27    1
    30    26    13    2
    31    28    32    1
    32    28    30    1
    33    30    41    1
    34    34    35    1
    35    35    39    2
    36    35    38    1
    37    36    28    2
    38    36    37    1
    39    37    42    2
    40    38    33    1
    41    38    29    2
    42    39    40    1
    43    40    29    1
    44    40    32    1
    45    41    31    2
    46    42    31    1
