@<TRIPOS>MOLECULE
outputs/IAG933/test6/raw/output_268_IAG933_linker_design_.xyz
 45 49 0 0 0
SMALL
GASTEIGER

@<TRIPOS>ATOM
      1 C         -24.8550   -1.0120   30.1430 C.3     1  UNL1        0.0485
      2 C         -24.9730   -2.5050   29.7880 C.2     1  UNL1       -0.0204
      3 C         -23.9060   -3.1730   29.1460 C.2     1  UNL1       -0.0042
      4 C         -23.9890   -4.5490   28.8530 C.2     1  UNL1       -0.0003
      5 C         -25.1370   -5.2800   29.2050 C.2     1  UNL1       -0.0000
      6 C         -26.2320   -4.6110   29.7840 C.2     1  UNL1       -0.0003
      7 C         -26.1550   -3.2320   30.0650 C.2     1  UNL1       -0.0042
      8 C         -25.3870   -0.6790   31.5710 C.3     1  UNL1        0.0775
      9 C         -25.1890    0.7730   32.0280 C.3     1  UNL1        0.0192
     10 C         -25.3360    0.6840   33.5440 C.3     1  UNL1        0.0202
     11 C         -24.8290   -0.7150   33.9050 C.3     1  UNL1        0.0887
     12 N         -24.7580   -1.4810   32.6460 N.3     1  UNL1       -0.2191
     13 C         -25.6880    1.6140   26.4610 C.2     1  UNL1        0.0401
     14 C         -26.2500    2.9200   26.3950 C.2     1  UNL1        0.0766
     15 C         -25.6420    4.0930   27.1230 C.2     1  UNL1        0.2664
     16 N         -25.6140    5.2520   26.4490 N.am    1  UNL1       -0.1997
     17 C         -25.0260    6.4790   26.9630 C.3     1  UNL1        0.1388
     18 O         -25.1430    3.9660   28.2430 O.2     1  UNL1       -0.2683
     19 C         -27.4380    3.0910   25.6450 C.2     1  UNL1        0.1067
     20 N         -28.0750    2.0890   25.0030 N.2     1  UNL1       -0.2081
     21 C         -27.5430    0.8490   25.0790 C.2     1  UNL1        0.2533
     22 O         -28.1930   -0.2080   24.4770 O.2     1  UNL1       -0.4558
     23 C         -29.4600    0.0050   23.8660 C.3     1  UNL1        0.2426
     24 C         -30.0650   -1.3770   23.5730 C.3     1  UNL1        0.2292
     25 O         -30.7290   -1.8780   24.7210 O.3     1  UNL1       -0.2162
     26 C         -26.3540    0.5760   25.7770 C.2     1  UNL1        0.1931
     27 F         -25.8600   -0.6810   25.7950 F       1  UNL1       -0.1992
     28 CL        -23.1024    2.6887   25.0067 Cl      1  UNL1       -0.0798
     29 N         -23.1705    0.6218   29.0766 N.2     1  UNL1       -0.2454
     30 N         -27.4138    6.0029   30.9173 N.3     1  UNL1       -0.2634
     31 C         -24.3879    1.3511   27.0787 C.2     1  UNL1        0.0292
     32 C         -26.7286    3.6933   30.6629 C.2     1  UNL1        0.0277
     33 C         -23.1892    1.8442   26.5099 C.2     1  UNL1        0.0878
     34 C         -26.1224    6.3466   31.2353 C.3     1  UNL1        0.0992
     35 C         -22.0195    1.0790   28.5322 C.2     1  UNL1        0.1289
     36 C         -27.7294    4.6831   30.5239 C.3     1  UNL1        0.1071
     37 C         -25.6430   -0.0664   29.1366 C.3     1  UNL1        0.0753
     38 C         -22.0192    1.7233   27.2091 C.2     1  UNL1        0.1696
     39 C         -28.4019    7.1200   31.1028 C.3     1  UNL1        0.0902
     40 C         -24.4443    0.7156   28.3626 C.2     1  UNL1        0.0647
     41 F         -20.9226    1.9737   26.6944 F       1  UNL1       -0.2016
     42 C         -25.4809    4.0166   31.4570 C.2     1  UNL1        0.0015
     43 C         -26.7564    2.5032   30.1015 C.1     1  UNL1       -0.1084
     44 C         -25.1818    5.3492   31.5598 C.2     1  UNL1       -0.0085
     45 C         -26.7630    1.2469   29.2684 C.2     1  UNL1        0.0209
@<TRIPOS>BOND
     1     1    37    1
     2     2     7    1
     3     2     1    1
     4     3     2    2
     5     4     3    1
     6     4     5    2
     7     5     6    1
     8     6     7    2
     9     8     1    1
    10     8     9    1
    11     8    12    1
    12     9    10    1
    13    10    11    1
    14    12    11    1
    15    13    31    1
    16    14    13    1
    17    14    15    1
    18    15    18    2
    19    16    17    1
    20    16    15    1
    21    19    14    2
    22    20    21    2
    23    20    19    1
    24    21    26    1
    25    22    21    1
    26    23    22    1
    27    24    23    1
    28    24    25    1
    29    26    27    1
    30    26    13    2
    31    28    33    1
    32    30    39    1
    33    30    34    1
    34    31    40    1
    35    32    42    1
    36    33    31    2
    37    33    38    1
    38    34    44    1
    39    35    29    1
    40    36    32    1
    41    36    30    1
    42    37    45    1
    43    38    35    2
    44    40    29    2
    45    40    37    1
    46    41    38    1
    47    42    44    2
    48    43    32    2
    49    45    43    2
