@<TRIPOS>MOLECULE
outputs/IAG933/test6/raw/output_2681_IAG933_linker_design_.xyz
 41 44 0 0 0
SMALL
GASTEIGER

@<TRIPOS>ATOM
      1 C         -24.8550   -1.0120   30.1430 C.3     1  UNL1        0.0529
      2 C         -24.9730   -2.5050   29.7880 C.2     1  UNL1       -0.0203
      3 C         -23.9060   -3.1730   29.1460 C.2     1  UNL1       -0.0042
      4 C         -23.9890   -4.5490   28.8530 C.2     1  UNL1       -0.0003
      5 C         -25.1370   -5.2800   29.2050 C.2     1  UNL1       -0.0000
      6 C         -26.2320   -4.6110   29.7840 C.2     1  UNL1       -0.0003
      7 C         -26.1550   -3.2320   30.0650 C.2     1  UNL1       -0.0042
      8 C         -25.3870   -0.6790   31.5710 C.3     1  UNL1        0.0777
      9 C         -25.1890    0.7730   32.0280 C.3     1  UNL1        0.0192
     10 C         -25.3360    0.6840   33.5440 C.3     1  UNL1        0.0202
     11 C         -24.8290   -0.7150   33.9050 C.3     1  UNL1        0.0887
     12 N         -24.7580   -1.4810   32.6460 N.3     1  UNL1       -0.2191
     13 C         -25.6880    1.6140   26.4610 C.2     1  UNL1        0.0416
     14 C         -26.2500    2.9200   26.3950 C.2     1  UNL1        0.0766
     15 C         -25.6420    4.0930   27.1230 C.2     1  UNL1        0.2664
     16 N         -25.6140    5.2520   26.4490 N.am    1  UNL1       -0.1997
     17 C         -25.0260    6.4790   26.9630 C.3     1  UNL1        0.1388
     18 O         -25.1430    3.9660   28.2430 O.2     1  UNL1       -0.2683
     19 C         -27.4380    3.0910   25.6450 C.2     1  UNL1        0.1067
     20 N         -28.0750    2.0890   25.0030 N.2     1  UNL1       -0.2081
     21 C         -27.5430    0.8490   25.0790 C.2     1  UNL1        0.2533
     22 O         -28.1930   -0.2080   24.4770 O.2     1  UNL1       -0.4558
     23 C         -29.4600    0.0050   23.8660 C.3     1  UNL1        0.2426
     24 C         -30.0650   -1.3770   23.5730 C.3     1  UNL1        0.2292
     25 O         -30.7290   -1.8780   24.7210 O.3     1  UNL1       -0.2162
     26 C         -26.3540    0.5760   25.7770 C.2     1  UNL1        0.1932
     27 F         -25.8600   -0.6810   25.7950 F       1  UNL1       -0.1992
     28 C         -27.7946    1.3802   29.2159 C.3     1  UNL1        0.0650
     29 C         -27.0550    0.0964   28.9546 C.2     1  UNL1        0.1583
     30 C         -24.5521    0.5974   28.3186 C.2     1  UNL1        0.1682
     31 C         -22.4189    1.0302   28.0460 C.2     1  UNL1        0.4125
     32 C         -25.5656   -0.1249   29.1423 C.3     1  UNL1        0.1266
     33 C         -22.7378    1.8888   25.7724 C.2     1  UNL1        0.3952
     34 C         -28.9467    1.1340   30.1590 C.3     1  UNL1        0.0082
     35 C         -23.1784    1.4386   26.9095 C.2     1  UNL1        0.1711
     36 O         -21.6220    2.1169   25.5916 O.co2   1  UNL1       -0.2403
     37 O         -27.7530   -0.8066   28.5696 O.2     1  UNL1       -0.2956
     38 N         -21.0912    1.2937   28.2171 N.pl3   1  UNL1        0.2142
     39 N         -23.1903    0.4016   28.8951 N.pl3   1  UNL1       -0.0078
     40 C         -24.4927    1.2606   27.0995 C.2     1  UNL1        0.0534
     41 O         -23.4786    1.9824   24.7913 O.co2   1  UNL1       -0.2403
@<TRIPOS>BOND
     1     1    32    1
     2     2     7    1
     3     2     1    1
     4     3     2    2
     5     4     3    1
     6     4     5    2
     7     5     6    1
     8     6     7    2
     9     8     1    1
    10     8     9    1
    11     8    12    1
    12     9    10    1
    13    10    11    1
    14    12    11    1
    15    13    40    1
    16    14    13    1
    17    14    15    1
    18    15    18    2
    19    16    17    1
    20    16    15    1
    21    19    14    2
    22    20    21    2
    23    20    19    1
    24    21    26    1
    25    22    21    1
    26    23    22    1
    27    24    23    1
    28    24    25    1
    29    26    27    1
    30    26    13    2
    31    28    34    1
    32    29    28    1
    33    30    39    1
    34    30    32    1
    35    31    38    1
    36    31    39    1
    37    32    29    1
    38    33    35    1
    39    35    40    1
    40    35    31    2
    41    36    33   ar
    42    37    29    2
    43    40    30    2
    44    41    33   ar
