@<TRIPOS>MOLECULE
No_2683-gen_results/8p0m/2024-11-27-11-27-31/
 23 25 0 0 0
SMALL
GASTEIGER

@<TRIPOS>ATOM
      1 C         -28.0162   -0.8135   28.8779 C.ar    1  UNL1       -0.0026
      2 C         -27.0636   -0.1189   28.6079 C.ar    1  UNL1       -0.0003
      3 C         -25.7647   -0.3897   29.0360 C.ar    1  UNL1       -0.0000
      4 C         -24.5516    0.4058   28.7646 C.ar    1  UNL1        0.0002
      5 C         -23.2300    0.1178   29.2575 C.ar    1  UNL1        0.0000
      6 C         -23.0942   -1.1309   29.8730 C.ar    1  UNL1       -0.0000
      7 C         -27.7980   -1.9341   29.8560 C.ar    1  UNL1       -0.0007
      8 C         -26.5420   -2.3268   30.2580 C.ar    1  UNL1       -0.0026
      9 C         -25.4514   -1.5516   29.9079 C.ar    1  UNL1       -0.0003
     10 C         -24.1562   -1.9097   30.2809 C.ar    1  UNL1       -0.0000
     11 C         -24.6450    1.6582   27.9464 C.ar    1  UNL1        0.0064
     12 C         -24.8958    2.7559   28.5615 C.ar    1  UNL1        0.0798
     13 C         -25.1728    3.9344   27.8439 C.ar    1  UNL1        0.0066
     14 C         -24.4838    1.5571   26.5889 C.ar    1  UNL1        0.0002
     15 C         -24.6321    2.6940   25.7850 C.ar    1  UNL1        0.0000
     16 C         -24.8902    3.9231   26.4317 C.ar    1  UNL1        0.0002
     17 C         -25.1118    2.9275   30.0631 C.2     1  UNL1        0.3878
     18 O         -26.1385    2.5483   30.5728 O.co2   1  UNL1       -0.2406
     19 O         -24.3583    3.7172   30.7914 O.co2   1  UNL1       -0.2406
     20 C         -29.0349   -2.7206   30.2188 C.3     1  UNL1        0.1386
     21 N         -29.4530   -2.5749   31.5053 N.pl3   1  UNL1       -0.2315
     22 C         -30.6474   -2.1883   31.7144 C.2     1  UNL1        0.0805
     23 C         -31.0624   -1.9525   33.0933 C.2     1  UNL1        0.0188
@<TRIPOS>BOND
     1     4    11    1
     2    12    17    1
     3    17    18   ar
     4    17    19   ar
     5     7    20    1
     6    20    21    1
     7    21    22    1
     8    22    23    2
     9     1     2   ar
    10     2     3   ar
    11     9     8   ar
    12     8     7   ar
    13     7     1   ar
    14    11    12   ar
    15    12    13   ar
    16    13    16   ar
    17    16    15   ar
    18    15    14   ar
    19    14    11   ar
    20     3     4   ar
    21     4     5   ar
    22     5     6   ar
    23     6    10   ar
    24    10     9   ar
    25     9     3   ar
