@<TRIPOS>MOLECULE
outputs/IAG933/test6/raw/output_2684_IAG933_linker_design_.xyz
 41 45 0 0 0
SMALL
GASTEIGER

@<TRIPOS>ATOM
      1 C         -24.8550   -1.0120   30.1430 C.3     1  UNL1        0.0910
      2 C         -24.9730   -2.5050   29.7880 C.2     1  UNL1       -0.0167
      3 C         -23.9060   -3.1730   29.1460 C.2     1  UNL1       -0.0041
      4 C         -23.9890   -4.5490   28.8530 C.2     1  UNL1       -0.0003
      5 C         -25.1370   -5.2800   29.2050 C.2     1  UNL1       -0.0000
      6 C         -26.2320   -4.6110   29.7840 C.2     1  UNL1       -0.0003
      7 C         -26.1550   -3.2320   30.0650 C.2     1  UNL1       -0.0041
      8 C         -25.3870   -0.6790   31.5710 C.3     1  UNL1        0.0812
      9 C         -25.1890    0.7730   32.0280 C.3     1  UNL1        0.0193
     10 C         -25.3360    0.6840   33.5440 C.3     1  UNL1        0.0202
     11 C         -24.8290   -0.7150   33.9050 C.3     1  UNL1        0.0887
     12 N         -24.7580   -1.4810   32.6460 N.3     1  UNL1       -0.2190
     13 C         -25.6880    1.6140   26.4610 C.2     1  UNL1        0.0537
     14 C         -26.2500    2.9200   26.3950 C.2     1  UNL1        0.0779
     15 C         -25.6420    4.0930   27.1230 C.2     1  UNL1        0.2665
     16 N         -25.6140    5.2520   26.4490 N.am    1  UNL1       -0.1997
     17 C         -25.0260    6.4790   26.9630 C.3     1  UNL1        0.1388
     18 O         -25.1430    3.9660   28.2430 O.2     1  UNL1       -0.2683
     19 C         -27.4380    3.0910   25.6450 C.2     1  UNL1        0.1068
     20 N         -28.0750    2.0890   25.0030 N.2     1  UNL1       -0.2081
     21 C         -27.5430    0.8490   25.0790 C.2     1  UNL1        0.2533
     22 O         -28.1930   -0.2080   24.4770 O.2     1  UNL1       -0.4558
     23 C         -29.4600    0.0050   23.8660 C.3     1  UNL1        0.2426
     24 C         -30.0650   -1.3770   23.5730 C.3     1  UNL1        0.2292
     25 O         -30.7290   -1.8780   24.7210 O.3     1  UNL1       -0.2162
     26 C         -26.3540    0.5760   25.7770 C.2     1  UNL1        0.1944
     27 F         -25.8600   -0.6810   25.7950 F       1  UNL1       -0.1992
     28 C         -22.5019   -0.3329   29.5785 C.2     1  UNL1        0.0172
     29 C         -25.5664   -0.1884   29.0081 C.3     1  UNL1        0.2482
     30 O         -26.6869    1.8526   29.3091 O.3     1  UNL1       -0.0328
     31 C         -24.5720    1.2705   27.2212 C.ar    1  UNL1        0.0630
     32 C         -23.2967    1.5276   26.7336 C.ar    1  UNL1        0.0303
     33 C         -22.4090    1.0502   27.6833 C.ar    1  UNL1        0.0159
     34 N         -24.4985    0.6112   28.3814 N.ar    1  UNL1       -0.3028
     35 C         -23.1649    0.4010   28.6466 C.ar    1  UNL1        0.0616
     36 C         -22.9572    2.0055   25.4489 C.3     1  UNL1        0.2212
     37 C         -21.0396    1.0280   27.6802 C.2     1  UNL1        0.0013
     38 F         -21.6507    2.1950   25.1898 F       1  UNL1       -0.2290
     39 O         -26.8079    0.6170   28.8921 O.3     1  UNL1       -0.1676
     40 C         -20.4587    0.1514   28.5995 C.2     1  UNL1        0.0001
     41 C         -21.0999   -0.5612   29.4115 C.2     1  UNL1        0.0015
@<TRIPOS>BOND
     1     1    29    1
     2     2     7    1
     3     2     1    1
     4     3     2    2
     5     4     3    1
     6     4     5    2
     7     5     6    1
     8     6     7    2
     9     8     1    1
    10     8     9    1
    11     8    12    1
    12     9    10    1
    13    10    11    1
    14    12    11    1
    15    13    31    1
    16    14    13    1
    17    14    15    1
    18    15    18    2
    19    16    17    1
    20    16    15    1
    21    19    14    2
    22    20    21    2
    23    20    19    1
    24    21    26    1
    25    22    21    1
    26    23    22    1
    27    24    23    1
    28    24    25    1
    29    26    27    1
    30    26    13    2
    31    29    39    1
    32    31    34   ar
    33    32    31   ar
    34    32    33   ar
    35    33    35   ar
    36    34    35   ar
    37    34    29    1
    38    35    28    2
    39    36    32    1
    40    37    33    2
    41    37    40    1
    42    38    36    1
    43    39    30    1
    44    40    41    2
    45    41    28    1
