@<TRIPOS>MOLECULE
No_2689-gen_results/8p0m/2024-11-27-11-27-31/
 23 25 0 0 0
SMALL
GASTEIGER

@<TRIPOS>ATOM
      1 C         -28.0162   -0.8135   28.8779 C.ar    1  UNL1        0.0405
      2 C         -27.0636   -0.1189   28.6079 C.ar    1  UNL1        0.1395
      3 N         -25.8176   -0.3427   29.0488 N.ar    1  UNL1       -0.2285
      4 C         -25.5299   -1.0727   29.7130 C.ar    1  UNL1        0.1005
      5 C         -26.4889   -2.0460   30.2459 C.ar    1  UNL1        0.0263
      6 C         -27.7378   -1.8748   29.8309 C.ar    1  UNL1        0.0721
      7 C         -28.8711   -2.6614   30.2852 C.2     1  UNL1        0.3336
      8 O         -29.0465   -2.7418   31.5708 O.2     1  UNL1       -0.2541
      9 F         -29.3771   -3.4830   29.5506 F       1  UNL1       -0.1586
     10 N         -27.2164    1.0056   27.6856 N.pl3   1  UNL1       -0.2481
     11 C         -28.0813    1.0028   26.6849 C.ar    1  UNL1        0.0570
     12 C         -28.9384    0.3466   26.4665 C.ar    1  UNL1        0.0152
     13 C         -29.9164    0.4022   25.3848 C.ar    1  UNL1        0.0013
     14 C         -29.5540    1.3534   24.4441 C.ar    1  UNL1        0.0001
     15 C         -28.4627    2.2239   24.5780 C.ar    1  UNL1        0.0013
     16 C         -27.7251    2.1073   25.7412 C.ar    1  UNL1        0.0152
     17 C         -26.3622    2.1931   28.0065 C.ar    1  UNL1        0.0959
     18 C         -25.1630    2.1676   27.9585 C.ar    1  UNL1        0.0184
     19 C         -24.3907    3.1173   27.1360 C.ar    1  UNL1        0.0015
     20 C         -25.1297    4.0112   26.3861 C.ar    1  UNL1        0.0034
     21 C         -26.3732    4.4169   26.7500 C.ar    1  UNL1        0.0433
     22 C         -27.0993    3.2892   27.3836 C.ar    1  UNL1        0.2095
     23 O         -28.2814    3.2884   27.4018 O.3     1  UNL1       -0.2852
@<TRIPOS>BOND
     1     6     7    1
     2     7     8    2
     3     7     9    1
     4     2    10    1
     5    10    11    1
     6    10    17    1
     7    22    23    1
     8    11    12   ar
     9    12    13   ar
    10    13    14   ar
    11    14    15   ar
    12    15    16   ar
    13    16    11   ar
    14     1     2   ar
    15     2     3   ar
    16     3     4   ar
    17     4     5   ar
    18     5     6   ar
    19     6     1   ar
    20    17    18   ar
    21    18    19   ar
    22    19    20   ar
    23    20    21   ar
    24    21    22   ar
    25    22    17   ar
