@<TRIPOS>MOLECULE
No_269-gen_results/8p0m/2024-11-27-11-27-31/
 30 33 0 0 0
SMALL
GASTEIGER

@<TRIPOS>ATOM
      1 C         -28.0162   -0.8135   28.8779 C.ar    1  UNL1        0.0378
      2 C         -27.0636   -0.1190   28.6079 C.ar    1  UNL1        0.0094
      3 C         -25.7923   -0.4302   29.0761 C.ar    1  UNL1        0.0004
      4 C         -25.5756   -1.5654   29.9363 C.ar    1  UNL1        0.0031
      5 C         -26.7354   -2.3004   30.2173 C.ar    1  UNL1        0.0376
      6 C         -27.9184   -1.9537   29.7629 C.ar    1  UNL1        0.1472
      7 C         -27.1057    1.1023   27.7593 C.ar    1  UNL1        0.0799
      8 C         -26.1219    1.4820   27.0232 C.ar    1  UNL1        0.0066
      9 C         -24.7142    1.1299   27.4889 C.ar    1  UNL1        0.0002
     10 C         -24.5718    0.0966   28.4066 C.ar    1  UNL1        0.0000
     11 C         -23.5495    1.7790   26.9027 C.ar    1  UNL1        0.0000
     12 C         -22.3889    1.9020   27.6778 C.ar    1  UNL1        0.0000
     13 C         -22.1526    0.9106   28.6954 C.ar    1  UNL1        0.0000
     14 C         -23.2851    0.0463   29.1460 C.ar    1  UNL1        0.0000
     15 C         -28.5005    1.0737   26.9773 C.2     1  UNL1        0.3878
     16 O         -28.6650    2.1576   26.5072 O.co2   1  UNL1       -0.2406
     17 O         -29.3037    0.1984   27.0024 O.co2   1  UNL1       -0.2406
     18 O         -29.0169   -2.6514   30.1760 O.3     1  UNL1       -0.4361
     19 C         -30.1510   -2.0737   30.6284 C.2     1  UNL1        0.2295
     20 C         -30.2343   -1.3301   31.5599 C.ar    1  UNL1        0.0536
     21 C         -30.6020   -0.3587   31.8305 C.ar    1  UNL1        0.0046
     22 C         -30.6609    0.4903   33.0709 C.ar    1  UNL1        0.0002
     23 C         -30.0334   -0.1116   34.1441 C.ar    1  UNL1        0.0000
     24 C         -29.4276   -1.3404   34.0104 C.ar    1  UNL1        0.0002
     25 C         -29.4250   -1.9964   32.7632 C.ar    1  UNL1        0.0046
     26 N         -31.2147   -2.2585   29.7823 N.2     1  UNL1       -0.2102
     27 C         -32.3260   -1.5888   29.8742 C.2     1  UNL1        0.0975
     28 C         -33.3908   -1.9692   28.9293 C.2     1  UNL1       -0.0054
     29 C         -33.0607   -2.8589   28.0210 C.3     1  UNL1        0.0277
     30 C         -31.8831   -3.6020   27.9549 C.3     1  UNL1        0.0051
@<TRIPOS>BOND
     1     7    15    1
     2    15    16   ar
     3    15    17   ar
     4     6    18    1
     5    18    19    1
     6    19    20    1
     7    19    26    2
     8    26    27    1
     9    27    28    2
    10    28    29    1
    11    29    30    1
    12     1     2   ar
    13     3     4   ar
    14     4     5   ar
    15     5     6   ar
    16     6     1   ar
    17     2     3   ar
    18     3    10   ar
    19     9     8   ar
    20     8     7   ar
    21     7     2   ar
    22     9    10   ar
    23    10    14   ar
    24    14    13   ar
    25    13    12   ar
    26    12    11   ar
    27    11     9   ar
    28    20    21   ar
    29    21    22   ar
    30    22    23   ar
    31    23    24   ar
    32    24    25   ar
    33    25    20   ar
