@<TRIPOS>MOLECULE
outputs/IAG933/test6/raw/output_2691_IAG933_linker_design_.xyz
 49 54 0 0 0
SMALL
GASTEIGER

@<TRIPOS>ATOM
      1 C         -24.8550   -1.0120   30.1430 C.3     1  UNL1        0.0613
      2 C         -24.9730   -2.5050   29.7880 C.2     1  UNL1       -0.0192
      3 C         -23.9060   -3.1730   29.1460 C.2     1  UNL1       -0.0042
      4 C         -23.9890   -4.5490   28.8530 C.2     1  UNL1       -0.0003
      5 C         -25.1370   -5.2800   29.2050 C.2     1  UNL1       -0.0000
      6 C         -26.2320   -4.6110   29.7840 C.2     1  UNL1       -0.0003
      7 C         -26.1550   -3.2320   30.0650 C.2     1  UNL1       -0.0042
      8 C         -25.3870   -0.6790   31.5710 C.3     1  UNL1        0.0787
      9 C         -25.1890    0.7730   32.0280 C.3     1  UNL1        0.0193
     10 C         -25.3360    0.6840   33.5440 C.3     1  UNL1        0.0202
     11 C         -24.8290   -0.7150   33.9050 C.3     1  UNL1        0.0887
     12 N         -24.7580   -1.4810   32.6460 N.3     1  UNL1       -0.2191
     13 C         -25.6880    1.6140   26.4610 C.2     1  UNL1        0.0354
     14 C         -26.2500    2.9200   26.3950 C.2     1  UNL1        0.0763
     15 C         -25.6420    4.0930   27.1230 C.2     1  UNL1        0.2664
     16 N         -25.6140    5.2520   26.4490 N.am    1  UNL1       -0.1997
     17 C         -25.0260    6.4790   26.9630 C.3     1  UNL1        0.1388
     18 O         -25.1430    3.9660   28.2430 O.2     1  UNL1       -0.2683
     19 C         -27.4380    3.0910   25.6450 C.2     1  UNL1        0.1067
     20 N         -28.0750    2.0890   25.0030 N.2     1  UNL1       -0.2081
     21 C         -27.5430    0.8490   25.0790 C.2     1  UNL1        0.2533
     22 O         -28.1930   -0.2080   24.4770 O.2     1  UNL1       -0.4558
     23 C         -29.4600    0.0050   23.8660 C.3     1  UNL1        0.2426
     24 C         -30.0650   -1.3770   23.5730 C.3     1  UNL1        0.2292
     25 O         -30.7290   -1.8780   24.7210 O.3     1  UNL1       -0.2162
     26 C         -26.3540    0.5760   25.7770 C.2     1  UNL1        0.1928
     27 F         -25.8600   -0.6810   25.7950 F       1  UNL1       -0.1992
     28 C         -24.4715    1.3420   27.1506 C.2     1  UNL1       -0.0012
     29 C         -23.2284    1.7411   26.7397 C.2     1  UNL1        0.0812
     30 C         -31.8888    0.3936   30.0205 C.3     1  UNL1        0.0671
     31 C         -32.6371    1.4891   30.5605 C.3     1  UNL1        0.2073
     32 C         -22.2917    1.2624   27.5761 C.2     1  UNL1        0.1464
     33 O         -30.6854    2.6705   26.8763 O.3     1  UNL1       -0.2186
     34 C         -28.9502   -0.5016   28.2875 C.3     1  UNL1        0.0499
     35 C         -30.4167    3.2551   30.4556 C.2     1  UNL1        0.1020
     36 C         -29.4999    1.8776   27.0812 C.3     1  UNL1        0.2017
     37 C         -31.4152    3.2946   31.4955 C.2     1  UNL1        0.1879
     38 N         -30.4677    2.2655   29.3654 N.pl3   1  UNL1       -0.3044
     39 C         -24.2977    0.6458   28.3475 C.3     1  UNL1        0.0702
     40 C         -25.2779   -0.0416   29.1073 C.3     1  UNL1        0.1163
     41 O         -32.3613    2.2415   31.5694 O.2     1  UNL1       -0.4710
     42 C         -22.9352    0.6567   28.6353 C.2     1  UNL1        0.0104
     43 C         -30.4744    0.9411   29.8851 C.3     1  UNL1        0.0787
     44 F         -21.0043    1.2847   27.3597 F       1  UNL1       -0.2036
     45 C         -29.2215    1.8857   28.6351 C.3     1  UNL1        0.1077
     46 C         -29.3265    0.5595   29.3018 C.3     1  UNL1        0.0449
     47 CL        -22.9032    2.4059   25.1868 Cl      1  UNL1       -0.0802
     48 C         -27.5359   -0.4478   28.6601 C.2     1  UNL1        0.0668
     49 N         -26.6220    0.4570   29.0119 N.2     1  UNL1       -0.2745
@<TRIPOS>BOND
     1     1    40    1
     2     2     7    1
     3     2     1    1
     4     3     2    2
     5     4     3    1
     6     4     5    2
     7     5     6    1
     8     6     7    2
     9     8     1    1
    10     8     9    1
    11     8    12    1
    12     9    10    1
    13    10    11    1
    14    12    11    1
    15    13    28    1
    16    14    13    1
    17    14    15    1
    18    15    18    2
    19    16    17    1
    20    16    15    1
    21    19    14    2
    22    20    21    2
    23    20    19    1
    24    21    26    1
    25    22    21    1
    26    23    22    1
    27    24    23    1
    28    24    25    1
    29    26    27    1
    30    26    13    2
    31    28    39    1
    32    29    28    2
    33    29    32    1
    34    30    31    1
    35    31    41    1
    36    32    42    2
    37    33    36    1
    38    34    48    1
    39    35    37    2
    40    37    41    1
    41    38    43    1
    42    38    35    1
    43    39    42    1
    44    39    40    1
    45    40    49    1
    46    43    30    1
    47    44    32    1
    48    45    36    1
    49    45    46    1
    50    45    38    1
    51    46    34    1
    52    46    43    1
    53    47    29    1
    54    48    49    2
