@<TRIPOS>MOLECULE
outputs/IAG933/test6/raw/output_2692_IAG933_linker_design_.xyz
 42 46 0 0 0
SMALL
GASTEIGER

@<TRIPOS>ATOM
      1 C         -24.8550   -1.0120   30.1430 C.3     1  UNL1        0.0637
      2 C         -24.9730   -2.5050   29.7880 C.2     1  UNL1       -0.0191
      3 C         -23.9060   -3.1730   29.1460 C.2     1  UNL1       -0.0042
      4 C         -23.9890   -4.5490   28.8530 C.2     1  UNL1       -0.0003
      5 C         -25.1370   -5.2800   29.2050 C.2     1  UNL1       -0.0000
      6 C         -26.2320   -4.6110   29.7840 C.2     1  UNL1       -0.0003
      7 C         -26.1550   -3.2320   30.0650 C.2     1  UNL1       -0.0042
      8 C         -25.3870   -0.6790   31.5710 C.3     1  UNL1        0.0788
      9 C         -25.1890    0.7730   32.0280 C.3     1  UNL1        0.0193
     10 C         -25.3360    0.6840   33.5440 C.3     1  UNL1        0.0202
     11 C         -24.8290   -0.7150   33.9050 C.3     1  UNL1        0.0887
     12 N         -24.7580   -1.4810   32.6460 N.3     1  UNL1       -0.2191
     13 C         -25.6880    1.6140   26.4610 C.2     1  UNL1        0.0938
     14 C         -26.2500    2.9200   26.3950 C.2     1  UNL1        0.0905
     15 C         -25.6420    4.0930   27.1230 C.2     1  UNL1        0.2677
     16 N         -25.6140    5.2520   26.4490 N.am    1  UNL1       -0.1997
     17 C         -25.0260    6.4790   26.9630 C.3     1  UNL1        0.1388
     18 O         -25.1430    3.9660   28.2430 O.2     1  UNL1       -0.2683
     19 C         -27.4380    3.0910   25.6450 C.2     1  UNL1        0.1080
     20 N         -28.0750    2.0890   25.0030 N.2     1  UNL1       -0.2080
     21 C         -27.5430    0.8490   25.0790 C.2     1  UNL1        0.2546
     22 O         -28.1930   -0.2080   24.4770 O.2     1  UNL1       -0.4558
     23 C         -29.4600    0.0050   23.8660 C.3     1  UNL1        0.2426
     24 C         -30.0650   -1.3770   23.5730 C.3     1  UNL1        0.2292
     25 O         -30.7290   -1.8780   24.7210 O.3     1  UNL1       -0.2162
     26 C         -26.3540    0.5760   25.7770 C.2     1  UNL1        0.2068
     27 F         -25.8600   -0.6810   25.7950 F       1  UNL1       -0.1979
     28 C         -24.3700    0.5731   28.1692 C.2     1  UNL1        0.0829
     29 C         -30.2578    1.2584   28.4245 C.2     1  UNL1        0.0013
     30 C         -30.1290    2.2850   29.3970 C.2     1  UNL1        0.0001
     31 C         -25.3957   -0.2072   28.9581 C.3     1  UNL1        0.1360
     32 F         -21.1007    1.7185   27.4661 F       1  UNL1       -0.2004
     33 C         -28.8914    2.4885   30.0675 C.2     1  UNL1        0.0013
     34 C         -22.9542    0.5423   28.4502 C.2     1  UNL1        0.1800
     35 C         -22.3760    1.3467   27.4895 C.2     1  UNL1        0.1834
     36 C         -29.1647    0.3966   28.1379 C.2     1  UNL1        0.0161
     37 C         -23.3211    1.8053   26.5551 C.2     1  UNL1        0.1018
     38 C         -27.7494    1.7256   29.7028 C.2     1  UNL1        0.0161
     39 N         -26.8942   -0.3834   28.8345 N.pl3   1  UNL1       -0.2332
     40 C         -27.8939    0.5971   28.8352 C.2     1  UNL1        0.0657
     41 N         -24.4848    1.3308   27.0580 N.pl3   1  UNL1       -0.2602
     42 F         -22.3085   -0.2503   29.3402 F       1  UNL1       -0.2007
@<TRIPOS>BOND
     1     1    31    1
     2     2     7    1
     3     2     1    1
     4     3     2    2
     5     4     3    1
     6     4     5    2
     7     5     6    1
     8     6     7    2
     9     8     1    1
    10     8     9    1
    11     8    12    1
    12     9    10    1
    13    10    11    1
    14    12    11    1
    15    13    41    1
    16    14    13    1
    17    14    15    1
    18    15    18    2
    19    16    17    1
    20    16    15    1
    21    19    14    2
    22    20    21    2
    23    20    19    1
    24    21    26    1
    25    22    21    1
    26    23    22    1
    27    24    23    1
    28    24    25    1
    29    26    27    1
    30    26    13    2
    31    28    34    2
    32    28    31    1
    33    29    30    1
    34    30    33    2
    35    31    39    1
    36    32    35    1
    37    34    42    1
    38    35    34    1
    39    36    29    2
    40    36    40    1
    41    37    41    1
    42    37    35    2
    43    38    33    1
    44    39    40    1
    45    40    38    2
    46    41    28    1
