@<TRIPOS>MOLECULE
No_2695-gen_results/8p0m/2024-11-27-11-27-31/
 10 10 0 0 0
SMALL
GASTEIGER

@<TRIPOS>ATOM
      1 C         -28.0162   -0.8135   28.8779 C.ar    1  UNL1        0.0074
      2 C         -27.0636   -0.1190   28.6079 C.ar    1  UNL1        0.0116
      3 C         -25.7647   -0.3897   29.0360 C.ar    1  UNL1        0.0577
      4 C         -25.5296   -1.5302   29.9014 C.ar    1  UNL1        0.0116
      5 C         -26.6577   -2.2915   30.2035 C.ar    1  UNL1        0.0074
      6 C         -27.8548   -1.9555   29.7630 C.ar    1  UNL1        0.0798
      7 CL        -24.3720    0.5554   28.6942 Cl      1  UNL1       -0.0822
      8 C         -29.0022   -2.8347   30.1870 C.2     1  UNL1        0.3878
      9 O         -30.0632   -2.4765   30.0820 O.co2   1  UNL1       -0.2406
     10 O         -28.6975   -4.0222   30.6880 O.co2   1  UNL1       -0.2406
@<TRIPOS>BOND
     1     3     7    1
     2     6     8    1
     3     8     9   ar
     4     8    10   ar
     5     1     2   ar
     6     2     3   ar
     7     3     4   ar
     8     4     5   ar
     9     5     6   ar
    10     6     1   ar
