@<TRIPOS>MOLECULE
No_2697-gen_results/8p0m/2024-11-27-11-27-31/
 31 35 0 0 0
SMALL
GASTEIGER

@<TRIPOS>ATOM
      1 C         -28.0162   -0.8135   28.8779 C.ar    1  UNL1        0.0011
      2 C         -27.0636   -0.1190   28.6079 C.ar    1  UNL1       -0.0066
      3 C         -26.9716    0.7139   27.5060 C.3     1  UNL1        0.1213
      4 C         -25.8205    1.4909   27.1160 C.ar    1  UNL1       -0.0067
      5 C         -24.6562    1.4242   27.9180 C.ar    1  UNL1        0.0357
      6 C         -23.4598    2.1165   27.6160 C.ar    1  UNL1        0.0029
      7 C         -23.4728    2.6642   26.2846 C.ar    1  UNL1        0.0001
      8 C         -27.9928   -1.6167   30.1024 C.ar    1  UNL1        0.0533
      9 C         -26.7739   -1.7832   30.7816 C.ar    1  UNL1        0.0046
     10 C         -25.6334   -1.1481   30.3805 C.ar    1  UNL1        0.0030
     11 C         -25.7087   -0.3105   29.2748 C.ar    1  UNL1        0.0357
     12 C         -24.6067    0.4192   29.0605 C.2     1  UNL1        0.1950
     13 C         -28.1076    0.8301   26.5959 C.2     1  UNL1        0.2334
     14 C         -25.7608    2.2597   26.0106 C.ar    1  UNL1       -0.0034
     15 C         -24.5940    3.0782   25.6677 C.ar    1  UNL1       -0.0003
     16 O         -23.5050    0.3825   29.7020 O.2     1  UNL1       -0.2866
     17 N         -29.0770    1.6667   26.8502 N.am    1  UNL1       -0.2790
     18 O         -28.1667    0.1660   25.5356 O.2     1  UNL1       -0.2742
     19 C         -30.2942    1.7906   26.0712 C.3     1  UNL1        0.0934
     20 C         -29.2129   -2.4107   30.4889 C.2     1  UNL1        0.2490
     21 O         -30.1872   -1.9436   30.7393 O.2     1  UNL1       -0.2699
     22 N         -29.1038   -3.8200   30.2711 N.am    1  UNL1       -0.2761
     23 C         -30.2104   -4.7099   30.5088 C.3     1  UNL1        0.0937
     24 C         -27.8405   -4.4982   30.0020 C.3     1  UNL1        0.0937
     25 C         -30.3660   -5.3641   31.4302 C.3     1  UNL1        0.0216
     26 C         -29.2376   -6.1920   31.7579 C.3     1  UNL1        0.0035
     27 C         -27.9379   -5.5544   31.2759 C.3     1  UNL1        0.0216
     28 C         -29.1113    2.5750   28.0829 C.3     1  UNL1        0.0934
     29 C         -29.1354    3.9365   27.8237 C.3     1  UNL1        0.0216
     30 C         -30.3231    4.2838   27.1724 C.3     1  UNL1        0.0035
     31 C         -30.5214    3.3827   25.8788 C.3     1  UNL1        0.0216
@<TRIPOS>BOND
     1     2     3    1
     2     3     4    1
     3     5    12    1
     4    11    12    1
     5     3    13    1
     6    12    16    2
     7    13    17   am
     8    13    18    2
     9    17    19    1
    10     8    20    1
    11    20    21    2
    12    20    22   am
    13    22    23    1
    14    22    24    1
    15    25    26    1
    16    17    28    1
    17    29    30    1
    18    19    31    1
    19    30    31    1
    20    23    25    1
    21    26    27    1
    22    27    24    1
    23    29    28    1
    24     1     2   ar
    25     2    11   ar
    26    11    10   ar
    27    10     9   ar
    28     9     8   ar
    29     8     1   ar
    30     4     5   ar
    31     5     6   ar
    32     6     7   ar
    33     7    15   ar
    34    15    14   ar
    35    14     4   ar
