@<TRIPOS>MOLECULE
outputs/IAG933/test6/raw/output_2699_IAG933_linker_design_.xyz
 41 44 0 0 0
SMALL
GASTEIGER

@<TRIPOS>ATOM
      1 C         -24.8550   -1.0120   30.1430 C.3     1  UNL1        0.1113
      2 C         -24.9730   -2.5050   29.7880 C.2     1  UNL1       -0.0030
      3 C         -23.9060   -3.1730   29.1460 C.2     1  UNL1       -0.0026
      4 C         -23.9890   -4.5490   28.8530 C.2     1  UNL1       -0.0003
      5 C         -25.1370   -5.2800   29.2050 C.2     1  UNL1       -0.0000
      6 C         -26.2320   -4.6110   29.7840 C.2     1  UNL1       -0.0003
      7 C         -26.1550   -3.2320   30.0650 C.2     1  UNL1       -0.0026
      8 C         -25.3870   -0.6790   31.5710 C.3     1  UNL1        0.0950
      9 C         -25.1890    0.7730   32.0280 C.3     1  UNL1        0.0209
     10 C         -25.3360    0.6840   33.5440 C.3     1  UNL1        0.0203
     11 C         -24.8290   -0.7150   33.9050 C.3     1  UNL1        0.0888
     12 N         -24.7580   -1.4810   32.6460 N.3     1  UNL1       -0.2174
     13 C         -25.6880    1.6140   26.4610 C.3     1  UNL1        0.0852
     14 C         -26.2500    2.9200   26.3950 C.2     1  UNL1        0.0560
     15 C         -25.6420    4.0930   27.1230 C.2     1  UNL1        0.2625
     16 N         -25.6140    5.2520   26.4490 N.am    1  UNL1       -0.2000
     17 C         -25.0260    6.4790   26.9630 C.3     1  UNL1        0.1388
     18 O         -25.1430    3.9660   28.2430 O.2     1  UNL1       -0.2687
     19 C         -27.4380    3.0910   25.6450 C.2     1  UNL1        0.1022
     20 N         -28.0750    2.0890   25.0030 N.2     1  UNL1       -0.2119
     21 C         -27.5430    0.8490   25.0790 C.2     1  UNL1        0.2341
     22 O         -28.1930   -0.2080   24.4770 O.2     1  UNL1       -0.4585
     23 C         -29.4600    0.0050   23.8660 C.3     1  UNL1        0.2423
     24 C         -30.0650   -1.3770   23.5730 C.3     1  UNL1        0.2292
     25 O         -30.7290   -1.8780   24.7210 O.3     1  UNL1       -0.2162
     26 C         -26.3540    0.5760   25.7770 C.3     1  UNL1        0.2412
     27 F         -25.8600   -0.6810   25.7950 F       1  UNL1       -0.2269
     28 N         -23.9311   -0.1320   29.4775 N.pl3   1  UNL1       -0.3030
     29 C         -28.6832    0.3606   28.4809 C.2     1  UNL1        0.4952
     30 N         -29.9208   -0.0573   28.7702 N.pl3   1  UNL1        0.2065
     31 CL        -23.2063    2.7342   25.4400 Cl      1  UNL1       -0.1145
     32 C         -27.6881   -0.4157   28.0425 C.2     1  UNL1        0.1990
     33 N         -26.3669   -0.0313   28.2755 N.2     1  UNL1       -0.2596
     34 C         -24.3347    0.8698   28.7114 C.3     1  UNL1        0.0988
     35 C         -24.1675    1.6193   26.4211 C.3     1  UNL1        0.0892
     36 C         -22.5643   -0.2732   29.4543 C.2     1  UNL1        0.0569
     37 C         -25.7926    1.1760   28.9377 C.3     1  UNL1        0.1454
     38 C         -22.1798    1.3367   27.6597 C.3     1  UNL1        0.0303
     39 N         -28.4567    1.5920   28.7826 N.pl3   1  UNL1        0.2065
     40 C         -21.6570    0.4859   28.6691 C.2     1  UNL1       -0.0103
     41 C         -23.5920    1.3451   27.5958 C.3     1  UNL1        0.0400
@<TRIPOS>BOND
     1     1     2    1
     2     2     7    1
     3     3     2    2
     4     4     3    1
     5     4     5    2
     6     5     6    1
     7     6     7    2
     8     8     1    1
     9     8     9    1
    10     8    12    1
    11     9    10    1
    12    10    11    1
    13    12    11    1
    14    13    35    1
    15    14    13    1
    16    14    15    1
    17    15    18    2
    18    16    17    1
    19    16    15    1
    20    19    14    2
    21    20    21    2
    22    20    19    1
    23    21    26    1
    24    22    21    1
    25    23    22    1
    26    24    23    1
    27    24    25    1
    28    26    27    1
    29    26    13    1
    30    28     1    1
    31    29    30    2
    32    29    39    1
    33    32    33    2
    34    32    29    1
    35    33    37    1
    36    34    37    1
    37    34    28    1
    38    35    31    1
    39    36    28    1
    40    38    40    1
    41    40    36    2
    42    41    35    1
    43    41    38    1
    44    41    34    1
