@<TRIPOS>MOLECULE
outputs/IAG933/test6/raw/output_2703_IAG933_linker_design_.xyz
 42 45 0 0 0
SMALL
GASTEIGER

@<TRIPOS>ATOM
      1 C         -24.8550   -1.0120   30.1430 C.3     1  UNL1        0.1210
      2 C         -24.9730   -2.5050   29.7880 C.2     1  UNL1       -0.0023
      3 C         -23.9060   -3.1730   29.1460 C.2     1  UNL1       -0.0026
      4 C         -23.9890   -4.5490   28.8530 C.2     1  UNL1       -0.0003
      5 C         -25.1370   -5.2800   29.2050 C.2     1  UNL1       -0.0000
      6 C         -26.2320   -4.6110   29.7840 C.2     1  UNL1       -0.0003
      7 C         -26.1550   -3.2320   30.0650 C.2     1  UNL1       -0.0026
      8 C         -25.3870   -0.6790   31.5710 C.3     1  UNL1        0.0957
      9 C         -25.1890    0.7730   32.0280 C.3     1  UNL1        0.0209
     10 C         -25.3360    0.6840   33.5440 C.3     1  UNL1        0.0203
     11 C         -24.8290   -0.7150   33.9050 C.3     1  UNL1        0.0888
     12 N         -24.7580   -1.4810   32.6460 N.3     1  UNL1       -0.2174
     13 C         -25.6880    1.6140   26.4610 C.2     1  UNL1        0.0898
     14 C         -26.2500    2.9200   26.3950 C.2     1  UNL1        0.0900
     15 C         -25.6420    4.0930   27.1230 C.2     1  UNL1        0.2676
     16 N         -25.6140    5.2520   26.4490 N.am    1  UNL1       -0.1997
     17 C         -25.0260    6.4790   26.9630 C.3     1  UNL1        0.1388
     18 O         -25.1430    3.9660   28.2430 O.2     1  UNL1       -0.2683
     19 C         -27.4380    3.0910   25.6450 C.2     1  UNL1        0.1080
     20 N         -28.0750    2.0890   25.0030 N.2     1  UNL1       -0.2080
     21 C         -27.5430    0.8490   25.0790 C.2     1  UNL1        0.2546
     22 O         -28.1930   -0.2080   24.4770 O.2     1  UNL1       -0.4558
     23 C         -29.4600    0.0050   23.8660 C.3     1  UNL1        0.2426
     24 C         -30.0650   -1.3770   23.5730 C.3     1  UNL1        0.2292
     25 O         -30.7290   -1.8780   24.7210 O.3     1  UNL1       -0.2162
     26 C         -26.3540    0.5760   25.7770 C.2     1  UNL1        0.2064
     27 F         -25.8600   -0.6810   25.7950 F       1  UNL1       -0.1979
     28 C         -27.9705   -0.0311   28.8913 C.1     1  UNL1       -0.0713
     29 N         -25.2864   -0.1000   29.0361 N.pl3   1  UNL1       -0.2448
     30 F         -20.9580    1.7189   27.3956 F       1  UNL1       -0.2030
     31 C         -29.9101    2.3526   30.3208 C.3     1  UNL1        0.1103
     32 C         -22.9927    0.6799   28.5114 C.2     1  UNL1        0.1322
     33 N         -30.8639    2.3983   31.4517 N.3     1  UNL1       -0.1314
     34 C         -24.3244    0.5699   28.2630 C.3     1  UNL1        0.2025
     35 C         -26.8243   -0.2133   28.7949 C.1     1  UNL1        0.0020
     36 N         -22.3319    0.1937   29.6036 N.pl3   1  UNL1       -0.1271
     37 C         -29.3821    0.9498   30.4618 C.3     1  UNL1        0.0345
     38 F         -23.1150    1.6350   25.1518 F       1  UNL1       -0.2071
     39 N         -24.4557    1.3431   27.0167 N.pl3   1  UNL1       -0.2543
     40 C         -29.3874    0.1924   29.0779 C.3     1  UNL1        0.0792
     41 C         -23.2416    1.8999   26.5149 C.3     1  UNL1        0.2905
     42 C         -22.2815    1.4466   27.4347 C.2     1  UNL1        0.1853
@<TRIPOS>BOND
     1     1    29    1
     2     2     7    1
     3     2     1    1
     4     3     2    2
     5     4     3    1
     6     4     5    2
     7     5     6    1
     8     6     7    2
     9     8     1    1
    10     8     9    1
    11     8    12    1
    12     9    10    1
    13    10    11    1
    14    12    11    1
    15    13    39    1
    16    14    13    1
    17    14    15    1
    18    15    18    2
    19    16    17    1
    20    16    15    1
    21    19    14    2
    22    20    21    2
    23    20    19    1
    24    21    26    1
    25    22    21    1
    26    23    22    1
    27    24    23    1
    28    24    25    1
    29    26    27    1
    30    26    13    2
    31    28    40    1
    32    30    42    1
    33    31    37    1
    34    31    33    1
    35    32    36    1
    36    34    32    1
    37    34    29    1
    38    35    28    3
    39    35    29    1
    40    39    34    1
    41    40    37    1
    42    41    38    1
    43    41    39    1
    44    41    42    1
    45    42    32    2
