@<TRIPOS>MOLECULE
No_2704-gen_results/8p0m/2024-11-27-11-27-31/
 12 11 0 0 0
SMALL
GASTEIGER

@<TRIPOS>ATOM
      1 O         -28.1229   -1.3353   28.4874 O.2     1  UNL1       -0.2711
      2 C         -28.5208   -0.4363   29.0779 C.2     1  UNL1        0.2670
      3 C         -29.6977    0.0507   28.9764 C.3     1  UNL1        0.2107
      4 N         -27.7059   -0.0219   30.1625 N.am    1  UNL1       -0.2018
      5 C         -26.3949   -0.3536   30.3653 C.3     1  UNL1        0.1386
      6 C         -29.8153    1.4537   28.6188 C.2     1  UNL1        0.1032
      7 N         -30.7976    1.9566   28.4782 N.2     1  UNL1       -0.2447
      8 N         -30.6020   -0.2881   30.1048 N.pl3   1  UNL1       -0.2227
      9 C         -30.8161   -1.4484   30.4577 C.2     1  UNL1        0.0811
     10 C         -31.9828    1.6638   28.6245 C.2     1  UNL1        0.0986
     11 C         -31.4924   -1.6278   31.6510 C.2     1  UNL1        0.0188
     12 C         -32.9333    1.9636   27.8231 C.2     1  UNL1        0.0222
@<TRIPOS>BOND
     1     1     2    2
     2     2     3    1
     3     2     4   am
     4     4     5    1
     5     3     6    1
     6     6     7    2
     7     3     8    1
     8     8     9    1
     9     7    10    1
    10     9    11    2
    11    10    12    2
