@<TRIPOS>MOLECULE
outputs/IAG933/test6/raw/output_2705_IAG933_linker_design_.xyz
 44 48 0 0 0
SMALL
GASTEIGER

@<TRIPOS>ATOM
      1 C         -24.8550   -1.0120   30.1430 C.3     1  UNL1        0.0437
      2 C         -24.9730   -2.5050   29.7880 C.2     1  UNL1       -0.0208
      3 C         -23.9060   -3.1730   29.1460 C.2     1  UNL1       -0.0042
      4 C         -23.9890   -4.5490   28.8530 C.2     1  UNL1       -0.0003
      5 C         -25.1370   -5.2800   29.2050 C.2     1  UNL1       -0.0000
      6 C         -26.2320   -4.6110   29.7840 C.2     1  UNL1       -0.0003
      7 C         -26.1550   -3.2320   30.0650 C.2     1  UNL1       -0.0042
      8 C         -25.3870   -0.6790   31.5710 C.3     1  UNL1        0.0776
      9 C         -25.1890    0.7730   32.0280 C.3     1  UNL1        0.0265
     10 C         -25.3360    0.6840   33.5440 C.3     1  UNL1        0.0207
     11 C         -24.8290   -0.7150   33.9050 C.3     1  UNL1        0.0887
     12 N         -24.7580   -1.4810   32.6460 N.3     1  UNL1       -0.2191
     13 C         -25.6880    1.6140   26.4610 C.2     1  UNL1        0.0523
     14 C         -26.2500    2.9200   26.3950 C.2     1  UNL1        0.0778
     15 C         -25.6420    4.0930   27.1230 C.2     1  UNL1        0.2665
     16 N         -25.6140    5.2520   26.4490 N.am    1  UNL1       -0.1997
     17 C         -25.0260    6.4790   26.9630 C.3     1  UNL1        0.1388
     18 O         -25.1430    3.9660   28.2430 O.2     1  UNL1       -0.2683
     19 C         -27.4380    3.0910   25.6450 C.2     1  UNL1        0.1068
     20 N         -28.0750    2.0890   25.0030 N.2     1  UNL1       -0.2081
     21 C         -27.5430    0.8490   25.0790 C.2     1  UNL1        0.2533
     22 O         -28.1930   -0.2080   24.4770 O.2     1  UNL1       -0.4558
     23 C         -29.4600    0.0050   23.8660 C.3     1  UNL1        0.2426
     24 C         -30.0650   -1.3770   23.5730 C.3     1  UNL1        0.2292
     25 O         -30.7290   -1.8780   24.7210 O.3     1  UNL1       -0.2162
     26 C         -26.3540    0.5760   25.7770 C.2     1  UNL1        0.1943
     27 F         -25.8600   -0.6810   25.7950 F       1  UNL1       -0.1992
     28 C         -23.3186    2.0341   26.6594 C.2     1  UNL1       -0.0277
     29 C         -27.0602    6.2510   31.7305 C.3     1  UNL1        0.2054
     30 O         -26.7249    2.9149   30.6959 O.2     1  UNL1       -0.2734
     31 C         -23.0808    2.6102   25.1956 C.3     1  UNL1        0.0277
     32 C         -26.0718    5.6424   32.6682 C.3     1  UNL1        0.2671
     33 C         -24.4496    1.5798   27.1764 C.2     1  UNL1        0.0599
     34 N         -24.3415    1.3791   28.5032 N.pl3   1  UNL1       -0.2396
     35 C         -26.0494    2.8826   31.6706 C.2     1  UNL1        0.2411
     36 C         -23.1854    1.8374   29.0316 C.3     1  UNL1        0.0966
     37 O         -26.7187    6.7486   32.8670 O.3     1  UNL1       -0.3235
     38 C         -22.3848    2.0550   27.6762 C.3     1  UNL1        0.0395
     39 C         -20.8947    1.9145   27.6368 C.3     1  UNL1        0.0062
     40 O         -24.6887    5.4901   32.4440 O.3     1  UNL1       -0.1906
     41 C         -26.5068    4.5455   33.6239 C.3     1  UNL1        0.1766
     42 N         -26.2765    3.2066   32.9951 N.am    1  UNL1       -0.2000
     43 C         -23.9086    2.4462   30.2318 C.3     1  UNL1        0.0311
     44 C         -24.8461    2.1571   31.3761 C.3     1  UNL1        0.0813
@<TRIPOS>BOND
     1     2     7    1
     2     2     1    1
     3     3     2    2
     4     4     3    1
     5     4     5    2
     6     5     6    1
     7     6     7    2
     8     8     1    1
     9     8     9    1
    10     8    12    1
    11     9    44    1
    12     9    10    1
    13    10    11    1
    14    12    11    1
    15    13    33    1
    16    14    13    1
    17    14    15    1
    18    15    18    2
    19    16    17    1
    20    16    15    1
    21    19    14    2
    22    20    21    2
    23    20    19    1
    24    21    26    1
    25    22    21    1
    26    23    22    1
    27    24    23    1
    28    24    25    1
    29    26    27    1
    30    26    13    2
    31    28    33    2
    32    28    38    1
    33    29    32    1
    34    29    37    1
    35    30    35    2
    36    31    28    1
    37    32    40    1
    38    32    37    1
    39    32    41    1
    40    33    34    1
    41    34    36    1
    42    35    42    1
    43    36    43    1
    44    38    39    1
    45    38    36    1
    46    42    41    1
    47    44    43    1
    48    44    35    1
