@<TRIPOS>MOLECULE
No_2706-gen_results/8p0m/2024-11-27-11-27-31/
 29 31 0 0 0
SMALL
GASTEIGER

@<TRIPOS>ATOM
      1 C         -28.0162   -0.8135   28.8779 C.ar    1  UNL1        0.0592
      2 C         -27.0636   -0.1190   28.6079 C.ar    1  UNL1        0.1421
      3 C         -25.7647   -0.3897   29.0360 C.ar    1  UNL1        0.0269
      4 C         -25.5296   -1.5302   29.9014 C.ar    1  UNL1       -0.0017
      5 C         -24.3236   -1.9076   30.4324 C.3     1  UNL1        0.0994
      6 C         -27.9274   -1.9227   29.7902 C.ar    1  UNL1        0.1421
      7 C         -26.6914   -2.2806   30.2948 C.ar    1  UNL1        0.0269
      8 N         -23.2356   -1.1082   30.4488 N.3     1  UNL1       -0.2647
      9 C         -23.1321   -0.0693   31.3524 C.3     1  UNL1        0.0900
     10 C         -22.3809   -0.9786   29.2965 C.3     1  UNL1        0.1164
     11 F         -27.1369    0.9448   27.7562 F       1  UNL1       -0.2041
     12 C         -21.8153    0.3462   28.9708 C.3     1  UNL1        0.1821
     13 C         -21.0665    0.3150   27.7294 C.3     1  UNL1        0.0455
     14 F         -29.0733   -2.4822   30.1733 F       1  UNL1       -0.2041
     15 C         -21.5159    1.5182   27.2085 C.3     1  UNL1        0.0118
     16 C         -22.9489    1.8058   27.1021 C.3     1  UNL1        0.0680
     17 C         -23.5809    2.3531   28.2736 C.2     1  UNL1        0.1595
     18 C         -23.6563    1.7087   29.5454 C.2     1  UNL1        0.2049
     19 O         -22.3283    1.3600   29.6161 O.2     1  UNL1       -0.4720
     20 O         -24.9623    2.9186   27.8706 O.3     1  UNL1       -0.4546
     21 C         -25.4589    3.9399   28.5487 C.ar    1  UNL1        0.1452
     22 C         -26.0277    4.8112   27.8694 C.ar    1  UNL1        0.0375
     23 C         -26.6361    5.9944   28.4986 C.ar    1  UNL1        0.0033
     24 C         -26.6298    6.0687   29.9119 C.ar    1  UNL1        0.0068
     25 C         -25.9852    5.0427   30.6098 C.ar    1  UNL1        0.0828
     26 C         -25.4243    4.0029   29.9907 C.ar    1  UNL1        0.0441
     27 C         -25.9748    5.1026   32.1237 C.2     1  UNL1        0.3879
     28 O         -25.1490    5.6857   32.6682 O.co2   1  UNL1       -0.2406
     29 O         -26.8918    4.3626   32.7232 O.co2   1  UNL1       -0.2406
@<TRIPOS>BOND
     1     4     5    1
     2     5     8    1
     3     8     9    1
     4     8    10    1
     5     2    11    1
     6    10    12    1
     7    12    13    1
     8     6    14    1
     9    13    15    1
    10    15    16    1
    11    16    17    1
    12    17    18    2
    13    12    19    1
    14    18    19    1
    15    17    20    1
    16    20    21    1
    17    25    27    1
    18    27    28   ar
    19    27    29   ar
    20    21    22   ar
    21    22    23   ar
    22    23    24   ar
    23    24    25   ar
    24    25    26   ar
    25    26    21   ar
    26     1     2   ar
    27     2     3   ar
    28     3     4   ar
    29     4     7   ar
    30     7     6   ar
    31     6     1   ar
