@<TRIPOS>MOLECULE
outputs/IAG933/test6/raw/output_2707_IAG933_linker_design_.xyz
 47 52 0 0 0
SMALL
GASTEIGER

@<TRIPOS>ATOM
      1 C         -24.8550   -1.0120   30.1430 C.3     1  UNL1        0.0600
      2 C         -24.9730   -2.5050   29.7880 C.2     1  UNL1       -0.0194
      3 C         -23.9060   -3.1730   29.1460 C.2     1  UNL1       -0.0042
      4 C         -23.9890   -4.5490   28.8530 C.2     1  UNL1       -0.0003
      5 C         -25.1370   -5.2800   29.2050 C.2     1  UNL1       -0.0000
      6 C         -26.2320   -4.6110   29.7840 C.2     1  UNL1       -0.0003
      7 C         -26.1550   -3.2320   30.0650 C.2     1  UNL1       -0.0042
      8 C         -25.3870   -0.6790   31.5710 C.3     1  UNL1        0.0785
      9 C         -25.1890    0.7730   32.0280 C.3     1  UNL1        0.0192
     10 C         -25.3360    0.6840   33.5440 C.3     1  UNL1        0.0202
     11 C         -24.8290   -0.7150   33.9050 C.3     1  UNL1        0.0887
     12 N         -24.7580   -1.4810   32.6460 N.3     1  UNL1       -0.2191
     13 C         -25.6880    1.6140   26.4610 C.2     1  UNL1        0.0401
     14 C         -26.2500    2.9200   26.3950 C.2     1  UNL1        0.0766
     15 C         -25.6420    4.0930   27.1230 C.2     1  UNL1        0.2664
     16 N         -25.6140    5.2520   26.4490 N.am    1  UNL1       -0.1997
     17 C         -25.0260    6.4790   26.9630 C.3     1  UNL1        0.1388
     18 O         -25.1430    3.9660   28.2430 O.2     1  UNL1       -0.2683
     19 C         -27.4380    3.0910   25.6450 C.2     1  UNL1        0.1067
     20 N         -28.0750    2.0890   25.0030 N.2     1  UNL1       -0.2081
     21 C         -27.5430    0.8490   25.0790 C.2     1  UNL1        0.2533
     22 O         -28.1930   -0.2080   24.4770 O.2     1  UNL1       -0.4558
     23 C         -29.4600    0.0050   23.8660 C.3     1  UNL1        0.2426
     24 C         -30.0650   -1.3770   23.5730 C.3     1  UNL1        0.2292
     25 O         -30.7290   -1.8780   24.7210 O.3     1  UNL1       -0.2162
     26 C         -26.3540    0.5760   25.7770 C.2     1  UNL1        0.1931
     27 F         -25.8600   -0.6810   25.7950 F       1  UNL1       -0.1992
     28 C         -28.6961    2.9037   29.6625 C.3     1  UNL1        0.0564
     29 C         -27.7449    0.7174   29.1615 C.3     1  UNL1        0.0775
     30 N         -30.7919    2.9736   28.4922 N.am    1  UNL1       -0.2566
     31 C         -24.3488    0.5991   28.4215 C.2     1  UNL1        0.0760
     32 CL        -23.1677    2.6409   25.1491 Cl      1  UNL1       -0.0822
     33 C         -21.9894    0.8797   28.4917 C.2     1  UNL1        0.0994
     34 C         -24.4532    1.3462   27.2160 C.2     1  UNL1        0.0280
     35 C         -32.0069    2.9873   27.6474 C.3     1  UNL1        0.1171
     36 C         -30.0987    4.1373   28.3944 C.2     1  UNL1        0.2274
     37 O         -29.6633    1.3353   27.2107 O.3     1  UNL1       -0.2050
     38 C         -23.2195    1.7598   26.7284 C.2     1  UNL1        0.0604
     39 C         -25.4282   -0.1416   29.0791 C.3     1  UNL1        0.1179
     40 N         -23.1243    0.4046   29.0178 N.2     1  UNL1       -0.2467
     41 C         -28.8996    4.2347   29.3008 C.3     1  UNL1        0.0895
     42 C         -29.7061    1.9467   28.7099 C.3     1  UNL1        0.1899
     43 N         -26.7824   -0.1554   28.8716 N.3     1  UNL1       -0.2144
     44 O         -30.1918    4.8538   27.3588 O.2     1  UNL1       -0.2748
     45 C         -27.3611    2.1742   29.4917 C.3     1  UNL1        0.0222
     46 C         -22.0338    1.5310   27.3167 C.2     1  UNL1        0.0320
     47 C         -29.2253    0.5271   29.3216 C.3     1  UNL1        0.0672
@<TRIPOS>BOND
     1     1    39    1
     2     2     7    1
     3     2     1    1
     4     3     2    2
     5     4     3    1
     6     4     5    2
     7     5     6    1
     8     6     7    2
     9     8     1    1
    10     8     9    1
    11     8    12    1
    12     9    10    1
    13    10    11    1
    14    12    11    1
    15    13    34    1
    16    14    13    1
    17    14    15    1
    18    15    18    2
    19    16    17    1
    20    16    15    1
    21    19    14    2
    22    20    21    2
    23    20    19    1
    24    21    26    1
    25    22    21    1
    26    23    22    1
    27    24    23    1
    28    24    25    1
    29    26    27    1
    30    26    13    2
    31    28    41    1
    32    29    43    1
    33    29    47    1
    34    29    45    1
    35    30    42    1
    36    31    40    1
    37    31    39    1
    38    32    38    1
    39    33    40    2
    40    34    31    2
    41    35    30    1
    42    36    30   am
    43    36    41    1
    44    38    34    1
    45    38    46    2
    46    39    43    1
    47    42    37    1
    48    42    47    1
    49    42    28    1
    50    44    36    2
    51    45    28    1
    52    46    33    1
