@<TRIPOS>MOLECULE
No_2708-gen_results/8p0m/2024-11-27-11-27-31/
 17 18 0 0 0
SMALL
GASTEIGER

@<TRIPOS>ATOM
      1 C         -28.0162   -0.8135   28.8779 C.ar    1  UNL1        0.0375
      2 C         -27.0636   -0.1190   28.6079 C.ar    1  UNL1        0.1453
      3 C         -25.7923   -0.4302   29.0761 C.ar    1  UNL1        0.0375
      4 C         -25.5756   -1.5654   29.9363 C.ar    1  UNL1        0.0031
      5 C         -26.7354   -2.3004   30.2173 C.ar    1  UNL1        0.0002
      6 C         -27.9184   -1.9537   29.7629 C.ar    1  UNL1        0.0031
      7 O         -26.8881    0.9906   27.7948 O.3     1  UNL1       -0.4533
      8 C         -27.7123    1.7368   27.4777 C.ar    1  UNL1        0.1496
      9 C         -28.0147    2.6544   27.8528 C.ar    1  UNL1        0.0376
     10 C         -28.1459    1.3429   26.0753 C.ar    1  UNL1        0.0895
     11 C         -27.6924    0.1730   25.4327 C.2     1  UNL1        0.2678
     12 C         -29.0769    3.5302   27.3426 C.ar    1  UNL1        0.0031
     13 C         -29.5254    3.2414   26.0227 C.ar    1  UNL1        0.0003
     14 C         -29.0500    2.1428   25.3776 C.ar    1  UNL1        0.0076
     15 O         -26.4872   -0.2490   25.5446 O.2     1  UNL1       -0.2683
     16 N         -28.5744   -0.6290   24.8260 N.am    1  UNL1       -0.1997
     17 C         -29.9084   -0.3286   24.6709 C.3     1  UNL1        0.1388
@<TRIPOS>BOND
     1     2     7    1
     2     7     8    1
     3    10    11    1
     4    11    15    2
     5    11    16   am
     6    16    17    1
     7     1     2   ar
     8     2     3   ar
     9     3     4   ar
    10     4     5   ar
    11     5     6   ar
    12     6     1   ar
    13     8     9   ar
    14     9    12   ar
    15    12    13   ar
    16    13    14   ar
    17    14    10   ar
    18    10     8   ar
