@<TRIPOS>MOLECULE
outputs/IAG933/test6/raw/output_2709_IAG933_linker_design_.xyz
 45 47 0 0 0
SMALL
GASTEIGER

@<TRIPOS>ATOM
      1 C         -24.8550   -1.0120   30.1430 C.3     1  UNL1        0.0437
      2 C         -24.9730   -2.5050   29.7880 C.2     1  UNL1       -0.0208
      3 C         -23.9060   -3.1730   29.1460 C.2     1  UNL1       -0.0042
      4 C         -23.9890   -4.5490   28.8530 C.2     1  UNL1       -0.0003
      5 C         -25.1370   -5.2800   29.2050 C.2     1  UNL1       -0.0000
      6 C         -26.2320   -4.6110   29.7840 C.2     1  UNL1       -0.0003
      7 C         -26.1550   -3.2320   30.0650 C.2     1  UNL1       -0.0042
      8 C         -25.3870   -0.6790   31.5710 C.3     1  UNL1        0.0772
      9 C         -25.1890    0.7730   32.0280 C.3     1  UNL1        0.0192
     10 C         -25.3360    0.6840   33.5440 C.3     1  UNL1        0.0202
     11 C         -24.8290   -0.7150   33.9050 C.3     1  UNL1        0.0887
     12 N         -24.7580   -1.4810   32.6460 N.3     1  UNL1       -0.2191
     13 C         -25.6880    1.6140   26.4610 C.3     1  UNL1        0.0861
     14 C         -26.2500    2.9200   26.3950 C.2     1  UNL1        0.0562
     15 C         -25.6420    4.0930   27.1230 C.2     1  UNL1        0.2625
     16 N         -25.6140    5.2520   26.4490 N.am    1  UNL1       -0.2000
     17 C         -25.0260    6.4790   26.9630 C.3     1  UNL1        0.1388
     18 O         -25.1430    3.9660   28.2430 O.2     1  UNL1       -0.2687
     19 C         -27.4380    3.0910   25.6450 C.2     1  UNL1        0.1022
     20 N         -28.0750    2.0890   25.0030 N.2     1  UNL1       -0.2119
     21 C         -27.5430    0.8490   25.0790 C.2     1  UNL1        0.2341
     22 O         -28.1930   -0.2080   24.4770 O.2     1  UNL1       -0.4585
     23 C         -29.4600    0.0050   23.8660 C.3     1  UNL1        0.2423
     24 C         -30.0650   -1.3770   23.5730 C.3     1  UNL1        0.2292
     25 O         -30.7290   -1.8780   24.7210 O.3     1  UNL1       -0.2162
     26 C         -26.3540    0.5760   25.7770 C.3     1  UNL1        0.2413
     27 F         -25.8600   -0.6810   25.7950 F       1  UNL1       -0.2268
     28 C         -26.9352   -0.1684   28.7199 C.2     1  UNL1       -0.0279
     29 N         -29.4126    2.0412   29.8040 N.3     1  UNL1       -0.2390
     30 N         -31.0714    4.7381   31.0312 N.3     1  UNL1       -0.1215
     31 C         -29.1363    0.9486   29.0233 C.3     1  UNL1        0.1006
     32 C         -22.2930    1.9342   28.0911 C.3     1  UNL1        0.0722
     33 C         -31.2941    3.6507   30.2317 C.3     1  UNL1        0.1868
     34 C         -23.8167    0.2600   28.5292 C.3     1  UNL1        0.0768
     35 N         -33.6549    3.5571   30.8332 N.am    1  UNL1       -0.0865
     36 C         -27.7486    0.7459   29.0398 C.2     1  UNL1       -0.0133
     37 C         -29.0627    2.2121   31.1784 C.3     1  UNL1        0.2593
     38 O         -28.1394    2.7388   31.2749 O.3     1  UNL1       -0.2005
     39 C         -30.2055    3.1675   29.2358 C.3     1  UNL1        0.1032
     40 N         -23.7607    1.6889   28.0142 N.3     1  UNL1       -0.2720
     41 C         -32.5315    2.9059   30.3829 C.2     1  UNL1        0.2796
     42 O         -32.3979    1.6405   30.5513 O.2     1  UNL1       -0.2700
     43 C         -25.2566   -0.1017   28.9393 C.3     1  UNL1        0.0431
     44 C         -24.1795    1.5618   26.5302 C.3     1  UNL1        0.0799
     45 C         -21.6138    1.8614   26.7561 C.3     1  UNL1        0.0188
@<TRIPOS>BOND
     1     1    43    1
     2     2     7    1
     3     2     1    1
     4     3     2    2
     5     4     3    1
     6     4     5    2
     7     5     6    1
     8     6     7    2
     9     8     1    1
    10     8     9    1
    11     8    12    1
    12     9    10    1
    13    10    11    1
    14    12    11    1
    15    13    44    1
    16    14    13    1
    17    14    15    1
    18    15    18    2
    19    16    17    1
    20    16    15    1
    21    19    14    2
    22    20    21    2
    23    20    19    1
    24    21    26    1
    25    22    21    1
    26    23    22    1
    27    24    23    1
    28    24    25    1
    29    26    27    1
    30    26    13    1
    31    28    43    1
    32    28    36    2
    33    29    37    1
    34    31    36    1
    35    31    29    1
    36    33    41    1
    37    33    30    1
    38    37    38    1
    39    39    29    1
    40    39    33    1
    41    40    32    1
    42    40    34    1
    43    41    42    2
    44    41    35    1
    45    43    34    1
    46    44    40    1
    47    45    32    1
