@<TRIPOS>MOLECULE
outputs/IAG933/test6/raw/output_271_IAG933_linker_design_.xyz
 51 56 0 0 0
SMALL
GASTEIGER

@<TRIPOS>ATOM
      1 C         -24.8550   -1.0120   30.1430 C.3     1  UNL1        0.0424
      2 C         -24.9730   -2.5050   29.7880 C.2     1  UNL1       -0.0208
      3 C         -23.9060   -3.1730   29.1460 C.2     1  UNL1       -0.0042
      4 C         -23.9890   -4.5490   28.8530 C.2     1  UNL1       -0.0003
      5 C         -25.1370   -5.2800   29.2050 C.2     1  UNL1       -0.0000
      6 C         -26.2320   -4.6110   29.7840 C.2     1  UNL1       -0.0003
      7 C         -26.1550   -3.2320   30.0650 C.2     1  UNL1       -0.0042
      8 C         -25.3870   -0.6790   31.5710 C.3     1  UNL1        0.0771
      9 C         -25.1890    0.7730   32.0280 C.3     1  UNL1        0.0192
     10 C         -25.3360    0.6840   33.5440 C.3     1  UNL1        0.0202
     11 C         -24.8290   -0.7150   33.9050 C.3     1  UNL1        0.0887
     12 N         -24.7580   -1.4810   32.6460 N.3     1  UNL1       -0.2191
     13 C         -25.6880    1.6140   26.4610 C.2     1  UNL1        0.1084
     14 C         -26.2500    2.9200   26.3950 C.2     1  UNL1        0.0918
     15 C         -25.6420    4.0930   27.1230 C.2     1  UNL1        0.2677
     16 N         -25.6140    5.2520   26.4490 N.am    1  UNL1       -0.1997
     17 C         -25.0260    6.4790   26.9630 C.3     1  UNL1        0.1388
     18 O         -25.1430    3.9660   28.2430 O.2     1  UNL1       -0.2683
     19 C         -27.4380    3.0910   25.6450 C.2     1  UNL1        0.1080
     20 N         -28.0750    2.0890   25.0030 N.2     1  UNL1       -0.2080
     21 C         -27.5430    0.8490   25.0790 C.2     1  UNL1        0.2546
     22 O         -28.1930   -0.2080   24.4770 O.2     1  UNL1       -0.4558
     23 C         -29.4600    0.0050   23.8660 C.3     1  UNL1        0.2426
     24 C         -30.0650   -1.3770   23.5730 C.3     1  UNL1        0.2292
     25 O         -30.7290   -1.8780   24.7210 O.3     1  UNL1       -0.2162
     26 C         -26.3540    0.5760   25.7770 C.2     1  UNL1        0.2082
     27 F         -25.8600   -0.6810   25.7950 F       1  UNL1       -0.1978
     28 C         -23.6643    1.1302   27.4477 C.2     1  UNL1        0.0801
     29 CL        -22.8210    2.3599   25.1837 Cl      1  UNL1       -0.0793
     30 C         -23.5941    0.4299   28.5810 C.2     1  UNL1        0.0131
     31 N         -30.5493    0.7314   29.8042 N.am    1  UNL1       -0.2593
     32 C         -31.9339    0.2452   32.3627 C.3     1  UNL1        0.1761
     33 C         -27.0979    1.5080   29.6395 C.3     1  UNL1        0.0021
     34 C         -21.3367    1.4632   27.3235 C.2     1  UNL1        0.1115
     35 O         -31.7022    1.4166   31.6159 O.3     1  UNL1       -0.3349
     36 C         -29.7956   -0.3528   27.6502 C.3     1  UNL1        0.0108
     37 O         -32.0754    2.3265   28.5779 O.2     1  UNL1       -0.2748
     38 C         -22.2617    0.1490   29.0738 C.2     1  UNL1        0.0959
     39 C         -31.1950    0.4750   27.4048 C.3     1  UNL1        0.0768
     40 C         -30.5028    1.3945   30.9480 C.3     1  UNL1        0.1942
     41 C         -22.5892    1.6187   26.6566 C.2     1  UNL1        0.0917
     42 C         -29.1376    0.1539   30.0392 C.3     1  UNL1        0.0775
     43 C         -28.4765    1.5427   30.1640 C.3     1  UNL1        0.0225
     44 C         -25.9704    0.9828   28.6533 C.3     1  UNL1        0.0049
     45 C         -31.4163    1.3670   28.6484 C.2     1  UNL1        0.2267
     46 C         -28.7185   -0.3525   28.7701 C.3     1  UNL1        0.0204
     47 C         -24.8577    0.0584   29.1291 C.3     1  UNL1        0.0305
     48 C         -29.3122    1.9201   31.2566 C.3     1  UNL1        0.0526
     49 N         -24.8293    1.3479   27.0262 N.pl3   1  UNL1       -0.2092
     50 C         -32.0780    1.1652   26.2785 C.3     1  UNL1        0.0096
     51 N         -21.2002    0.7771   28.4820 N.2     1  UNL1       -0.2417
@<TRIPOS>BOND
     1     1    47    1
     2     2     7    1
     3     2     1    1
     4     3     2    2
     5     4     3    1
     6     4     5    2
     7     5     6    1
     8     6     7    2
     9     8     1    1
    10     8     9    1
    11     8    12    1
    12     9    10    1
    13    10    11    1
    14    12    11    1
    15    13    49    1
    16    14    13    1
    17    14    15    1
    18    15    18    2
    19    16    17    1
    20    16    15    1
    21    19    14    2
    22    20    21    2
    23    20    19    1
    24    21    26    1
    25    22    21    1
    26    23    22    1
    27    24    23    1
    28    24    25    1
    29    26    27    1
    30    26    13    2
    31    28    30    1
    32    29    41    1
    33    30    38    2
    34    30    47    1
    35    31    42    1
    36    31    40    1
    37    34    51    2
    38    35    32    1
    39    36    46    1
    40    37    45    2
    41    39    50    1
    42    39    36    1
    43    39    45    1
    44    40    48    1
    45    40    35    1
    46    41    34    1
    47    41    28    2
    48    42    46    1
    49    42    43    1
    50    43    33    1
    51    43    48    1
    52    44    33    1
    53    45    31   am
    54    47    44    1
    55    49    28    1
    56    51    38    1
