@<TRIPOS>MOLECULE
No_2710-gen_results/8p0m/2024-11-27-11-27-31/
 12 13 0 0 0
SMALL
GASTEIGER

@<TRIPOS>ATOM
      1 O         -28.1229   -1.3353   28.4874 O.2     1  UNL1       -0.2745
      2 C         -27.4806   -0.4044   28.7094 C.2     1  UNL1        0.2304
      3 C         -26.3804   -0.0867   27.9394 C.3     1  UNL1        0.1113
      4 N         -27.4232    0.1749   30.0549 N.am    1  UNL1       -0.2734
      5 C         -25.8482    1.0048   27.9942 C.ar    1  UNL1       -0.0154
      6 C         -24.7250    1.4898   27.1703 C.ar    1  UNL1       -0.0040
      7 C         -23.7604    2.3802   27.6117 C.ar    1  UNL1       -0.0003
      8 C         -24.0257    2.9464   28.8409 C.ar    1  UNL1       -0.0003
      9 C         -24.9847    2.5461   29.7256 C.ar    1  UNL1       -0.0029
     10 C         -25.7931    1.5005   29.3000 C.ar    1  UNL1       -0.0058
     11 C         -26.7208    1.0841   30.2956 C.3     1  UNL1        0.1199
     12 C         -28.4975   -0.4584   30.9340 C.3     1  UNL1        0.1152
@<TRIPOS>BOND
     1     1     2    2
     2     2     3    1
     3     2     4   am
     4     3     5    1
     5     4    11    1
     6    10    11    1
     7     4    12    1
     8     5     6   ar
     9     6     7   ar
    10     7     8   ar
    11     8     9   ar
    12     9    10   ar
    13    10     5   ar
