@<TRIPOS>MOLECULE
outputs/IAG933/test6/raw/output_2711_IAG933_linker_design_.xyz
 44 48 0 0 0
SMALL
GASTEIGER

@<TRIPOS>ATOM
      1 C         -24.8550   -1.0120   30.1430 C.3     1  UNL1        0.0698
      2 C         -24.9730   -2.5050   29.7880 C.2     1  UNL1       -0.0184
      3 C         -23.9060   -3.1730   29.1460 C.2     1  UNL1       -0.0041
      4 C         -23.9890   -4.5490   28.8530 C.2     1  UNL1       -0.0003
      5 C         -25.1370   -5.2800   29.2050 C.2     1  UNL1       -0.0000
      6 C         -26.2320   -4.6110   29.7840 C.2     1  UNL1       -0.0003
      7 C         -26.1550   -3.2320   30.0650 C.2     1  UNL1       -0.0041
      8 C         -25.3870   -0.6790   31.5710 C.3     1  UNL1        0.0795
      9 C         -25.1890    0.7730   32.0280 C.3     1  UNL1        0.0193
     10 C         -25.3360    0.6840   33.5440 C.3     1  UNL1        0.0202
     11 C         -24.8290   -0.7150   33.9050 C.3     1  UNL1        0.0887
     12 N         -24.7580   -1.4810   32.6460 N.3     1  UNL1       -0.2190
     13 C         -25.6880    1.6140   26.4610 C.3     1  UNL1        0.1009
     14 C         -26.2500    2.9200   26.3950 C.2     1  UNL1        0.0551
     15 C         -25.6420    4.0930   27.1230 C.2     1  UNL1        0.2179
     16 N         -25.6140    5.2520   26.4490 N.2     1  UNL1       -0.2359
     17 C         -25.0260    6.4790   26.9630 C.3     1  UNL1        0.1550
     18 O         -25.1430    3.9660   28.2430 O.2     1  UNL1       -0.4619
     19 C         -27.4380    3.0910   25.6450 C.2     1  UNL1        0.1023
     20 N         -28.0750    2.0890   25.0030 N.2     1  UNL1       -0.2119
     21 C         -27.5430    0.8490   25.0790 C.2     1  UNL1        0.2342
     22 O         -28.1930   -0.2080   24.4770 O.2     1  UNL1       -0.4585
     23 C         -29.4600    0.0050   23.8660 C.3     1  UNL1        0.2423
     24 C         -30.0650   -1.3770   23.5730 C.3     1  UNL1        0.2292
     25 O         -30.7290   -1.8780   24.7210 O.3     1  UNL1       -0.2162
     26 C         -26.3540    0.5760   25.7770 C.3     1  UNL1        0.2425
     27 F         -25.8600   -0.6810   25.7950 F       1  UNL1       -0.2268
     28 C         -22.9320    2.2623   25.3868 C.3     1  UNL1        0.3914
     29 O         -22.9580    2.5563   26.6449 O.2     1  UNL1       -0.4452
     30 C         -24.7641    2.8085   30.1572 C.3     1  UNL1        0.0462
     31 C         -24.9337    2.6299   28.5838 C.3     1  UNL1        0.1948
     32 O         -22.7805    1.7395   24.4303 O.3     1  UNL1       -0.1671
     33 C         -20.8678   -0.1349   28.7993 C.3     1  UNL1        0.1383
     34 N         -20.2760    0.8024   28.1660 N.pl3   1  UNL1       -0.2284
     35 C         -24.5081    0.2346   29.3147 C.3     1  UNL1        0.1454
     36 C         -22.4274    1.5481   27.4903 C.2     1  UNL1        0.1556
     37 C         -22.0420   -0.3174   29.2930 C.2     1  UNL1       -0.0018
     38 C         -23.0623    0.4482   28.7482 C.2     1  UNL1        0.0378
     39 C         -24.7316    4.4377   32.0997 C.3     1  UNL1        0.0001
     40 C         -21.0909    1.5702   27.5230 C.2     1  UNL1        0.1171
     41 C         -24.9988    1.2925   27.5936 C.3     1  UNL1        0.1626
     42 C         -25.0482    4.2197   30.6620 C.3     1  UNL1        0.0038
     43 C         -25.4339    5.5413   32.6630 C.3     1  UNL1        0.0000
     44 O         -25.2446   -0.0309   28.2104 O.3     1  UNL1       -0.3497
@<TRIPOS>BOND
     1     1    35    1
     2     2     7    1
     3     2     1    1
     4     3     2    2
     5     4     3    1
     6     4     5    2
     7     5     6    1
     8     6     7    2
     9     8     1    1
    10     8     9    1
    11     8    12    1
    12     9    10    1
    13    10    11    1
    14    12    11    1
    15    13    14    1
    16    13    41    1
    17    14    15    1
    18    15    18    1
    19    16    17    1
    20    16    15    2
    21    18    31    1
    22    19    14    2
    23    20    21    2
    24    20    19    1
    25    21    26    1
    26    22    21    1
    27    23    22    1
    28    24    23    1
    29    24    25    1
    30    26    27    1
    31    26    13    1
    32    28    29    1
    33    29    36    1
    34    30    42    1
    35    31    30    1
    36    32    28    1
    37    33    37    1
    38    34    33    1
    39    35    44    1
    40    36    40    2
    41    36    38    1
    42    38    37    2
    43    38    35    1
    44    39    43    1
    45    40    34    1
    46    41    44    1
    47    41    31    1
    48    42    39    1
