@<TRIPOS>MOLECULE
No_2712-gen_results/8p0m/2024-11-27-11-27-31/
 17 17 0 0 0
SMALL
GASTEIGER

@<TRIPOS>ATOM
      1 C         -28.0162   -0.8135   28.8779 C.ar    1  UNL1        0.0105
      2 C         -28.4690   -0.7850   29.8287 C.ar    1  UNL1        0.0343
      3 C         -27.0871    0.2903   28.6377 C.ar    1  UNL1        0.0717
      4 C         -26.2516    0.4114   27.4223 C.3     1  UNL1        0.4186
      5 C         -28.3913    0.1041   30.9805 C.ar    1  UNL1        0.0043
      6 C         -27.5332    1.1666   30.7866 C.ar    1  UNL1        0.0025
      7 C         -26.8281    1.2557   29.6454 C.ar    1  UNL1        0.0015
      8 F         -26.4955   -0.2382   26.5458 F       1  UNL1       -0.1659
      9 F         -24.9921    0.2883   27.7427 F       1  UNL1       -0.1659
     10 F         -26.2881    1.7595   26.9323 F       1  UNL1       -0.1659
     11 BR        -29.6018   -2.3967   30.1177 Br      1  UNL1       -0.0490
     12 C         -27.3428    2.2063   31.8455 C.3     1  UNL1        0.1519
     13 N         -27.5048    3.3006   31.7015 N.2     1  UNL1       -0.2641
     14 C         -26.9999    4.3139   32.2862 C.2     1  UNL1        0.0932
     15 C         -27.1314    5.7375   31.8743 C.2     1  UNL1        0.0156
     16 C         -27.6837    5.9271   30.6895 C.2     1  UNL1       -0.0242
     17 C         -28.1651    4.8338   29.9523 C.3     1  UNL1        0.0307
@<TRIPOS>BOND
     1     3     4    1
     2     4     8    1
     3     4     9    1
     4     4    10    1
     5     2    11    1
     6     6    12    1
     7    12    13    1
     8    13    14    2
     9    14    15    1
    10    15    16    2
    11    16    17    1
    12     1     2   ar
    13     2     5   ar
    14     5     6   ar
    15     6     7   ar
    16     7     3   ar
    17     3     1   ar
