@<TRIPOS>MOLECULE
outputs/IAG933/test6/raw/output_2714_IAG933_linker_design_.xyz
 43 49 0 0 0
SMALL
GASTEIGER

@<TRIPOS>ATOM
      1 C         -24.8550   -1.0120   30.1430 C.3     1  UNL1        0.0972
      2 C         -24.9730   -2.5050   29.7880 C.2     1  UNL1       -0.0064
      3 C         -23.9060   -3.1730   29.1460 C.2     1  UNL1       -0.0029
      4 C         -23.9890   -4.5490   28.8530 C.2     1  UNL1       -0.0003
      5 C         -25.1370   -5.2800   29.2050 C.2     1  UNL1       -0.0000
      6 C         -26.2320   -4.6110   29.7840 C.2     1  UNL1       -0.0003
      7 C         -26.1550   -3.2320   30.0650 C.2     1  UNL1       -0.0029
      8 C         -25.3870   -0.6790   31.5710 C.3     1  UNL1        0.0916
      9 C         -25.1890    0.7730   32.0280 C.3     1  UNL1        0.0206
     10 C         -25.3360    0.6840   33.5440 C.3     1  UNL1        0.0203
     11 C         -24.8290   -0.7150   33.9050 C.3     1  UNL1        0.0888
     12 N         -24.7580   -1.4810   32.6460 N.3     1  UNL1       -0.2178
     13 C         -25.6880    1.6140   26.4610 C.2     1  UNL1        0.0331
     14 C         -26.2500    2.9200   26.3950 C.2     1  UNL1        0.0739
     15 C         -25.6420    4.0930   27.1230 C.2     1  UNL1        0.2662
     16 N         -25.6140    5.2520   26.4490 N.am    1  UNL1       -0.1997
     17 C         -25.0260    6.4790   26.9630 C.3     1  UNL1        0.1388
     18 O         -25.1430    3.9660   28.2430 O.2     1  UNL1       -0.2683
     19 C         -27.4380    3.0910   25.6450 C.2     1  UNL1        0.1065
     20 N         -28.0750    2.0890   25.0030 N.2     1  UNL1       -0.2081
     21 C         -27.5430    0.8490   25.0790 C.2     1  UNL1        0.2530
     22 O         -28.1930   -0.2080   24.4770 O.2     1  UNL1       -0.4558
     23 C         -29.4600    0.0050   23.8660 C.3     1  UNL1        0.2426
     24 C         -30.0650   -1.3770   23.5730 C.3     1  UNL1        0.2292
     25 O         -30.7290   -1.8780   24.7210 O.3     1  UNL1       -0.2162
     26 C         -26.3540    0.5760   25.7770 C.2     1  UNL1        0.1905
     27 F         -25.8600   -0.6810   25.7950 F       1  UNL1       -0.1995
     28 C         -27.0318    1.7650   29.5879 C.3     1  UNL1        0.1257
     29 O         -21.1133    0.8381   27.8493 O.3     1  UNL1       -0.3378
     30 C         -24.4400    1.1301   28.9643 C.3     1  UNL1        0.1154
     31 O         -27.8479   -0.5996   29.4090 O.3     1  UNL1       -0.2034
     32 N         -23.1680    1.5418   26.6329 N.3     1  UNL1       -0.1878
     33 C         -22.9730    1.8537   29.4735 C.3     1  UNL1        0.0644
     34 C         -21.9109    0.9692   28.6079 C.3     1  UNL1        0.1509
     35 C         -22.5847   -0.3100   29.3874 C.3     1  UNL1        0.1048
     36 C         -24.3269    1.3563   27.2130 C.3     1  UNL1        0.1171
     37 N         -24.0282   -0.1493   29.3502 N.3     1  UNL1       -0.2559
     38 F         -21.6626    1.8670   25.0852 F       1  UNL1       -0.1791
     39 F         -23.6412    1.3127   24.4848 F       1  UNL1       -0.1791
     40 C         -21.9606    1.8142   27.4780 C.3     1  UNL1        0.2069
     41 C         -22.8521    1.6365   25.3849 C.3     1  UNL1        0.3862
     42 C         -27.3344    0.3498   29.0703 C.3     1  UNL1        0.2298
     43 N         -26.0386    0.9339   29.2353 N.3     1  UNL1       -0.2320
@<TRIPOS>BOND
     1     1     2    1
     2     2     7    1
     3     3     2    2
     4     4     3    1
     5     4     5    2
     6     5     6    1
     7     6     7    2
     8     8     1    1
     9     8     9    1
    10     8    12    1
    11     9    10    1
    12    10    11    1
    13    12    11    1
    14    14    13    1
    15    14    15    1
    16    15    18    2
    17    16    17    1
    18    16    15    1
    19    19    14    2
    20    20    21    2
    21    20    19    1
    22    21    26    1
    23    22    21    1
    24    23    22    1
    25    24    23    1
    26    24    25    1
    27    26    27    1
    28    26    13    2
    29    29    34    1
    30    30    43    1
    31    30    37    1
    32    30    33    1
    33    32    36    1
    34    32    40    1
    35    34    35    1
    36    34    33    1
    37    36    13    1
    38    36    30    1
    39    37    35    1
    40    37     1    1
    41    38    41    1
    42    39    41    1
    43    40    29    1
    44    40    34    1
    45    41    32    1
    46    42    43    1
    47    42    31    1
    48    42    28    1
    49    43    28    1
