@<TRIPOS>MOLECULE
No_2717-gen_results/8p0m/2024-11-27-11-27-31/
 14 15 0 0 0
SMALL
GASTEIGER

@<TRIPOS>ATOM
      1 C         -28.0162   -0.8135   28.8779 C.ar    1  UNL1        0.0988
      2 C         -27.0636   -0.1189   28.6079 C.ar    1  UNL1        0.0192
      3 C         -25.7923   -0.4302   29.0761 C.ar    1  UNL1        0.0030
      4 C         -24.5456    0.3494   28.8225 C.ar    1  UNL1        0.0039
      5 C         -24.6586    1.4196   27.8878 C.ar    1  UNL1        0.0714
      6 C         -25.9471    1.6811   27.3792 C.ar    1  UNL1        0.0039
      7 C         -27.0439    0.9739   27.6871 C.ar    1  UNL1        0.0015
      8 N         -27.9517   -1.7518   29.9375 N.ar    1  UNL1       -0.2423
      9 C         -26.7159   -2.1983   30.3723 C.ar    1  UNL1        0.0989
     10 C         -25.5700   -1.4970   30.0389 C.ar    1  UNL1        0.0207
     11 C         -23.4588    2.1920   27.5546 C.3     1  UNL1        0.4186
     12 F         -23.6185    2.9840   26.7040 F       1  UNL1       -0.1659
     13 F         -22.9828    2.8919   28.6270 F       1  UNL1       -0.1659
     14 F         -22.3771    1.3962   27.2662 F       1  UNL1       -0.1659
@<TRIPOS>BOND
     1     5    11    1
     2    11    12    1
     3    11    13    1
     4    11    14    1
     5     3     4   ar
     6     4     5   ar
     7     5     6   ar
     8     6     7   ar
     9     7     2   ar
    10     1     2   ar
    11     2     3   ar
    12     3    10   ar
    13    10     9   ar
    14     9     8   ar
    15     8     1   ar
