@<TRIPOS>MOLECULE
outputs/IAG933/test6/raw/output_2718_IAG933_linker_design_.xyz
 41 44 0 0 0
SMALL
GASTEIGER

@<TRIPOS>ATOM
      1 C         -24.8550   -1.0120   30.1430 C.3     1  UNL1        0.0529
      2 C         -24.9730   -2.5050   29.7880 C.2     1  UNL1       -0.0203
      3 C         -23.9060   -3.1730   29.1460 C.2     1  UNL1       -0.0042
      4 C         -23.9890   -4.5490   28.8530 C.2     1  UNL1       -0.0003
      5 C         -25.1370   -5.2800   29.2050 C.2     1  UNL1       -0.0000
      6 C         -26.2320   -4.6110   29.7840 C.2     1  UNL1       -0.0003
      7 C         -26.1550   -3.2320   30.0650 C.2     1  UNL1       -0.0042
      8 C         -25.3870   -0.6790   31.5710 C.3     1  UNL1        0.0777
      9 C         -25.1890    0.7730   32.0280 C.3     1  UNL1        0.0192
     10 C         -25.3360    0.6840   33.5440 C.3     1  UNL1        0.0202
     11 C         -24.8290   -0.7150   33.9050 C.3     1  UNL1        0.0887
     12 N         -24.7580   -1.4810   32.6460 N.3     1  UNL1       -0.2191
     13 C         -25.6880    1.6140   26.4610 C.3     1  UNL1        0.0941
     14 C         -26.2500    2.9200   26.3950 C.2     1  UNL1        0.0589
     15 C         -25.6420    4.0930   27.1230 C.2     1  UNL1        0.2628
     16 N         -25.6140    5.2520   26.4490 N.am    1  UNL1       -0.2000
     17 C         -25.0260    6.4790   26.9630 C.3     1  UNL1        0.1388
     18 O         -25.1430    3.9660   28.2430 O.2     1  UNL1       -0.2686
     19 C         -27.4380    3.0910   25.6450 C.2     1  UNL1        0.1025
     20 N         -28.0750    2.0890   25.0030 N.2     1  UNL1       -0.2118
     21 C         -27.5430    0.8490   25.0790 C.2     1  UNL1        0.2344
     22 O         -28.1930   -0.2080   24.4770 O.2     1  UNL1       -0.4585
     23 C         -29.4600    0.0050   23.8660 C.3     1  UNL1        0.2423
     24 C         -30.0650   -1.3770   23.5730 C.3     1  UNL1        0.2292
     25 O         -30.7290   -1.8780   24.7210 O.3     1  UNL1       -0.2162
     26 C         -26.3540    0.5760   25.7770 C.3     1  UNL1        0.2441
     27 F         -25.8600   -0.6810   25.7950 F       1  UNL1       -0.2265
     28 C         -21.2753   -0.1064   28.8522 C.3     1  UNL1        0.3528
     29 O         -27.2646    0.5996   29.5388 O.co2   1  UNL1       -0.2453
     30 C         -22.2663    0.6451   28.0887 C.3     1  UNL1        0.2487
     31 F         -21.9524   -0.3270   29.9111 F       1  UNL1       -0.1966
     32 O         -21.5029    1.3830   27.2416 O.2     1  UNL1       -0.4640
     33 C         -24.2484    1.5068   26.8462 C.2     1  UNL1        0.0117
     34 O         -19.9093    0.1965   28.6590 O.3     1  UNL1       -0.1798
     35 C         -26.4289    0.0178   28.8401 C.2     1  UNL1        0.3685
     36 C         -23.7647    0.6809   28.0499 C.2     1  UNL1        0.0100
     37 F         -23.6682    2.8721   24.9815 F       1  UNL1       -0.2012
     38 C         -24.8622    0.0566   29.0007 C.3     1  UNL1        0.1303
     39 C         -23.2998    2.1361   25.9604 C.2     1  UNL1        0.1729
     40 C         -21.9381    2.0473   26.1922 C.2     1  UNL1        0.2019
     41 O         -26.7863   -0.8617   28.0166 O.co2   1  UNL1       -0.2453
@<TRIPOS>BOND
     1     1    38    1
     2     2     7    1
     3     2     1    1
     4     3     2    2
     5     4     3    1
     6     4     5    2
     7     5     6    1
     8     6     7    2
     9     8     1    1
    10     8     9    1
    11     8    12    1
    12     9    10    1
    13    10    11    1
    14    12    11    1
    15    13    33    1
    16    14    13    1
    17    14    15    1
    18    15    18    2
    19    16    17    1
    20    16    15    1
    21    19    14    2
    22    20    21    2
    23    20    19    1
    24    21    26    1
    25    22    21    1
    26    23    22    1
    27    24    23    1
    28    24    25    1
    29    26    27    1
    30    26    13    1
    31    28    34    1
    32    28    31    1
    33    30    28    1
    34    32    30    1
    35    33    36    2
    36    35    29   ar
    37    36    30    1
    38    36    38    1
    39    37    39    1
    40    38    35    1
    41    39    40    2
    42    39    33    1
    43    40    32    1
    44    41    35   ar
