@<TRIPOS>MOLECULE
outputs/IAG933/test6/raw/output_2719_IAG933_linker_design_.xyz
 44 48 0 0 0
SMALL
GASTEIGER

@<TRIPOS>ATOM
      1 C         -24.8550   -1.0120   30.1430 C.3     1  UNL1        0.0544
      2 C         -24.9730   -2.5050   29.7880 C.2     1  UNL1       -0.0198
      3 C         -23.9060   -3.1730   29.1460 C.2     1  UNL1       -0.0042
      4 C         -23.9890   -4.5490   28.8530 C.2     1  UNL1       -0.0003
      5 C         -25.1370   -5.2800   29.2050 C.2     1  UNL1       -0.0000
      6 C         -26.2320   -4.6110   29.7840 C.2     1  UNL1       -0.0003
      7 C         -26.1550   -3.2320   30.0650 C.2     1  UNL1       -0.0042
      8 C         -25.3870   -0.6790   31.5710 C.3     1  UNL1        0.0782
      9 C         -25.1890    0.7730   32.0280 C.3     1  UNL1        0.0192
     10 C         -25.3360    0.6840   33.5440 C.3     1  UNL1        0.0202
     11 C         -24.8290   -0.7150   33.9050 C.3     1  UNL1        0.0887
     12 N         -24.7580   -1.4810   32.6460 N.3     1  UNL1       -0.2191
     13 C         -25.6880    1.6140   26.4610 C.3     1  UNL1        0.0865
     14 C         -26.2500    2.9200   26.3950 C.2     1  UNL1        0.0561
     15 C         -25.6420    4.0930   27.1230 C.2     1  UNL1        0.2625
     16 N         -25.6140    5.2520   26.4490 N.am    1  UNL1       -0.2000
     17 C         -25.0260    6.4790   26.9630 C.3     1  UNL1        0.1388
     18 O         -25.1430    3.9660   28.2430 O.2     1  UNL1       -0.2687
     19 C         -27.4380    3.0910   25.6450 C.2     1  UNL1        0.1022
     20 N         -28.0750    2.0890   25.0030 N.2     1  UNL1       -0.2119
     21 C         -27.5430    0.8490   25.0790 C.2     1  UNL1        0.2341
     22 O         -28.1930   -0.2080   24.4770 O.2     1  UNL1       -0.4585
     23 C         -29.4600    0.0050   23.8660 C.3     1  UNL1        0.2423
     24 C         -30.0650   -1.3770   23.5730 C.3     1  UNL1        0.2292
     25 O         -30.7290   -1.8780   24.7210 O.3     1  UNL1       -0.2162
     26 C         -26.3540    0.5760   25.7770 C.3     1  UNL1        0.2412
     27 F         -25.8600   -0.6810   25.7950 F       1  UNL1       -0.2269
     28 C         -22.7240    0.7503   28.9828 C.3     1  UNL1        0.0186
     29 C         -24.2296    1.2773   26.8786 C.3     1  UNL1        0.1032
     30 C         -24.0669    1.5598   28.2122 C.3     1  UNL1        0.0881
     31 C         -27.0287   -0.6166   28.5065 C.3     1  UNL1        0.0473
     32 C         -29.8952   -0.2724   30.8551 C.3     1  UNL1        0.0618
     33 C         -28.3002   -0.1555   29.1889 C.3     1  UNL1        0.1168
     34 O         -29.5121   -0.6392   28.5166 O.3     1  UNL1       -0.3560
     35 C         -30.4330   -1.0048   29.5842 C.3     1  UNL1        0.1470
     36 C         -31.8835   -0.4534   29.6849 C.3     1  UNL1        0.1716
     37 C         -22.0399    0.6877   27.7723 C.3     1  UNL1        0.0015
     38 C         -21.1081    1.7803   27.4159 C.3     1  UNL1        0.0000
     39 C         -25.7150   -0.2024   29.1902 C.3     1  UNL1        0.0805
     40 N         -25.3859    1.1482   28.9531 N.3     1  UNL1       -0.2192
     41 CL        -23.1925    1.9605   25.5715 Cl      1  UNL1       -0.1131
     42 O         -32.1085   -0.4933   31.1535 O.3     1  UNL1       -0.3511
     43 C         -28.4369   -0.6673   30.6454 C.3     1  UNL1        0.0346
     44 C         -30.8814   -0.8309   31.8737 C.3     1  UNL1        0.1448
@<TRIPOS>BOND
     1     1    39    1
     2     2     7    1
     3     2     1    1
     4     3     2    2
     5     4     3    1
     6     4     5    2
     7     5     6    1
     8     6     7    2
     9     8     1    1
    10     8     9    1
    11     8    12    1
    12     9    10    1
    13    10    11    1
    14    12    11    1
    15    13    29    1
    16    14    13    1
    17    14    15    1
    18    15    18    2
    19    16    17    1
    20    16    15    1
    21    19    14    2
    22    20    21    2
    23    20    19    1
    24    21    26    1
    25    22    21    1
    26    23    22    1
    27    24    23    1
    28    24    25    1
    29    26    27    1
    30    26    13    1
    31    29    41    1
    32    29    30    1
    33    30    40    1
    34    30    28    1
    35    32    43    1
    36    32    44    1
    37    33    31    1
    38    33    43    1
    39    34    33    1
    40    34    35    1
    41    35    36    1
    42    35    32    1
    43    36    42    1
    44    37    28    1
    45    38    37    1
    46    39    31    1
    47    40    39    1
    48    42    44    1
