@<TRIPOS>MOLECULE
outputs/IAG933/test6/raw/output_2721_IAG933_linker_design_.xyz
 45 48 0 0 0
SMALL
GASTEIGER

@<TRIPOS>ATOM
      1 C         -24.8550   -1.0120   30.1430 C.3     1  UNL1        0.0444
      2 C         -24.9730   -2.5050   29.7880 C.2     1  UNL1       -0.0209
      3 C         -23.9060   -3.1730   29.1460 C.2     1  UNL1       -0.0042
      4 C         -23.9890   -4.5490   28.8530 C.2     1  UNL1       -0.0003
      5 C         -25.1370   -5.2800   29.2050 C.2     1  UNL1       -0.0000
      6 C         -26.2320   -4.6110   29.7840 C.2     1  UNL1       -0.0003
      7 C         -26.1550   -3.2320   30.0650 C.2     1  UNL1       -0.0042
      8 C         -25.3870   -0.6790   31.5710 C.3     1  UNL1        0.0770
      9 C         -25.1890    0.7730   32.0280 C.3     1  UNL1        0.0192
     10 C         -25.3360    0.6840   33.5440 C.3     1  UNL1        0.0202
     11 C         -24.8290   -0.7150   33.9050 C.3     1  UNL1        0.0887
     12 N         -24.7580   -1.4810   32.6460 N.3     1  UNL1       -0.2191
     13 C         -25.6880    1.6140   26.4610 C.2     1  UNL1        0.0938
     14 C         -26.2500    2.9200   26.3950 C.2     1  UNL1        0.0903
     15 C         -25.6420    4.0930   27.1230 C.2     1  UNL1        0.2676
     16 N         -25.6140    5.2520   26.4490 N.am    1  UNL1       -0.1997
     17 C         -25.0260    6.4790   26.9630 C.3     1  UNL1        0.1388
     18 O         -25.1430    3.9660   28.2430 O.2     1  UNL1       -0.2683
     19 C         -27.4380    3.0910   25.6450 C.2     1  UNL1        0.1080
     20 N         -28.0750    2.0890   25.0030 N.2     1  UNL1       -0.2080
     21 C         -27.5430    0.8490   25.0790 C.2     1  UNL1        0.2546
     22 O         -28.1930   -0.2080   24.4770 O.2     1  UNL1       -0.4558
     23 C         -29.4600    0.0050   23.8660 C.3     1  UNL1        0.2426
     24 C         -30.0650   -1.3770   23.5730 C.3     1  UNL1        0.2292
     25 O         -30.7290   -1.8780   24.7210 O.3     1  UNL1       -0.2162
     26 C         -26.3540    0.5760   25.7770 C.2     1  UNL1        0.2067
     27 F         -25.8600   -0.6810   25.7950 F       1  UNL1       -0.1979
     28 N         -24.4380    1.4419   27.0329 N.am    1  UNL1       -0.2316
     29 N         -23.0023    0.4824   28.8970 N.3     1  UNL1       -0.1854
     30 O         -28.1313   -0.4947   29.1587 O.3     1  UNL1       -0.2230
     31 C         -27.1038    4.1685   30.1665 C.3     1  UNL1        0.1847
     32 O         -23.3168    2.4120   25.1909 O.2     1  UNL1       -0.2670
     33 C         -24.3741    0.6922   28.3132 C.3     1  UNL1        0.1962
     34 O         -23.1443    1.5464   29.8290 O.3     1  UNL1       -0.0825
     35 C         -23.2305    1.8400   26.3325 C.2     1  UNL1        0.2834
     36 O         -30.5627    3.4252   30.7158 O.3     1  UNL1       -0.2203
     37 F         -21.0224    1.7630   25.8402 F       1  UNL1       -0.1977
     38 C         -27.0569    0.5261   29.1396 C.3     1  UNL1        0.1561
     39 O         -25.8030    3.3162   30.5273 O.3     1  UNL1       -0.2203
     40 C         -21.7380    1.0007   28.0999 C.2     1  UNL1        0.1388
     41 C         -27.8925    1.6137   29.8299 C.3     1  UNL1        0.0383
     42 C         -25.5158   -0.0704   29.0093 C.3     1  UNL1        0.0783
     43 C         -28.1844    3.0507   29.8123 C.3     1  UNL1        0.0685
     44 C         -22.0314    1.5596   26.7672 C.2     1  UNL1        0.2129
     45 C         -29.1817    3.5192   30.8294 C.3     1  UNL1        0.1847
@<TRIPOS>BOND
     1     1    42    1
     2     2     7    1
     3     2     1    1
     4     3     2    2
     5     4     3    1
     6     4     5    2
     7     5     6    1
     8     6     7    2
     9     8     1    1
    10     8     9    1
    11     8    12    1
    12     9    10    1
    13    10    11    1
    14    12    11    1
    15    13    28    1
    16    14    13    1
    17    14    15    1
    18    15    18    2
    19    16    17    1
    20    16    15    1
    21    19    14    2
    22    20    21    2
    23    20    19    1
    24    21    26    1
    25    22    21    1
    26    23    22    1
    27    24    23    1
    28    24    25    1
    29    26    27    1
    30    26    13    2
    31    28    33    1
    32    29    34    1
    33    31    39    1
    34    32    35    2
    35    33    29    1
    36    33    42    1
    37    35    44    1
    38    35    28   am
    39    36    45    1
    40    37    44    1
    41    38    30    1
    42    38    41    1
    43    40    29    1
    44    42    38    1
    45    43    41    1
    46    43    31    1
    47    43    45    1
    48    44    40    2
