@<TRIPOS>MOLECULE
outputs/IAG933/test6/raw/output_2722_IAG933_linker_design_.xyz
 48 53 0 0 0
SMALL
GASTEIGER

@<TRIPOS>ATOM
      1 C         -24.8550   -1.0120   30.1430 C.3     1  UNL1        0.0483
      2 C         -24.9730   -2.5050   29.7880 C.2     1  UNL1       -0.0203
      3 C         -23.9060   -3.1730   29.1460 C.2     1  UNL1       -0.0042
      4 C         -23.9890   -4.5490   28.8530 C.2     1  UNL1       -0.0003
      5 C         -25.1370   -5.2800   29.2050 C.2     1  UNL1       -0.0000
      6 C         -26.2320   -4.6110   29.7840 C.2     1  UNL1       -0.0003
      7 C         -26.1550   -3.2320   30.0650 C.2     1  UNL1       -0.0042
      8 C         -25.3870   -0.6790   31.5710 C.3     1  UNL1        0.0776
      9 C         -25.1890    0.7730   32.0280 C.3     1  UNL1        0.0192
     10 C         -25.3360    0.6840   33.5440 C.3     1  UNL1        0.0202
     11 C         -24.8290   -0.7150   33.9050 C.3     1  UNL1        0.0887
     12 N         -24.7580   -1.4810   32.6460 N.3     1  UNL1       -0.2191
     13 C         -25.6880    1.6140   26.4610 C.2     1  UNL1        0.0156
     14 C         -26.2500    2.9200   26.3950 C.2     1  UNL1        0.0726
     15 C         -25.6420    4.0930   27.1230 C.2     1  UNL1        0.2661
     16 N         -25.6140    5.2520   26.4490 N.am    1  UNL1       -0.1997
     17 C         -25.0260    6.4790   26.9630 C.3     1  UNL1        0.1388
     18 O         -25.1430    3.9660   28.2430 O.2     1  UNL1       -0.2683
     19 C         -27.4380    3.0910   25.6450 C.2     1  UNL1        0.1064
     20 N         -28.0750    2.0890   25.0030 N.2     1  UNL1       -0.2081
     21 C         -27.5430    0.8490   25.0790 C.2     1  UNL1        0.2530
     22 O         -28.1930   -0.2080   24.4770 O.2     1  UNL1       -0.4558
     23 C         -29.4600    0.0050   23.8660 C.3     1  UNL1        0.2426
     24 C         -30.0650   -1.3770   23.5730 C.3     1  UNL1        0.2292
     25 O         -30.7290   -1.8780   24.7210 O.3     1  UNL1       -0.2162
     26 C         -26.3540    0.5760   25.7770 C.2     1  UNL1        0.1891
     27 F         -25.8600   -0.6810   25.7950 F       1  UNL1       -0.1996
     28 C         -29.7467    0.0949   28.0522 C.3     1  UNL1        0.0062
     29 N         -31.8661    2.3590   27.8530 N.3     1  UNL1       -0.2707
     30 C         -29.7156    1.1560   29.1903 C.3     1  UNL1        0.0550
     31 C         -24.6099    1.2480   27.1889 C.3     1  UNL1        0.0257
     32 C         -29.3945    2.1964   31.6178 C.3     1  UNL1        0.2352
     33 C         -23.0707    0.2582   28.9085 C.3     1  UNL1        0.0012
     34 C         -31.3770    1.4174   26.9325 C.3     1  UNL1        0.0722
     35 C         -23.3598    1.5438   26.3472 C.3     1  UNL1        0.0045
     36 C         -31.1733    0.0220   27.4890 C.3     1  UNL1        0.0175
     37 C         -28.6501    0.8195   30.1919 C.3     1  UNL1        0.1247
     38 C         -30.7054    2.0764   29.8370 C.3     1  UNL1        0.1350
     39 C         -21.9039    0.9457   28.0956 C.3     1  UNL1        0.0000
     40 C         -32.0731    2.1577   29.2725 C.3     1  UNL1        0.1021
     41 O         -30.3369    2.7638   30.8832 O.3     1  UNL1       -0.3374
     42 C         -22.3094    2.0229   27.2552 C.3     1  UNL1        0.0003
     43 C         -25.5505   -0.2285   28.9842 C.3     1  UNL1        0.0546
     44 S         -27.3530   -0.0754   29.3694 S.3     1  UNL1       -0.1239
     45 C         -24.5462    0.7083   28.4975 C.3     1  UNL1        0.0145
     46 C         -33.0702    3.0665   27.4619 C.3     1  UNL1        0.0722
     47 C         -32.7794    3.8845   26.2121 C.3     1  UNL1        0.0188
     48 N         -28.9145    1.0060   31.3124 N.3     1  UNL1       -0.1788
@<TRIPOS>BOND
     1     1    43    1
     2     2     7    1
     3     2     1    1
     4     3     2    2
     5     4     3    1
     6     4     5    2
     7     5     6    1
     8     6     7    2
     9     8     1    1
    10     8     9    1
    11     8    12    1
    12     9    10    1
    13    10    11    1
    14    12    11    1
    15    14    13    1
    16    14    15    1
    17    15    18    2
    18    16    17    1
    19    16    15    1
    20    19    14    2
    21    20    21    2
    22    20    19    1
    23    21    26    1
    24    22    21    1
    25    23    22    1
    26    24    23    1
    27    24    25    1
    28    26    27    1
    29    26    13    2
    30    29    40    1
    31    30    28    1
    32    30    38    1
    33    30    37    1
    34    31    13    1
    35    31    45    1
    36    34    36    1
    37    34    29    1
    38    35    31    1
    39    35    42    1
    40    36    28    1
    41    37    44    1
    42    37    48    1
    43    38    40    1
    44    38    41    1
    45    39    33    1
    46    41    32    1
    47    42    39    1
    48    43    44    1
    49    45    33    1
    50    45    43    1
    51    46    29    1
    52    47    46    1
    53    48    32    1
