@<TRIPOS>MOLECULE
outputs/IAG933/test6/raw/output_2726_IAG933_linker_design_.xyz
 42 46 0 0 0
SMALL
GASTEIGER

@<TRIPOS>ATOM
      1 C         -24.8550   -1.0120   30.1430 C.3     1  UNL1        0.0388
      2 C         -24.9730   -2.5050   29.7880 C.2     1  UNL1       -0.0211
      3 C         -23.9060   -3.1730   29.1460 C.2     1  UNL1       -0.0042
      4 C         -23.9890   -4.5490   28.8530 C.2     1  UNL1       -0.0003
      5 C         -25.1370   -5.2800   29.2050 C.2     1  UNL1       -0.0000
      6 C         -26.2320   -4.6110   29.7840 C.2     1  UNL1       -0.0003
      7 C         -26.1550   -3.2320   30.0650 C.2     1  UNL1       -0.0042
      8 C         -25.3870   -0.6790   31.5710 C.3     1  UNL1        0.0768
      9 C         -25.1890    0.7730   32.0280 C.3     1  UNL1        0.0192
     10 C         -25.3360    0.6840   33.5440 C.3     1  UNL1        0.0202
     11 C         -24.8290   -0.7150   33.9050 C.3     1  UNL1        0.0887
     12 N         -24.7580   -1.4810   32.6460 N.3     1  UNL1       -0.2191
     13 C         -25.6880    1.6140   26.4610 C.3     1  UNL1        0.0707
     14 C         -26.2500    2.9200   26.3950 C.2     1  UNL1        0.0548
     15 C         -25.6420    4.0930   27.1230 C.2     1  UNL1        0.2624
     16 N         -25.6140    5.2520   26.4490 N.am    1  UNL1       -0.2000
     17 C         -25.0260    6.4790   26.9630 C.3     1  UNL1        0.1388
     18 O         -25.1430    3.9660   28.2430 O.2     1  UNL1       -0.2687
     19 C         -27.4380    3.0910   25.6450 C.2     1  UNL1        0.1021
     20 N         -28.0750    2.0890   25.0030 N.2     1  UNL1       -0.2119
     21 C         -27.5430    0.8490   25.0790 C.2     1  UNL1        0.2341
     22 O         -28.1930   -0.2080   24.4770 O.2     1  UNL1       -0.4585
     23 C         -29.4600    0.0050   23.8660 C.3     1  UNL1        0.2423
     24 C         -30.0650   -1.3770   23.5730 C.3     1  UNL1        0.2292
     25 O         -30.7290   -1.8780   24.7210 O.3     1  UNL1       -0.2162
     26 C         -26.3540    0.5760   25.7770 C.3     1  UNL1        0.2400
     27 F         -25.8600   -0.6810   25.7950 F       1  UNL1       -0.2269
     28 O         -22.4575    0.3094   29.2955 O.3     1  UNL1       -0.2231
     29 O         -27.5504   -0.6074   28.4990 O.2     1  UNL1       -0.2749
     30 C         -22.3812    1.3224   28.4452 C.3     1  UNL1        0.1521
     31 C         -23.4638    1.0945   27.2510 C.3     1  UNL1        0.0338
     32 C         -28.2789    2.4283   30.4606 C.3     1  UNL1        0.0934
     33 C         -29.9310    3.4580   28.8525 C.3     1  UNL1        0.0035
     34 C         -24.8679    1.1615   27.8321 C.3     1  UNL1        0.0184
     35 C         -25.8647    1.1333   29.1351 C.3     1  UNL1        0.0776
     36 C         -24.9257   -0.0571   28.8370 C.3     1  UNL1        0.0149
     37 C         -28.9758    3.7883   30.0377 C.3     1  UNL1        0.0216
     38 C         -27.3702    0.5179   29.1041 C.2     1  UNL1        0.2252
     39 N         -28.4072    1.2151   29.6078 N.am    1  UNL1       -0.2795
     40 C         -21.2526    1.9044   27.6050 C.3     1  UNL1        0.0355
     41 C         -30.6320    2.1397   29.1894 C.3     1  UNL1        0.0216
     42 C         -29.7077    0.9413   28.9040 C.3     1  UNL1        0.0934
@<TRIPOS>BOND
     1     1     2    1
     2     2     7    1
     3     3     2    2
     4     4     3    1
     5     4     5    2
     6     5     6    1
     7     6     7    2
     8     8     1    1
     9     8     9    1
    10     8    12    1
    11     9    10    1
    12    10    11    1
    13    12    11    1
    14    13    14    1
    15    13    34    1
    16    14    15    1
    17    15    18    2
    18    16    17    1
    19    16    15    1
    20    19    14    2
    21    20    21    2
    22    20    19    1
    23    21    26    1
    24    22    21    1
    25    23    22    1
    26    24    23    1
    27    24    25    1
    28    26    27    1
    29    26    13    1
    30    29    38    2
    31    30    40    1
    32    30    28    1
    33    31    30    1
    34    33    41    1
    35    33    37    1
    36    34    31    1
    37    34    36    1
    38    34    35    1
    39    35    38    1
    40    36    35    1
    41    36     1    1
    42    37    32    1
    43    38    39   am
    44    39    32    1
    45    42    41    1
    46    42    39    1
