@<TRIPOS>MOLECULE
outputs/IAG933/test6/raw/output_2727_IAG933_linker_design_.xyz
 44 48 0 0 0
SMALL
GASTEIGER

@<TRIPOS>ATOM
      1 C         -24.8550   -1.0120   30.1430 C.3     1  UNL1        0.0439
      2 C         -24.9730   -2.5050   29.7880 C.2     1  UNL1       -0.0208
      3 C         -23.9060   -3.1730   29.1460 C.2     1  UNL1       -0.0042
      4 C         -23.9890   -4.5490   28.8530 C.2     1  UNL1       -0.0003
      5 C         -25.1370   -5.2800   29.2050 C.2     1  UNL1       -0.0000
      6 C         -26.2320   -4.6110   29.7840 C.2     1  UNL1       -0.0003
      7 C         -26.1550   -3.2320   30.0650 C.2     1  UNL1       -0.0042
      8 C         -25.3870   -0.6790   31.5710 C.3     1  UNL1        0.0772
      9 C         -25.1890    0.7730   32.0280 C.3     1  UNL1        0.0192
     10 C         -25.3360    0.6840   33.5440 C.3     1  UNL1        0.0202
     11 C         -24.8290   -0.7150   33.9050 C.3     1  UNL1        0.0887
     12 N         -24.7580   -1.4810   32.6460 N.3     1  UNL1       -0.2191
     13 C         -25.6880    1.6140   26.4610 C.2     1  UNL1        0.0453
     14 C         -26.2500    2.9200   26.3950 C.2     1  UNL1        0.0771
     15 C         -25.6420    4.0930   27.1230 C.2     1  UNL1        0.2664
     16 N         -25.6140    5.2520   26.4490 N.am    1  UNL1       -0.1997
     17 C         -25.0260    6.4790   26.9630 C.3     1  UNL1        0.1388
     18 O         -25.1430    3.9660   28.2430 O.2     1  UNL1       -0.2683
     19 C         -27.4380    3.0910   25.6450 C.2     1  UNL1        0.1067
     20 N         -28.0750    2.0890   25.0030 N.2     1  UNL1       -0.2081
     21 C         -27.5430    0.8490   25.0790 C.2     1  UNL1        0.2533
     22 O         -28.1930   -0.2080   24.4770 O.2     1  UNL1       -0.4558
     23 C         -29.4600    0.0050   23.8660 C.3     1  UNL1        0.2426
     24 C         -30.0650   -1.3770   23.5730 C.3     1  UNL1        0.2292
     25 O         -30.7290   -1.8780   24.7210 O.3     1  UNL1       -0.2162
     26 C         -26.3540    0.5760   25.7770 C.2     1  UNL1        0.1936
     27 F         -25.8600   -0.6810   25.7950 F       1  UNL1       -0.1992
     28 C         -24.2699    0.6700   28.5119 C.ar    1  UNL1        0.0671
     29 C         -31.6166   -1.0385   29.2759 C.3     1  UNL1        0.1121
     30 C         -26.8649    0.4111   28.8986 C.3     1  UNL1        0.0278
     31 O         -29.2113    1.7359   29.6212 O.2     1  UNL1       -0.2749
     32 C         -24.5551    1.2274   27.3126 C.ar    1  UNL1        0.0482
     33 N         -20.9140    1.3971   27.9855 N.pl3   1  UNL1       -0.0998
     34 N         -29.1441   -0.5503   29.3914 N.am    1  UNL1       -0.2780
     35 C         -30.2032   -1.5901   29.6268 C.3     1  UNL1        0.1123
     36 N         -22.9734    0.6251   28.8788 N.ar    1  UNL1       -0.2258
     37 C         -31.6325   -0.3469   27.9363 C.3     1  UNL1        0.0303
     38 C         -30.3592    0.3555   27.6197 C.3     1  UNL1        0.0868
     39 C         -22.2567    1.1946   27.9228 C.ar    1  UNL1        0.2003
     40 C         -29.5458    0.6314   28.9593 C.2     1  UNL1        0.2257
     41 N         -32.5933   -2.1499   29.3083 N.3     1  UNL1       -0.1311
     42 C         -27.8621   -0.7713   28.9162 C.3     1  UNL1        0.0938
     43 C         -25.4113   -0.1391   29.0831 C.3     1  UNL1        0.0479
     44 S         -23.0780    1.7344   26.5053 S.2     1  UNL1       -0.0487
@<TRIPOS>BOND
     1     1    43    1
     2     2     7    1
     3     2     1    1
     4     3     2    2
     5     4     3    1
     6     4     5    2
     7     5     6    1
     8     6     7    2
     9     8     1    1
    10     8     9    1
    11     8    12    1
    12     9    10    1
    13    10    11    1
    14    12    11    1
    15    13    32    1
    16    14    13    1
    17    14    15    1
    18    15    18    2
    19    16    17    1
    20    16    15    1
    21    19    14    2
    22    20    21    2
    23    20    19    1
    24    21    26    1
    25    22    21    1
    26    23    22    1
    27    24    23    1
    28    24    25    1
    29    26    27    1
    30    26    13    2
    31    28    36   ar
    32    28    43    1
    33    29    41    1
    34    29    35    1
    35    30    42    1
    36    32    28   ar
    37    34    35    1
    38    37    29    1
    39    38    37    1
    40    38    40    1
    41    39    33    1
    42    39    36   ar
    43    40    34   am
    44    40    31    2
    45    42    34    1
    46    43    30    1
    47    44    32   ar
    48    44    39   ar
