@<TRIPOS>MOLECULE
No_273-gen_results/8p0m/2024-11-27-11-27-31/
 19 20 0 0 0
SMALL
GASTEIGER

@<TRIPOS>ATOM
      1 CL        -28.1493   -0.8198   28.9079 Cl      1  UNL1       -0.0757
      2 C         -27.8339    0.4961   29.0598 C.3     1  UNL1        0.2218
      3 F         -27.7903    1.1418   28.0451 F       1  UNL1       -0.2185
      4 C         -26.4542    0.6687   29.7268 C.ar    1  UNL1        0.0217
      5 C         -28.8144    1.2222   29.9740 C.3     1  UNL1        0.0790
      6 C         -25.4064    0.3710   28.9897 C.ar    1  UNL1       -0.0005
      7 C         -24.2471   -0.2088   29.5010 C.ar    1  UNL1       -0.0002
      8 C         -24.1367   -0.6121   30.7288 C.ar    1  UNL1       -0.0000
      9 C         -25.2256   -0.2876   31.6250 C.ar    1  UNL1       -0.0002
     10 C         -26.3650    0.2289   31.0689 C.ar    1  UNL1       -0.0005
     11 C         -29.9825    1.4496   29.5072 C.ar    1  UNL1       -0.0179
     12 C         -30.9776    1.8430   30.3240 C.ar    1  UNL1       -0.0041
     13 C         -32.3279    2.0334   29.8360 C.ar    1  UNL1       -0.0003
     14 C         -32.5291    1.7888   28.4727 C.ar    1  UNL1       -0.0000
     15 C         -31.5275    1.3521   27.6492 C.ar    1  UNL1       -0.0006
     16 C         -30.3378    1.1749   28.1357 C.ar    1  UNL1       -0.0041
     17 C         -31.8433    1.0967   26.2190 C.2     1  UNL1       -0.0046
     18 C         -31.1048    1.0931   25.3553 C.2     1  UNL1       -0.0258
     19 C         -29.6913    1.4745   25.6914 C.3     1  UNL1        0.0307
@<TRIPOS>BOND
     1     1     2    1
     2     2     3    1
     3     2     4    1
     4     2     5    1
     5     5    11    1
     6    15    17    1
     7    17    18    2
     8    18    19    1
     9    11    12   ar
    10    12    13   ar
    11    13    14   ar
    12    14    15   ar
    13    15    16   ar
    14    16    11   ar
    15     4     6   ar
    16     6     7   ar
    17     7     8   ar
    18     8     9   ar
    19     9    10   ar
    20    10     4   ar
