@<TRIPOS>MOLECULE
No_2732-gen_results/8p0m/2024-11-27-11-27-31/
 13 14 0 0 0
SMALL
GASTEIGER

@<TRIPOS>ATOM
      1 C         -28.0162   -0.8135   28.8779 C.ar    1  UNL1        0.0000
      2 C         -28.4690   -0.7850   29.8287 C.ar    1  UNL1        0.0000
      3 C         -27.1356    0.2359   28.5352 C.ar    1  UNL1        0.0000
      4 C         -26.8050    1.0509   29.2763 C.ar    1  UNL1        0.0002
      5 C         -27.3158    1.1492   30.6054 C.ar    1  UNL1        0.0000
      6 C         -28.1917    0.1430   30.9488 C.ar    1  UNL1        0.0000
      7 C         -26.4831    0.2096   27.1281 C.ar    1  UNL1        0.0002
      8 C         -25.1459    0.4400   27.0687 C.ar    1  UNL1        0.0066
      9 C         -24.5533    1.3378   28.0203 C.ar    1  UNL1        0.0798
     10 C         -25.3149    1.5247   29.2710 C.ar    1  UNL1        0.0066
     11 C         -23.2679    1.9178   27.8046 C.2     1  UNL1        0.3878
     12 O         -22.7257    2.1824   26.7672 O.co2   1  UNL1       -0.2406
     13 O         -22.6221    2.3397   28.9503 O.co2   1  UNL1       -0.2406
@<TRIPOS>BOND
     1     9    11    1
     2    11    12   ar
     3    11    13   ar
     4     4    10   ar
     5    10     9   ar
     6     9     8   ar
     7     8     7   ar
     8     7     3   ar
     9     1     2   ar
    10     2     6   ar
    11     6     5   ar
    12     5     4   ar
    13     4     3   ar
    14     3     1   ar
