@<TRIPOS>MOLECULE
No_2733-gen_results/8p0m/2024-11-27-11-27-31/
 18 19 0 0 0
SMALL
GASTEIGER

@<TRIPOS>ATOM
      1 C         -28.0162   -0.8135   28.8779 C.ar    1  UNL1       -0.0043
      2 C         -28.4690   -0.7850   29.8287 C.ar    1  UNL1       -0.0003
      3 C         -26.5455   -0.8762   28.8500 C.ar    1  UNL1       -0.0222
      4 C         -25.6825   -0.7773   27.6829 C.3     1  UNL1        0.0307
      5 C         -27.9181   -1.0034   31.1877 C.ar    1  UNL1       -0.0000
      6 C         -26.5308   -1.0794   31.2463 C.ar    1  UNL1       -0.0006
      7 C         -25.7798   -1.0462   30.0905 C.ar    1  UNL1       -0.0079
      8 C         -25.8976    0.2387   26.7449 C.3     1  UNL1        0.0267
      9 C         -25.6318    1.4984   27.0379 C.ar    1  UNL1       -0.0222
     10 C         -24.8915    1.8299   28.2575 C.ar    1  UNL1       -0.0043
     11 C         -24.6121    3.2215   28.5006 C.ar    1  UNL1       -0.0003
     12 C         -25.0213    4.1772   27.5294 C.ar    1  UNL1       -0.0000
     13 C         -25.6030    3.8239   26.3387 C.ar    1  UNL1       -0.0003
     14 C         -25.9215    2.4939   26.1337 C.ar    1  UNL1       -0.0043
     15 C         -26.1301   -0.1373   25.5015 C.3     1  UNL1        0.0050
     16 C         -24.3872   -1.2287   30.1744 C.2     1  UNL1       -0.0222
     17 C         -23.6935   -2.0632   29.4657 C.2     1  UNL1       -0.0046
     18 C         -23.6849   -0.3767   31.1463 C.3     1  UNL1        0.0310
@<TRIPOS>BOND
     1     3     4    1
     2     4     8    1
     3     8    15    1
     4     7    16    1
     5    16    17    2
     6    16    18    1
     7     8     9    1
     8     9    10   ar
     9    10    11   ar
    10    11    12   ar
    11    12    13   ar
    12    13    14   ar
    13    14     9   ar
    14     1     2   ar
    15     2     5   ar
    16     5     6   ar
    17     6     7   ar
    18     7     3   ar
    19     3     1   ar
