@<TRIPOS>MOLECULE
outputs/IAG933/test6/raw/output_2734_IAG933_linker_design_.xyz
 39 43 0 0 0
SMALL
GASTEIGER

@<TRIPOS>ATOM
      1 C         -24.8550   -1.0120   30.1430 C.3     1  UNL1        0.0978
      2 C         -24.9730   -2.5050   29.7880 C.2     1  UNL1       -0.0064
      3 C         -23.9060   -3.1730   29.1460 C.2     1  UNL1       -0.0029
      4 C         -23.9890   -4.5490   28.8530 C.2     1  UNL1       -0.0003
      5 C         -25.1370   -5.2800   29.2050 C.2     1  UNL1       -0.0000
      6 C         -26.2320   -4.6110   29.7840 C.2     1  UNL1       -0.0003
      7 C         -26.1550   -3.2320   30.0650 C.2     1  UNL1       -0.0029
      8 C         -25.3870   -0.6790   31.5710 C.3     1  UNL1        0.0916
      9 C         -25.1890    0.7730   32.0280 C.3     1  UNL1        0.0206
     10 C         -25.3360    0.6840   33.5440 C.3     1  UNL1        0.0203
     11 C         -24.8290   -0.7150   33.9050 C.3     1  UNL1        0.0888
     12 N         -24.7580   -1.4810   32.6460 N.3     1  UNL1       -0.2178
     13 C         -25.6880    1.6140   26.4610 C.2     1  UNL1        0.0558
     14 C         -26.2500    2.9200   26.3950 C.2     1  UNL1        0.0779
     15 C         -25.6420    4.0930   27.1230 C.2     1  UNL1        0.2665
     16 N         -25.6140    5.2520   26.4490 N.am    1  UNL1       -0.1997
     17 C         -25.0260    6.4790   26.9630 C.3     1  UNL1        0.1388
     18 O         -25.1430    3.9660   28.2430 O.2     1  UNL1       -0.2683
     19 C         -27.4380    3.0910   25.6450 C.2     1  UNL1        0.1068
     20 N         -28.0750    2.0890   25.0030 N.2     1  UNL1       -0.2081
     21 C         -27.5430    0.8490   25.0790 C.2     1  UNL1        0.2533
     22 O         -28.1930   -0.2080   24.4770 O.2     1  UNL1       -0.4558
     23 C         -29.4600    0.0050   23.8660 C.3     1  UNL1        0.2426
     24 C         -30.0650   -1.3770   23.5730 C.3     1  UNL1        0.2292
     25 O         -30.7290   -1.8780   24.7210 O.3     1  UNL1       -0.2162
     26 C         -26.3540    0.5760   25.7770 C.2     1  UNL1        0.1944
     27 F         -25.8600   -0.6810   25.7950 F       1  UNL1       -0.1992
     28 O         -23.1008    2.0338   25.5759 O.2     1  UNL1       -0.2919
     29 N         -24.9010    0.7307   28.3470 N.pl3   1  UNL1       -0.2181
     30 C         -21.6649    0.3286   28.5060 C.2     1  UNL1        0.0127
     31 F         -22.0796    2.3103   25.0605 F       1  UNL1        0.0136
     32 C         -20.6974   -0.3964   28.7013 C.2     1  UNL1       -0.0046
     33 F         -20.8792    2.0710   27.1599 F       1  UNL1       -0.2243
     34 C         -23.7326    0.4023   29.2829 C.3     1  UNL1        0.1711
     35 C         -21.9339    1.2931   27.3889 C.3     1  UNL1        0.2421
     36 C         -22.6544    0.1579   29.2644 C.3     1  UNL1        0.1163
     37 C         -24.5104    1.4301   27.1929 C.2     1  UNL1        0.1062
     38 C         -23.1553    1.5486   26.7757 C.2     1  UNL1        0.2173
     39 N         -23.3916   -0.6808   30.0661 N.3     1  UNL1       -0.2469
@<TRIPOS>BOND
     1     1     2    1
     2     2     7    1
     3     3     2    2
     4     4     3    1
     5     4     5    2
     6     5     6    1
     7     6     7    2
     8     8     1    1
     9     8     9    1
    10     8    12    1
    11     9    10    1
    12    10    11    1
    13    12    11    1
    14    13    37    1
    15    14    13    1
    16    14    15    1
    17    15    18    2
    18    16    17    1
    19    16    15    1
    20    19    14    2
    21    20    21    2
    22    20    19    1
    23    21    26    1
    24    22    21    1
    25    23    22    1
    26    24    23    1
    27    24    25    1
    28    26    27    1
    29    26    13    2
    30    28    38    1
    31    30    32    2
    32    31    28    1
    33    34    29    1
    34    34    39    1
    35    35    33    1
    36    35    30    1
    37    36    30    1
    38    36    34    1
    39    36    39    1
    40    37    29    1
    41    38    37    2
    42    38    35    1
    43    39     1    1
