@<TRIPOS>MOLECULE
No_2736-gen_results/8p0m/2024-11-27-11-27-31/
 18 19 0 0 0
SMALL
GASTEIGER

@<TRIPOS>ATOM
      1 O         -28.1229   -1.3353   28.4874 O.3     1  UNL1       -0.4323
      2 C         -27.0637   -0.8242   28.8687 C.ar    1  UNL1        0.2254
      3 C         -27.0246    0.1877   29.7358 C.ar    1  UNL1        0.0649
      4 C         -25.8391    0.8513   29.9958 C.ar    1  UNL1        0.0111
      5 N         -25.8151   -1.4332   28.6128 N.ar    1  UNL1       -0.2101
      6 C         -24.5772   -0.8898   28.9213 C.ar    1  UNL1        0.1086
      7 C         -24.5527    0.2625   29.6408 C.ar    1  UNL1        0.0989
      8 C         -23.2733    0.8840   29.9125 C.2     1  UNL1        0.3893
      9 O         -22.6170    1.3198   29.2018 O.co2   1  UNL1       -0.2405
     10 O         -22.8837    0.6798   31.2677 O.co2   1  UNL1       -0.2405
     11 C         -29.2376   -0.8386   29.2000 C.3     1  UNL1        0.3512
     12 C         -28.3602    0.5196   30.0162 C.3     1  UNL1        0.2199
     13 O         -29.9401   -1.5281   29.9719 O.3     1  UNL1       -0.1712
     14 O         -28.6308    0.4080   31.4200 O.3     1  UNL1       -0.2140
     15 C         -28.8985    1.7814   29.5098 C.3     1  UNL1        0.0670
     16 C         -30.0099    2.1655   29.5448 C.2     1  UNL1       -0.0276
     17 C         -30.6704    2.3649   30.5833 C.2     1  UNL1       -0.0303
     18 C         -32.0193    2.8873   30.6911 C.3     1  UNL1        0.0303
@<TRIPOS>BOND
     1     1     2    1
     2     7     8    1
     3     8     9   ar
     4     8    10   ar
     5     1    11    1
     6     3    12    1
     7    11    12    1
     8    11    13    1
     9    12    14    1
    10    12    15    1
    11    15    16    1
    12    16    17    2
    13    17    18    1
    14     2     3   ar
    15     3     4   ar
    16     4     7   ar
    17     7     6   ar
    18     6     5   ar
    19     5     2   ar
