@<TRIPOS>MOLECULE
outputs/IAG933/test6/raw/output_2739_IAG933_linker_design_.xyz
 45 49 0 0 0
SMALL
GASTEIGER

@<TRIPOS>ATOM
      1 C         -24.8550   -1.0120   30.1430 C.3     1  UNL1        0.1477
      2 C         -24.9730   -2.5050   29.7880 C.2     1  UNL1       -0.0095
      3 C         -23.9060   -3.1730   29.1460 C.2     1  UNL1       -0.0037
      4 C         -23.9890   -4.5490   28.8530 C.2     1  UNL1       -0.0003
      5 C         -25.1370   -5.2800   29.2050 C.2     1  UNL1       -0.0000
      6 C         -26.2320   -4.6110   29.7840 C.2     1  UNL1       -0.0003
      7 C         -26.1550   -3.2320   30.0650 C.2     1  UNL1       -0.0037
      8 C         -25.3870   -0.6790   31.5710 C.3     1  UNL1        0.0885
      9 C         -25.1890    0.7730   32.0280 C.3     1  UNL1        0.0198
     10 C         -25.3360    0.6840   33.5440 C.3     1  UNL1        0.0203
     11 C         -24.8290   -0.7150   33.9050 C.3     1  UNL1        0.0887
     12 N         -24.7580   -1.4810   32.6460 N.3     1  UNL1       -0.2185
     13 C         -25.6880    1.6140   26.4610 C.3     1  UNL1        0.2324
     14 C         -26.2500    2.9200   26.3950 C.2     1  UNL1        0.0952
     15 C         -25.6420    4.0930   27.1230 C.2     1  UNL1        0.2217
     16 N         -25.6140    5.2520   26.4490 N.2     1  UNL1       -0.2358
     17 C         -25.0260    6.4790   26.9630 C.3     1  UNL1        0.1550
     18 O         -25.1430    3.9660   28.2430 O.2     1  UNL1       -0.4601
     19 C         -27.4380    3.0910   25.6450 C.2     1  UNL1        0.1061
     20 N         -28.0750    2.0890   25.0030 N.2     1  UNL1       -0.2116
     21 C         -27.5430    0.8490   25.0790 C.2     1  UNL1        0.2384
     22 O         -28.1930   -0.2080   24.4770 O.2     1  UNL1       -0.4584
     23 C         -29.4600    0.0050   23.8660 C.3     1  UNL1        0.2423
     24 C         -30.0650   -1.3770   23.5730 C.3     1  UNL1        0.2292
     25 O         -30.7290   -1.8780   24.7210 O.3     1  UNL1       -0.2162
     26 C         -26.3540    0.5760   25.7770 C.3     1  UNL1        0.2825
     27 F         -25.8600   -0.6810   25.7950 F       1  UNL1       -0.2225
     28 C         -25.5958    2.8217   28.8030 C.3     1  UNL1        0.2149
     29 C         -26.3539    3.0522   30.1522 C.3     1  UNL1        0.1146
     30 C         -21.6677    1.8347   26.7215 C.3     1  UNL1        0.3120
     31 F         -20.3762    2.0953   26.7573 F       1  UNL1       -0.1986
     32 N         -24.2922    1.6355   26.5773 N.pl3   1  UNL1       -0.1605
     33 C         -21.7161    0.2438   28.6327 C.3     1  UNL1        0.2352
     34 C         -25.4245    3.7196   31.1069 C.2     1  UNL1        0.1875
     35 N         -24.3564    0.0584   28.2247 N.2     1  UNL1       -0.0010
     36 O         -22.3260    2.4051   25.6196 O.3     1  UNL1       -0.2806
     37 C         -23.6363    2.4558   25.8284 C.3     1  UNL1        0.3610
     38 C         -22.3214    0.9943   27.6355 C.2     1  UNL1        0.1448
     39 C         -23.6696    0.8342   27.4694 C.2     1  UNL1        0.3307
     40 C         -20.2829   -0.0789   28.6162 C.3     1  UNL1        0.0604
     41 N         -22.5129   -0.2614   29.5924 N.pl3   1  UNL1       -0.0345
     42 O         -25.2583    6.1465   31.1579 O.3     1  UNL1       -0.2119
     43 C         -23.7957   -0.3492   29.3458 C.2     1  UNL1        0.3461
     44 C         -26.0473    5.0204   31.5087 C.3     1  UNL1        0.2460
     45 O         -24.3768    3.2044   31.5023 O.2     1  UNL1       -0.2932
@<TRIPOS>BOND
     1     1    43    1
     2     2     7    1
     3     2     1    1
     4     3     2    2
     5     4     3    1
     6     4     5    2
     7     5     6    1
     8     6     7    2
     9     8     1    1
    10     8     9    1
    11     8    12    1
    12     9    10    1
    13    10    11    1
    14    12    11    1
    15    13    32    1
    16    14    13    1
    17    14    15    1
    18    15    18    1
    19    16    17    1
    20    16    15    2
    21    18    28    1
    22    19    14    2
    23    20    21    2
    24    20    19    1
    25    21    26    1
    26    22    21    1
    27    23    22    1
    28    24    23    1
    29    24    25    1
    30    26    27    1
    31    26    13    1
    32    28    29    1
    33    29    34    1
    34    30    31    1
    35    30    38    1
    36    32    39    1
    37    33    40    1
    38    33    41    1
    39    34    45    2
    40    34    44    1
    41    35    43    2
    42    36    37    1
    43    36    30    1
    44    37    32    1
    45    38    33    1
    46    39    38    2
    47    39    35    1
    48    42    44    1
    49    43    41    1
