@<TRIPOS>MOLECULE
outputs/IAG933/test6/raw/output_274_IAG933_linker_design_.xyz
 42 46 0 0 0
SMALL
GASTEIGER

@<TRIPOS>ATOM
      1 C         -24.8550   -1.0120   30.1430 C.3     1  UNL1        0.1985
      2 C         -24.9730   -2.5050   29.7880 C.2     1  UNL1        0.0213
      3 C         -23.9060   -3.1730   29.1460 C.2     1  UNL1       -0.0004
      4 C         -23.9890   -4.5490   28.8530 C.2     1  UNL1       -0.0002
      5 C         -25.1370   -5.2800   29.2050 C.2     1  UNL1       -0.0000
      6 C         -26.2320   -4.6110   29.7840 C.2     1  UNL1       -0.0002
      7 C         -26.1550   -3.2320   30.0650 C.2     1  UNL1       -0.0004
      8 C         -25.3870   -0.6790   31.5710 C.3     1  UNL1        0.1197
      9 C         -25.1890    0.7730   32.0280 C.3     1  UNL1        0.0233
     10 C         -25.3360    0.6840   33.5440 C.3     1  UNL1        0.0204
     11 C         -24.8290   -0.7150   33.9050 C.3     1  UNL1        0.0889
     12 N         -24.7580   -1.4810   32.6460 N.3     1  UNL1       -0.2150
     13 C         -25.6880    1.6140   26.4610 C.3     1  UNL1        0.1321
     14 C         -26.2500    2.9200   26.3950 C.2     1  UNL1        0.0622
     15 C         -25.6420    4.0930   27.1230 C.2     1  UNL1        0.2629
     16 N         -25.6140    5.2520   26.4490 N.am    1  UNL1       -0.2000
     17 C         -25.0260    6.4790   26.9630 C.3     1  UNL1        0.1388
     18 O         -25.1430    3.9660   28.2430 O.2     1  UNL1       -0.2686
     19 C         -27.4380    3.0910   25.6450 C.2     1  UNL1        0.1026
     20 N         -28.0750    2.0890   25.0030 N.2     1  UNL1       -0.2118
     21 C         -27.5430    0.8490   25.0790 C.2     1  UNL1        0.2345
     22 O         -28.1930   -0.2080   24.4770 O.2     1  UNL1       -0.4585
     23 C         -29.4600    0.0050   23.8660 C.3     1  UNL1        0.2423
     24 C         -30.0650   -1.3770   23.5730 C.3     1  UNL1        0.2292
     25 O         -30.7290   -1.8780   24.7210 O.3     1  UNL1       -0.2162
     26 C         -26.3540    0.5760   25.7770 C.3     1  UNL1        0.2473
     27 F         -25.8600   -0.6810   25.7950 F       1  UNL1       -0.2264
     28 O         -22.3841    2.2106   25.7704 O.2     1  UNL1       -0.2849
     29 C         -22.1774    1.5609   26.9934 C.2     1  UNL1        0.2247
     30 O         -28.6769   -0.4711   28.6667 O.3     1  UNL1       -0.3467
     31 C         -23.2846    0.9735   27.4853 C.2     1  UNL1        0.1576
     32 N         -22.5632   -0.3282   29.2204 N.2     1  UNL1       -0.0141
     33 C         -23.6444    0.2370   28.5978 C.2     1  UNL1        0.3322
     34 C         -21.1937   -0.3410   28.9599 C.2     1  UNL1        0.3390
     35 O         -23.6020    2.1303   25.4488 O.2     1  UNL1       -0.2902
     36 N         -24.9013   -0.0351   29.0742 N.pl3   1  UNL1       -0.1864
     37 C         -27.4837   -0.2636   29.4695 C.3     1  UNL1        0.1929
     38 C         -24.2332    1.5018   26.5151 C.2     1  UNL1        0.1904
     39 N         -20.5405    0.6534   28.4406 N.2     1  UNL1       -0.1946
     40 C         -29.5155    0.6743   28.6904 C.3     1  UNL1        0.1743
     41 C         -26.3085    0.4637   28.7670 C.3     1  UNL1        0.2347
     42 C         -20.9292    1.4939   27.5782 C.2     1  UNL1        0.1451
@<TRIPOS>BOND
     1     1    36    1
     2     2     7    1
     3     2     1    1
     4     3     2    2
     5     4     3    1
     6     4     5    2
     7     5     6    1
     8     6     7    2
     9     8     1    1
    10     8     9    1
    11     8    12    1
    12     9    10    1
    13    10    11    1
    14    12    11    1
    15    13    38    1
    16    14    13    1
    17    14    15    1
    18    15    18    2
    19    16    17    1
    20    16    15    1
    21    19    14    2
    22    20    21    2
    23    20    19    1
    24    21    26    1
    25    22    21    1
    26    23    22    1
    27    24    23    1
    28    24    25    1
    29    26    27    1
    30    26    13    1
    31    28    29    1
    32    29    31    1
    33    29    42    2
    34    30    40    1
    35    30    37    1
    36    31    33    1
    37    33    36    1
    38    33    32    2
    39    34    32    1
    40    35    28    1
    41    35    38    1
    42    38    31    2
    43    39    34    2
    44    41    36    1
    45    41    37    1
    46    42    39    1
