@<TRIPOS>MOLECULE
outputs/IAG933/test6/raw/output_2742_IAG933_linker_design_.xyz
 43 45 0 0 0
SMALL
GASTEIGER

@<TRIPOS>ATOM
      1 C         -24.8550   -1.0120   30.1430 C.3     1  UNL1        0.0470
      2 C         -24.9730   -2.5050   29.7880 C.2     1  UNL1       -0.0207
      3 C         -23.9060   -3.1730   29.1460 C.2     1  UNL1       -0.0042
      4 C         -23.9890   -4.5490   28.8530 C.2     1  UNL1       -0.0003
      5 C         -25.1370   -5.2800   29.2050 C.2     1  UNL1       -0.0000
      6 C         -26.2320   -4.6110   29.7840 C.2     1  UNL1       -0.0003
      7 C         -26.1550   -3.2320   30.0650 C.2     1  UNL1       -0.0042
      8 C         -25.3870   -0.6790   31.5710 C.3     1  UNL1        0.0773
      9 C         -25.1890    0.7730   32.0280 C.3     1  UNL1        0.0192
     10 C         -25.3360    0.6840   33.5440 C.3     1  UNL1        0.0202
     11 C         -24.8290   -0.7150   33.9050 C.3     1  UNL1        0.0887
     12 N         -24.7580   -1.4810   32.6460 N.3     1  UNL1       -0.2191
     13 C         -25.6880    1.6140   26.4610 C.3     1  UNL1        0.0702
     14 C         -26.2500    2.9200   26.3950 C.2     1  UNL1        0.0548
     15 C         -25.6420    4.0930   27.1230 C.2     1  UNL1        0.2624
     16 N         -25.6140    5.2520   26.4490 N.am    1  UNL1       -0.2000
     17 C         -25.0260    6.4790   26.9630 C.3     1  UNL1        0.1388
     18 O         -25.1430    3.9660   28.2430 O.2     1  UNL1       -0.2687
     19 C         -27.4380    3.0910   25.6450 C.2     1  UNL1        0.1021
     20 N         -28.0750    2.0890   25.0030 N.2     1  UNL1       -0.2119
     21 C         -27.5430    0.8490   25.0790 C.2     1  UNL1        0.2341
     22 O         -28.1930   -0.2080   24.4770 O.2     1  UNL1       -0.4585
     23 C         -29.4600    0.0050   23.8660 C.3     1  UNL1        0.2423
     24 C         -30.0650   -1.3770   23.5730 C.3     1  UNL1        0.2292
     25 O         -30.7290   -1.8780   24.7210 O.3     1  UNL1       -0.2162
     26 C         -26.3540    0.5760   25.7770 C.3     1  UNL1        0.2400
     27 F         -25.8600   -0.6810   25.7950 F       1  UNL1       -0.2269
     28 C         -22.7496    1.1835   28.1461 C.3     1  UNL1        0.0005
     29 C         -28.0279    2.2480   29.0250 C.3     1  UNL1        0.1248
     30 N         -26.7130    1.6507   29.1805 N.am    1  UNL1       -0.2049
     31 O         -27.3770   -0.5590   28.9345 O.2     1  UNL1       -0.2733
     32 C         -24.2178    1.3042   26.7137 C.3     1  UNL1        0.0083
     33 C         -30.0846    4.5208   33.3445 C.3     1  UNL1        0.0969
     34 C         -29.4223    4.5725   31.9764 C.2     1  UNL1        0.2484
     35 C         -25.1138   -0.1529   29.1567 C.3     1  UNL1        0.0836
     36 C         -28.4782    2.6487   30.3907 C.3     1  UNL1        0.1106
     37 O         -30.1104    4.8085   30.9726 O.2     1  UNL1       -0.2729
     38 C         -26.5589    0.3346   29.0261 C.2     1  UNL1        0.2413
     39 C         -21.9914    0.8834   29.4214 C.3     1  UNL1        0.0000
     40 C         -24.0591    0.3194   28.0072 C.3     1  UNL1        0.0095
     41 O         -26.4269    3.9443   30.4728 O.2     1  UNL1       -0.2728
     42 N         -28.0909    4.4145   31.8848 N.am    1  UNL1       -0.1447
     43 C         -27.5834    3.7465   30.8947 C.2     1  UNL1        0.2497
@<TRIPOS>BOND
     1     1    35    1
     2     2     7    1
     3     2     1    1
     4     3     2    2
     5     4     3    1
     6     4     5    2
     7     5     6    1
     8     6     7    2
     9     8     1    1
    10     8     9    1
    11     8    12    1
    12     9    10    1
    13    10    11    1
    14    12    11    1
    15    13    32    1
    16    14    13    1
    17    14    15    1
    18    15    18    2
    19    16    17    1
    20    16    15    1
    21    19    14    2
    22    20    21    2
    23    20    19    1
    24    21    26    1
    25    22    21    1
    26    23    22    1
    27    24    23    1
    28    24    25    1
    29    26    27    1
    30    26    13    1
    31    28    39    1
    32    29    30    1
    33    29    36    1
    34    31    38    2
    35    34    33    1
    36    35    38    1
    37    36    43    1
    38    37    34    2
    39    38    30    1
    40    40    32    1
    41    40    28    1
    42    40    35    1
    43    41    43    2
    44    42    34    1
    45    43    42    1
