@<TRIPOS>MOLECULE
outputs/IAG933/test6/raw/output_2743_IAG933_linker_design_.xyz
 43 47 0 0 0
SMALL
GASTEIGER

@<TRIPOS>ATOM
      1 C         -24.8550   -1.0120   30.1430 C.3     1  UNL1        0.0621
      2 C         -24.9730   -2.5050   29.7880 C.2     1  UNL1       -0.0192
      3 C         -23.9060   -3.1730   29.1460 C.2     1  UNL1       -0.0042
      4 C         -23.9890   -4.5490   28.8530 C.2     1  UNL1       -0.0003
      5 C         -25.1370   -5.2800   29.2050 C.2     1  UNL1       -0.0000
      6 C         -26.2320   -4.6110   29.7840 C.2     1  UNL1       -0.0003
      7 C         -26.1550   -3.2320   30.0650 C.2     1  UNL1       -0.0042
      8 C         -25.3870   -0.6790   31.5710 C.3     1  UNL1        0.0788
      9 C         -25.1890    0.7730   32.0280 C.3     1  UNL1        0.0193
     10 C         -25.3360    0.6840   33.5440 C.3     1  UNL1        0.0202
     11 C         -24.8290   -0.7150   33.9050 C.3     1  UNL1        0.0887
     12 N         -24.7580   -1.4810   32.6460 N.3     1  UNL1       -0.2191
     13 C         -25.6880    1.6140   26.4610 C.2     1  UNL1        0.0236
     14 C         -26.2500    2.9200   26.3950 C.2     1  UNL1        0.0732
     15 C         -25.6420    4.0930   27.1230 C.2     1  UNL1        0.2661
     16 N         -25.6140    5.2520   26.4490 N.am    1  UNL1       -0.1997
     17 C         -25.0260    6.4790   26.9630 C.3     1  UNL1        0.1388
     18 O         -25.1430    3.9660   28.2430 O.2     1  UNL1       -0.2683
     19 C         -27.4380    3.0910   25.6450 C.2     1  UNL1        0.1064
     20 N         -28.0750    2.0890   25.0030 N.2     1  UNL1       -0.2081
     21 C         -27.5430    0.8490   25.0790 C.2     1  UNL1        0.2530
     22 O         -28.1930   -0.2080   24.4770 O.2     1  UNL1       -0.4558
     23 C         -29.4600    0.0050   23.8660 C.3     1  UNL1        0.2426
     24 C         -30.0650   -1.3770   23.5730 C.3     1  UNL1        0.2292
     25 O         -30.7290   -1.8780   24.7210 O.3     1  UNL1       -0.2162
     26 C         -26.3540    0.5760   25.7770 C.2     1  UNL1        0.1897
     27 F         -25.8600   -0.6810   25.7950 F       1  UNL1       -0.1996
     28 C         -26.9578    1.7966   29.5742 C.2     1  UNL1        0.0656
     29 C         -23.6238    1.8959   26.0004 C.2     1  UNL1        0.0241
     30 C         -22.7055    0.6746   28.7066 C.2     1  UNL1       -0.0061
     31 C         -29.3317    1.9046   29.2280 C.2     1  UNL1        0.0013
     32 C         -22.2676    2.1422   25.8942 C.2     1  UNL1        0.1921
     33 C         -28.3231    3.0285   31.1383 C.2     1  UNL1        0.0013
     34 C         -29.4476    2.6424   30.3909 C.2     1  UNL1        0.0001
     35 C         -21.3240    1.8861   26.9122 C.2     1  UNL1        0.0417
     36 C         -25.1673   -0.0036   28.9404 C.3     1  UNL1        0.1166
     37 C         -24.0504    0.7549   28.2116 C.2     1  UNL1       -0.0165
     38 C         -27.0502    2.6666   30.6762 C.2     1  UNL1        0.0161
     39 C         -21.5225    1.1657   28.1098 C.2     1  UNL1        0.0027
     40 C         -24.4053    1.3897   26.9738 C.3     1  UNL1        0.0698
     41 N         -25.8363    1.2238   29.3211 N.pl3   1  UNL1       -0.2348
     42 O         -21.8806    2.5772   24.7211 O.2     1  UNL1       -0.2869
     43 C         -28.0936    1.4891   28.7930 C.2     1  UNL1        0.0161
@<TRIPOS>BOND
     1     1    36    1
     2     2     7    1
     3     2     1    1
     4     3     2    2
     5     4     3    1
     6     4     5    2
     7     5     6    1
     8     6     7    2
     9     8     1    1
    10     8     9    1
    11     8    12    1
    12     9    10    1
    13    10    11    1
    14    12    11    1
    15    14    13    1
    16    14    15    1
    17    15    18    2
    18    16    17    1
    19    16    15    1
    20    19    14    2
    21    20    21    2
    22    20    19    1
    23    21    26    1
    24    22    21    1
    25    23    22    1
    26    24    23    1
    27    24    25    1
    28    26    27    1
    29    26    13    2
    30    28    38    1
    31    29    40    1
    32    31    34    2
    33    32    29    2
    34    32    35    1
    35    34    33    1
    36    35    39    2
    37    36    41    1
    38    37    30    2
    39    37    36    1
    40    38    33    2
    41    39    30    1
    42    40    13    1
    43    40    37    1
    44    41    28    1
    45    42    32    1
    46    43    31    1
    47    43    28    2
