@<TRIPOS>MOLECULE
No_2744-gen_results/8p0m/2024-11-27-11-27-31/
 17 18 0 0 0
SMALL
GASTEIGER

@<TRIPOS>ATOM
      1 C         -28.0162   -0.8135   28.8779 C.ar    1  UNL1        0.0369
      2 C         -27.0636   -0.1189   28.6079 C.ar    1  UNL1        0.0031
      3 C         -25.7647   -0.3897   29.0360 C.ar    1  UNL1        0.0002
      4 C         -25.5296   -1.5302   29.9014 C.ar    1  UNL1        0.0031
      5 C         -26.6888   -2.2893   30.1810 C.ar    1  UNL1        0.0369
      6 C         -27.8727   -1.9508   29.7373 C.ar    1  UNL1        0.1394
      7 O         -28.9304   -2.7298   30.1154 O.3     1  UNL1       -0.4637
      8 C         -24.5394    0.4211   28.7421 C.ar    1  UNL1        0.0000
      9 C         -24.5259    1.2743   27.7265 C.ar    1  UNL1        0.0000
     10 C         -23.3174    1.9856   27.4033 C.ar    1  UNL1        0.0000
     11 C         -22.1311    1.7374   28.0503 C.ar    1  UNL1        0.0000
     12 C         -23.2983    0.1369   29.3770 C.ar    1  UNL1        0.0000
     13 C         -22.1005    0.8185   29.0410 C.ar    1  UNL1        0.0000
     14 C         -28.7772   -3.9930   30.6463 C.3     1  UNL1        0.3186
     15 C         -29.8256   -4.2779   31.6163 C.2     1  UNL1        0.4084
     16 O         -29.7484   -5.4160   32.1147 O.co2   1  UNL1       -0.2415
     17 O         -30.6990   -3.5073   31.8598 O.co2   1  UNL1       -0.2415
@<TRIPOS>BOND
     1     6     7    1
     2     3     8    1
     3     7    14    1
     4    14    15    1
     5    15    16   ar
     6    15    17   ar
     7     1     2   ar
     8     2     3   ar
     9     3     4   ar
    10     4     5   ar
    11     5     6   ar
    12     6     1   ar
    13     8     9   ar
    14     9    10   ar
    15    10    11   ar
    16    11    13   ar
    17    13    12   ar
    18    12     8   ar
