@<TRIPOS>MOLECULE
No_2745-gen_results/8p0m/2024-11-27-11-27-31/
 22 24 0 0 0
SMALL
GASTEIGER

@<TRIPOS>ATOM
      1 C         -28.0162   -0.8135   28.8779 C.ar    1  UNL1        0.0046
      2 C         -28.4690   -0.7850   29.8287 C.ar    1  UNL1        0.0551
      3 C         -26.5455   -0.8762   28.8500 C.ar    1  UNL1        0.0001
      4 C         -25.8041   -1.0324   30.0571 C.ar    1  UNL1        0.0000
      5 C         -27.9437   -0.9869   31.2075 C.ar    1  UNL1        0.0046
      6 C         -26.5825   -1.0386   31.2231 C.ar    1  UNL1        0.0001
      7 C         -24.3810   -1.1082   30.0855 C.ar    1  UNL1        0.0000
      8 C         -23.7590   -1.1322   30.8961 C.ar    1  UNL1        0.0000
      9 C         -22.2395   -1.0663   30.9853 C.ar    1  UNL1        0.0000
     10 C         -21.6850   -0.8653   29.7652 C.ar    1  UNL1        0.0000
     11 C         -22.4213   -0.7284   28.5819 C.ar    1  UNL1        0.0000
     12 C         -23.8520   -0.8586   28.7157 C.ar    1  UNL1        0.0000
     13 C         -30.0827   -0.6759   29.8751 C.2     1  UNL1        0.2651
     14 O         -30.5102   -0.1729   28.9395 O.2     1  UNL1       -0.2684
     15 N         -30.7425   -0.7800   31.0565 N.am    1  UNL1       -0.1968
     16 C         -31.7402   -0.9035   31.2963 C.3     1  UNL1        0.1418
     17 C         -32.7535   -0.8695   30.8509 C.ar    1  UNL1       -0.0006
     18 C         -34.1455   -1.0734   31.3129 C.ar    1  UNL1       -0.0026
     19 C         -35.2761   -0.9687   30.5430 C.ar    1  UNL1       -0.0003
     20 C         -35.1256   -0.7330   29.1910 C.ar    1  UNL1       -0.0000
     21 C         -33.8739   -0.5645   28.6084 C.ar    1  UNL1       -0.0003
     22 C         -32.8483   -0.6133   29.2956 C.ar    1  UNL1       -0.0026
@<TRIPOS>BOND
     1     4     7    1
     2     2    13    1
     3    13    14    2
     4    13    15   am
     5    15    16    1
     6    16    17    1
     7    17    18   ar
     8    18    19   ar
     9    19    20   ar
    10    20    21   ar
    11    21    22   ar
    12    22    17   ar
    13     1     2   ar
    14     2     5   ar
    15     5     6   ar
    16     6     4   ar
    17     4     3   ar
    18     3     1   ar
    19     7     8   ar
    20     8     9   ar
    21     9    10   ar
    22    10    11   ar
    23    11    12   ar
    24    12     7   ar
