@<TRIPOS>MOLECULE
No_2746-gen_results/8p0m/2024-11-27-11-27-31/
 7 6 0 0 0
SMALL
GASTEIGER

@<TRIPOS>ATOM
      1 F         -28.0727   -1.2542   28.5316 F       1  UNL1       -0.1648
      2 C         -27.0607   -0.6291   28.8721 C.3     1  UNL1        0.4605
      3 F         -26.4722   -0.5474   28.0086 F       1  UNL1       -0.1648
      4 F         -27.3684    0.5937   29.4292 F       1  UNL1       -0.1648
      5 C         -26.3676   -1.4349   30.0030 C.3     1  UNL1        0.4115
      6 F         -25.4359   -1.9076   29.8833 F       1  UNL1       -0.1888
      7 F         -27.0109   -1.6383   31.1203 F       1  UNL1       -0.1888
@<TRIPOS>BOND
     1     1     2    1
     2     2     3    1
     3     2     4    1
     4     2     5    1
     5     5     6    1
     6     5     7    1
