@<TRIPOS>MOLECULE
outputs/IAG933/test6/raw/output_2747_IAG933_linker_design_.xyz
 46 48 0 0 0
SMALL
GASTEIGER

@<TRIPOS>ATOM
      1 C         -24.8550   -1.0120   30.1430 C.3     1  UNL1        0.0740
      2 C         -24.9730   -2.5050   29.7880 C.2     1  UNL1       -0.0159
      3 C         -23.9060   -3.1730   29.1460 C.2     1  UNL1       -0.0039
      4 C         -23.9890   -4.5490   28.8530 C.2     1  UNL1       -0.0003
      5 C         -25.1370   -5.2800   29.2050 C.2     1  UNL1       -0.0000
      6 C         -26.2320   -4.6110   29.7840 C.2     1  UNL1       -0.0003
      7 C         -26.1550   -3.2320   30.0650 C.2     1  UNL1       -0.0039
      8 C         -25.3870   -0.6790   31.5710 C.3     1  UNL1        0.0820
      9 C         -25.1890    0.7730   32.0280 C.3     1  UNL1        0.0196
     10 C         -25.3360    0.6840   33.5440 C.3     1  UNL1        0.0203
     11 C         -24.8290   -0.7150   33.9050 C.3     1  UNL1        0.0887
     12 N         -24.7580   -1.4810   32.6460 N.3     1  UNL1       -0.2188
     13 C         -25.6880    1.6140   26.4610 C.2     1  UNL1        0.0464
     14 C         -26.2500    2.9200   26.3950 C.2     1  UNL1        0.0750
     15 C         -25.6420    4.0930   27.1230 C.2     1  UNL1        0.2662
     16 N         -25.6140    5.2520   26.4490 N.am    1  UNL1       -0.1997
     17 C         -25.0260    6.4790   26.9630 C.3     1  UNL1        0.1388
     18 O         -25.1430    3.9660   28.2430 O.2     1  UNL1       -0.2683
     19 C         -27.4380    3.0910   25.6450 C.2     1  UNL1        0.1065
     20 N         -28.0750    2.0890   25.0030 N.2     1  UNL1       -0.2081
     21 C         -27.5430    0.8490   25.0790 C.2     1  UNL1        0.2530
     22 O         -28.1930   -0.2080   24.4770 O.2     1  UNL1       -0.4558
     23 C         -29.4600    0.0050   23.8660 C.3     1  UNL1        0.2426
     24 C         -30.0650   -1.3770   23.5730 C.3     1  UNL1        0.2292
     25 O         -30.7290   -1.8780   24.7210 O.3     1  UNL1       -0.2162
     26 C         -26.3540    0.5760   25.7770 C.2     1  UNL1        0.1915
     27 F         -25.8600   -0.6810   25.7950 F       1  UNL1       -0.1995
     28 C         -31.3512   -0.5565   27.8765 C.3     1  UNL1        0.2129
     29 O         -29.9159    2.5652   28.9482 O.3     1  UNL1       -0.2188
     30 C         -24.4735    1.1773   27.0176 C.3     1  UNL1        0.1872
     31 C         -21.5012    1.7342   26.3776 C.3     1  UNL1        0.0000
     32 C         -25.2981   -0.0558   29.0663 C.2     1  UNL1        0.0407
     33 C         -29.0010    1.4905   29.0476 C.3     1  UNL1        0.2019
     34 C         -31.1680   -0.1965   29.3642 C.3     1  UNL1        0.1667
     35 F         -22.8896    2.2050   25.6389 F       1  UNL1       -0.0466
     36 N         -26.6206    0.0281   28.8303 N.2     1  UNL1       -0.2592
     37 O         -23.5719    1.1695   25.9098 O.3     1  UNL1       -0.1771
     38 O         -31.4754   -1.3154   30.2075 O.3     1  UNL1       -0.3494
     39 O         -30.1779   -0.6163   27.0982 O.3     1  UNL1       -0.2177
     40 C         -27.6905   -0.6034   29.3576 C.3     1  UNL1        0.2144
     41 N         -28.8603   -0.8125   29.7031 N.3     1  UNL1       -0.1897
     42 C         -21.8338    1.3530   27.8290 C.3     1  UNL1        0.0005
     43 CA        -29.7422    0.3202   29.7321 C.3     1  UNL1        0.1374
     44 C         -24.3002    0.4841   28.1720 C.3     1  UNL1        0.0711
     45 C         -22.8232    0.2834   28.5165 C.3     1  UNL1        0.0085
     46 C         -32.2108   -2.4446   29.7360 C.3     1  UNL1        0.1742
@<TRIPOS>BOND
     1     1    32    1
     2     2     7    1
     3     2     1    1
     4     3     2    2
     5     4     3    1
     6     4     5    2
     7     5     6    1
     8     6     7    2
     9     8     1    1
    10     8     9    1
    11     8    12    1
    12     9    10    1
    13    10    11    1
    14    12    11    1
    15    13    30    1
    16    14    13    1
    17    14    15    1
    18    15    18    2
    19    16    17    1
    20    16    15    1
    21    19    14    2
    22    20    21    2
    23    20    19    1
    24    21    26    1
    25    22    21    1
    26    23    22    1
    27    24    23    1
    28    24    25    1
    29    26    27    1
    30    26    13    2
    31    29    33    1
    32    30    37    1
    33    30    44    1
    34    31    42    1
    35    34    28    1
    36    34    43    1
    37    34    38    1
    38    35    37    1
    39    36    32    2
    40    36    40    1
    41    39    28    1
    42    40    41    1
    43    41    43    1
    44    42    45    1
    45    43    33    1
    46    44    45    1
    47    44    32    1
    48    46    38    1
