@<TRIPOS>MOLECULE
outputs/IAG933/test6/raw/output_275_IAG933_linker_design_.xyz
 40 44 0 0 0
SMALL
GASTEIGER

@<TRIPOS>ATOM
      1 C         -24.8550   -1.0120   30.1430 C.3     1  UNL1        0.0530
      2 C         -24.9730   -2.5050   29.7880 C.2     1  UNL1       -0.0198
      3 C         -23.9060   -3.1730   29.1460 C.2     1  UNL1       -0.0042
      4 C         -23.9890   -4.5490   28.8530 C.2     1  UNL1       -0.0003
      5 C         -25.1370   -5.2800   29.2050 C.2     1  UNL1       -0.0000
      6 C         -26.2320   -4.6110   29.7840 C.2     1  UNL1       -0.0003
      7 C         -26.1550   -3.2320   30.0650 C.2     1  UNL1       -0.0042
      8 C         -25.3870   -0.6790   31.5710 C.3     1  UNL1        0.0781
      9 C         -25.1890    0.7730   32.0280 C.3     1  UNL1        0.0192
     10 C         -25.3360    0.6840   33.5440 C.3     1  UNL1        0.0202
     11 C         -24.8290   -0.7150   33.9050 C.3     1  UNL1        0.0887
     12 N         -24.7580   -1.4810   32.6460 N.3     1  UNL1       -0.2191
     13 C         -25.6880    1.6140   26.4610 C.2     1  UNL1        0.0157
     14 C         -26.2500    2.9200   26.3950 C.2     1  UNL1        0.0726
     15 C         -25.6420    4.0930   27.1230 C.2     1  UNL1        0.2661
     16 N         -25.6140    5.2520   26.4490 N.am    1  UNL1       -0.1997
     17 C         -25.0260    6.4790   26.9630 C.3     1  UNL1        0.1388
     18 O         -25.1430    3.9660   28.2430 O.2     1  UNL1       -0.2683
     19 C         -27.4380    3.0910   25.6450 C.2     1  UNL1        0.1064
     20 N         -28.0750    2.0890   25.0030 N.2     1  UNL1       -0.2081
     21 C         -27.5430    0.8490   25.0790 C.2     1  UNL1        0.2530
     22 O         -28.1930   -0.2080   24.4770 O.2     1  UNL1       -0.4558
     23 C         -29.4600    0.0050   23.8660 C.3     1  UNL1        0.2426
     24 C         -30.0650   -1.3770   23.5730 C.3     1  UNL1        0.2292
     25 O         -30.7290   -1.8780   24.7210 O.3     1  UNL1       -0.2162
     26 C         -26.3540    0.5760   25.7770 C.2     1  UNL1        0.1891
     27 F         -25.8600   -0.6810   25.7950 F       1  UNL1       -0.1996
     28 C         -23.3901    1.3554   26.3357 C.3     1  UNL1        0.0368
     29 C         -28.1341   -0.4292   29.3330 C.3     1  UNL1        0.0721
     30 C         -28.4549    1.5797   30.7025 C.3     1  UNL1        0.0188
     31 C         -25.4885   -0.0443   29.0604 C.3     1  UNL1        0.0632
     32 N         -26.9538    0.4366   29.2849 N.3     1  UNL1       -0.2736
     33 C         -24.4207    0.7241   28.2392 C.3     1  UNL1        0.0219
     34 F         -21.1287    1.6422   27.0360 F       1  UNL1       -0.2373
     35 C         -29.1695    0.3559   30.1289 C.3     1  UNL1        0.0188
     36 C         -24.5962    1.2904   27.0124 C.3     1  UNL1        0.0289
     37 C         -22.4606    1.2623   27.2988 C.3     1  UNL1        0.1613
     38 C         -23.0146    0.7945   28.4613 C.3     1  UNL1        0.0369
     39 C         -23.1577    1.3572   24.8214 C.3     1  UNL1        0.0031
     40 C         -27.1752    1.7346   29.9023 C.3     1  UNL1        0.0721
@<TRIPOS>BOND
     1     1    31    1
     2     2     7    1
     3     2     1    1
     4     3     2    2
     5     4     3    1
     6     4     5    2
     7     5     6    1
     8     6     7    2
     9     8     1    1
    10     8     9    1
    11     8    12    1
    12     9    10    1
    13    10    11    1
    14    12    11    1
    15    14    13    1
    16    14    15    1
    17    15    18    2
    18    16    17    1
    19    16    15    1
    20    19    14    2
    21    20    21    2
    22    20    19    1
    23    21    26    1
    24    22    21    1
    25    23    22    1
    26    24    23    1
    27    24    25    1
    28    26    27    1
    29    26    13    2
    30    28    39    1
    31    28    36    1
    32    28    37    1
    33    29    35    1
    34    31    32    1
    35    32    29    1
    36    32    40    1
    37    33    38    1
    38    33    31    1
    39    35    30    1
    40    36    13    1
    41    36    33    1
    42    37    34    1
    43    37    38    1
    44    40    30    1
