@<TRIPOS>MOLECULE
outputs/IAG933/test6/raw/output_2754_IAG933_linker_design_.xyz
 45 49 0 0 0
SMALL
GASTEIGER

@<TRIPOS>ATOM
      1 C         -24.8550   -1.0120   30.1430 C.3     1  UNL1        0.0965
      2 C         -24.9730   -2.5050   29.7880 C.2     1  UNL1       -0.0064
      3 C         -23.9060   -3.1730   29.1460 C.2     1  UNL1       -0.0029
      4 C         -23.9890   -4.5490   28.8530 C.2     1  UNL1       -0.0003
      5 C         -25.1370   -5.2800   29.2050 C.2     1  UNL1       -0.0000
      6 C         -26.2320   -4.6110   29.7840 C.2     1  UNL1       -0.0003
      7 C         -26.1550   -3.2320   30.0650 C.2     1  UNL1       -0.0029
      8 C         -25.3870   -0.6790   31.5710 C.3     1  UNL1        0.0916
      9 C         -25.1890    0.7730   32.0280 C.3     1  UNL1        0.0206
     10 C         -25.3360    0.6840   33.5440 C.3     1  UNL1        0.0203
     11 C         -24.8290   -0.7150   33.9050 C.3     1  UNL1        0.0888
     12 N         -24.7580   -1.4810   32.6460 N.3     1  UNL1       -0.2178
     13 C         -25.6880    1.6140   26.4610 C.3     1  UNL1        0.0888
     14 C         -26.2500    2.9200   26.3950 C.2     1  UNL1        0.0564
     15 C         -25.6420    4.0930   27.1230 C.2     1  UNL1        0.2625
     16 N         -25.6140    5.2520   26.4490 N.am    1  UNL1       -0.2000
     17 C         -25.0260    6.4790   26.9630 C.3     1  UNL1        0.1388
     18 O         -25.1430    3.9660   28.2430 O.2     1  UNL1       -0.2687
     19 C         -27.4380    3.0910   25.6450 C.2     1  UNL1        0.1022
     20 N         -28.0750    2.0890   25.0030 N.2     1  UNL1       -0.2119
     21 C         -27.5430    0.8490   25.0790 C.2     1  UNL1        0.2341
     22 O         -28.1930   -0.2080   24.4770 O.2     1  UNL1       -0.4585
     23 C         -29.4600    0.0050   23.8660 C.3     1  UNL1        0.2423
     24 C         -30.0650   -1.3770   23.5730 C.3     1  UNL1        0.2292
     25 O         -30.7290   -1.8780   24.7210 O.3     1  UNL1       -0.2162
     26 C         -26.3540    0.5760   25.7770 C.3     1  UNL1        0.2416
     27 F         -25.8600   -0.6810   25.7950 F       1  UNL1       -0.2268
     28 N         -22.6713   -0.2647   28.8896 N.pl3   1  UNL1       -0.1283
     29 N         -24.9957    0.0320   29.0549 N.3     1  UNL1       -0.2642
     30 C         -29.2582    2.2623   31.4019 C.3     1  UNL1        0.1769
     31 O         -27.9923    2.7303   31.0289 O.3     1  UNL1       -0.3241
     32 C         -27.6087   -0.0872   28.5899 C.3     1  UNL1        0.1625
     33 O         -30.0308    4.0095   29.9020 O.3     1  UNL1       -0.3484
     34 C         -23.5668    1.3304   27.3537 C.2     1  UNL1        0.0092
     35 C         -30.3718    2.5979   30.3716 C.3     1  UNL1        0.1743
     36 C         -22.5187    0.7947   28.0541 C.2     1  UNL1        0.0864
     37 C         -20.9508    1.8744   26.7211 C.2     1  UNL1        0.0014
     38 C         -29.6571    4.7211   31.0481 C.3     1  UNL1        0.1742
     39 C         -23.2530    1.9953   26.1953 C.2     1  UNL1       -0.0016
     40 C         -26.3388    0.4490   28.6149 C.3     1  UNL1        0.1057
     41 C         -27.6901    2.1317   29.7296 C.3     1  UNL1        0.2941
     42 C         -21.9301    2.1990   25.8210 C.2     1  UNL1       -0.0002
     43 O         -28.3253    0.8653   29.3530 O.3     1  UNL1       -0.3253
     44 C         -25.0775    1.1043   27.8131 C.3     1  UNL1        0.0887
     45 C         -21.2430    1.1237   27.8505 C.2     1  UNL1        0.0178
@<TRIPOS>BOND
     1     1     2    1
     2     2     7    1
     3     3     2    2
     4     4     3    1
     5     4     5    2
     6     5     6    1
     7     6     7    2
     8     8     1    1
     9     8     9    1
    10     8    12    1
    11     9    10    1
    12    10    11    1
    13    12    11    1
    14    13    14    1
    15    13    44    1
    16    14    15    1
    17    15    18    2
    18    16    17    1
    19    16    15    1
    20    19    14    2
    21    20    21    2
    22    20    19    1
    23    21    26    1
    24    22    21    1
    25    23    22    1
    26    24    23    1
    27    24    25    1
    28    26    27    1
    29    26    13    1
    30    29     1    1
    31    31    30    1
    32    32    43    1
    33    33    35    1
    34    33    38    1
    35    34    36    1
    36    35    30    1
    37    36    28    1
    38    37    45    1
    39    39    34    2
    40    40    32    1
    41    40    29    1
    42    41    31    1
    43    42    39    1
    44    42    37    2
    45    43    41    1
    46    44    34    1
    47    44    40    1
    48    44    29    1
    49    45    36    2
