@<TRIPOS>MOLECULE
outputs/IAG933/test6/raw/output_2755_IAG933_linker_design_.xyz
 47 51 0 0 0
SMALL
GASTEIGER

@<TRIPOS>ATOM
      1 C         -24.8550   -1.0120   30.1430 C.3     1  UNL1        0.0530
      2 C         -24.9730   -2.5050   29.7880 C.2     1  UNL1       -0.0198
      3 C         -23.9060   -3.1730   29.1460 C.2     1  UNL1       -0.0042
      4 C         -23.9890   -4.5490   28.8530 C.2     1  UNL1       -0.0003
      5 C         -25.1370   -5.2800   29.2050 C.2     1  UNL1       -0.0000
      6 C         -26.2320   -4.6110   29.7840 C.2     1  UNL1       -0.0003
      7 C         -26.1550   -3.2320   30.0650 C.2     1  UNL1       -0.0042
      8 C         -25.3870   -0.6790   31.5710 C.3     1  UNL1        0.0781
      9 C         -25.1890    0.7730   32.0280 C.3     1  UNL1        0.0192
     10 C         -25.3360    0.6840   33.5440 C.3     1  UNL1        0.0202
     11 C         -24.8290   -0.7150   33.9050 C.3     1  UNL1        0.0887
     12 N         -24.7580   -1.4810   32.6460 N.3     1  UNL1       -0.2191
     13 C         -25.6880    1.6140   26.4610 C.3     1  UNL1        0.0856
     14 C         -26.2500    2.9200   26.3950 C.2     1  UNL1        0.0561
     15 C         -25.6420    4.0930   27.1230 C.2     1  UNL1        0.2625
     16 N         -25.6140    5.2520   26.4490 N.am    1  UNL1       -0.2000
     17 C         -25.0260    6.4790   26.9630 C.3     1  UNL1        0.1388
     18 O         -25.1430    3.9660   28.2430 O.2     1  UNL1       -0.2687
     19 C         -27.4380    3.0910   25.6450 C.2     1  UNL1        0.1022
     20 N         -28.0750    2.0890   25.0030 N.2     1  UNL1       -0.2119
     21 C         -27.5430    0.8490   25.0790 C.2     1  UNL1        0.2341
     22 O         -28.1930   -0.2080   24.4770 O.2     1  UNL1       -0.4585
     23 C         -29.4600    0.0050   23.8660 C.3     1  UNL1        0.2423
     24 C         -30.0650   -1.3770   23.5730 C.3     1  UNL1        0.2292
     25 O         -30.7290   -1.8780   24.7210 O.3     1  UNL1       -0.2162
     26 C         -26.3540    0.5760   25.7770 C.3     1  UNL1        0.2413
     27 F         -25.8600   -0.6810   25.7950 F       1  UNL1       -0.2268
     28 C         -30.0021    5.8957   29.7120 C.3     1  UNL1        0.0000
     29 C         -24.1821    1.3344   26.8865 C.3     1  UNL1        0.0756
     30 C         -25.3127   -0.0749   29.0035 C.3     1  UNL1        0.0637
     31 C         -30.2675    0.1745   27.8315 C.2     1  UNL1       -0.0290
     32 C         -29.2638    4.2941   27.9066 C.3     1  UNL1        0.0000
     33 C         -30.4603    3.5050   31.4343 C.3     1  UNL1        0.0012
     34 C         -22.8576    0.3926   28.8846 C.3     1  UNL1        0.0838
     35 C         -29.0874   -0.6038   28.0093 C.3     1  UNL1        0.0365
     36 S         -28.3635    1.0487   30.2088 S.3     1  UNL1       -0.1371
     37 C         -21.4901    0.7144   28.3090 C.3     1  UNL1        0.0749
     38 C         -22.9812    1.7231   26.0223 C.3     1  UNL1        0.0739
     39 C         -29.5924    1.9950   29.5497 C.3     1  UNL1        0.0691
     40 C         -26.7413   -0.1869   28.5207 C.3     1  UNL1        0.0275
     41 C         -31.5826    4.2105   28.8501 C.3     1  UNL1        0.0000
     42 C         -28.1580   -0.0548   29.0100 C.3     1  UNL1        0.0536
     43 S         -21.5822    1.8388   26.9026 S.3     1  UNL1       -0.1374
     44 C         -30.0848    4.4682   29.1599 C.3     1  UNL1        0.0011
     45 N         -24.0561    0.1646   28.2117 N.3     1  UNL1       -0.2728
     46 C         -30.5378    1.3758   28.6195 C.2     1  UNL1       -0.0202
     47 C         -29.5985    3.3830   30.1669 C.3     1  UNL1        0.0141
@<TRIPOS>BOND
     1     1    30    1
     2     2     7    1
     3     2     1    1
     4     3     2    2
     5     4     3    1
     6     4     5    2
     7     5     6    1
     8     6     7    2
     9     8     1    1
    10     8     9    1
    11     8    12    1
    12     9    10    1
    13    10    11    1
    14    12    11    1
    15    13    14    1
    16    13    29    1
    17    14    15    1
    18    15    18    2
    19    16    17    1
    20    16    15    1
    21    19    14    2
    22    20    21    2
    23    20    19    1
    24    21    26    1
    25    22    21    1
    26    23    22    1
    27    24    23    1
    28    24    25    1
    29    26    27    1
    30    26    13    1
    31    29    38    1
    32    29    45    1
    33    30    40    1
    34    31    35    1
    35    31    46    2
    36    32    44    1
    37    35    42    1
    38    37    34    1
    39    38    43    1
    40    39    47    1
    41    39    36    1
    42    41    44    1
    43    42    40    1
    44    42    36    1
    45    43    37    1
    46    44    28    1
    47    44    47    1
    48    45    34    1
    49    45    30    1
    50    46    39    1
    51    47    33    1
