@<TRIPOS>MOLECULE
outputs/IAG933/test6/raw/output_2757_IAG933_linker_design_.xyz
 42 45 0 0 0
SMALL
GASTEIGER

@<TRIPOS>ATOM
      1 C         -24.8550   -1.0120   30.1430 C.3     1  UNL1        0.1196
      2 C         -24.9730   -2.5050   29.7880 C.2     1  UNL1       -0.0025
      3 C         -23.9060   -3.1730   29.1460 C.2     1  UNL1       -0.0026
      4 C         -23.9890   -4.5490   28.8530 C.2     1  UNL1       -0.0003
      5 C         -25.1370   -5.2800   29.2050 C.2     1  UNL1       -0.0000
      6 C         -26.2320   -4.6110   29.7840 C.2     1  UNL1       -0.0003
      7 C         -26.1550   -3.2320   30.0650 C.2     1  UNL1       -0.0026
      8 C         -25.3870   -0.6790   31.5710 C.3     1  UNL1        0.0955
      9 C         -25.1890    0.7730   32.0280 C.3     1  UNL1        0.0209
     10 C         -25.3360    0.6840   33.5440 C.3     1  UNL1        0.0203
     11 C         -24.8290   -0.7150   33.9050 C.3     1  UNL1        0.0888
     12 N         -24.7580   -1.4810   32.6460 N.3     1  UNL1       -0.2174
     13 C         -25.6880    1.6140   26.4610 C.2     1  UNL1        0.0423
     14 C         -26.2500    2.9200   26.3950 C.2     1  UNL1        0.0767
     15 C         -25.6420    4.0930   27.1230 C.2     1  UNL1        0.2664
     16 N         -25.6140    5.2520   26.4490 N.am    1  UNL1       -0.1997
     17 C         -25.0260    6.4790   26.9630 C.3     1  UNL1        0.1388
     18 O         -25.1430    3.9660   28.2430 O.2     1  UNL1       -0.2683
     19 C         -27.4380    3.0910   25.6450 C.2     1  UNL1        0.1067
     20 N         -28.0750    2.0890   25.0030 N.2     1  UNL1       -0.2081
     21 C         -27.5430    0.8490   25.0790 C.2     1  UNL1        0.2533
     22 O         -28.1930   -0.2080   24.4770 O.2     1  UNL1       -0.4558
     23 C         -29.4600    0.0050   23.8660 C.3     1  UNL1        0.2426
     24 C         -30.0650   -1.3770   23.5730 C.3     1  UNL1        0.2292
     25 O         -30.7290   -1.8780   24.7210 O.3     1  UNL1       -0.2162
     26 C         -26.3540    0.5760   25.7770 C.2     1  UNL1        0.1932
     27 F         -25.8600   -0.6810   25.7950 F       1  UNL1       -0.1992
     28 N         -26.9416    1.7989   29.3209 N.am    1  UNL1       -0.1863
     29 C         -23.5658    1.4558   26.3569 C.2     1  UNL1        0.1694
     30 C         -24.4420    0.6298   28.3883 C.2     1  UNL1        0.0610
     31 C         -26.7170    0.4822   29.2491 C.2     1  UNL1        0.3273
     32 C         -24.5942    1.2004   27.1359 C.2     1  UNL1        0.0526
     33 C         -22.0465    1.0688   28.0764 C.2     1  UNL1        0.1717
     34 C         -27.5189    2.4628   30.5139 C.3     1  UNL1        0.1402
     35 O         -27.6286   -0.3019   29.2678 O.2     1  UNL1       -0.2504
     36 N         -25.3820    0.0081   29.2024 N.am    1  UNL1       -0.2381
     37 C         -22.9708    1.8010   23.9570 C.3     1  UNL1        0.2526
     38 C         -23.0833    0.6049   28.8538 C.2     1  UNL1        0.0471
     39 F         -20.9059    1.1944   28.1432 F       1  UNL1       -0.2016
     40 F         -21.4672    2.2840   26.0991 F       1  UNL1       -0.1986
     41 O         -23.7854    1.3283   24.9875 O.2     1  UNL1       -0.4690
     42 C         -22.4153    1.6065   26.8279 C.2     1  UNL1        0.2011
@<TRIPOS>BOND
     1     1    36    1
     2     2     7    1
     3     2     1    1
     4     3     2    2
     5     4     3    1
     6     4     5    2
     7     5     6    1
     8     6     7    2
     9     8     1    1
    10     8     9    1
    11     8    12    1
    12     9    10    1
    13    10    11    1
    14    12    11    1
    15    13    32    1
    16    14    13    1
    17    14    15    1
    18    15    18    2
    19    16    17    1
    20    16    15    1
    21    19    14    2
    22    20    21    2
    23    20    19    1
    24    21    26    1
    25    22    21    1
    26    23    22    1
    27    24    23    1
    28    24    25    1
    29    26    27    1
    30    26    13    2
    31    28    34    1
    32    29    42    2
    33    29    32    1
    34    30    38    1
    35    30    36    1
    36    31    35    2
    37    31    28    1
    38    32    30    2
    39    33    39    1
    40    33    38    2
    41    36    31   am
    42    37    41    1
    43    40    42    1
    44    41    29    1
    45    42    33    1
