@<TRIPOS>MOLECULE
No_2758-gen_results/8p0m/2024-11-27-11-27-31/
 18 18 0 0 0
SMALL
GASTEIGER

@<TRIPOS>ATOM
      1 C         -28.0162   -0.8135   28.8779 C.ar    1  UNL1        0.0349
      2 C         -27.0636   -0.1189   28.6079 C.ar    1  UNL1        0.0080
      3 C         -25.7647   -0.3897   29.0360 C.ar    1  UNL1        0.1363
      4 C         -25.5296   -1.5302   29.9014 C.ar    1  UNL1        0.0324
      5 C         -26.6888   -2.2893   30.1810 C.ar    1  UNL1        0.0393
      6 C         -27.8727   -1.9508   29.7373 C.ar    1  UNL1        0.1417
      7 F         -24.6993    0.3604   28.7753 F       1  UNL1       -0.2045
      8 O         -28.9654   -2.7324   30.0906 O.3     1  UNL1       -0.4433
      9 C         -28.8025   -3.9628   30.5897 C.3     1  UNL1        0.4233
     10 C         -29.9349   -4.4125   31.3374 C.3     1  UNL1        0.4687
     11 F         -29.7344   -5.4730   31.7008 F       1  UNL1       -0.1641
     12 F         -30.1394   -3.6044   32.3350 F       1  UNL1       -0.1641
     13 F         -31.0668   -4.3668   30.5212 F       1  UNL1       -0.1641
     14 F         -28.3855   -4.7860   29.5991 F       1  UNL1       -0.1787
     15 C         -27.1462    1.0854   27.6646 C.3     1  UNL1        0.0247
     16 C         -27.2309    2.2305   28.0714 C.3     1  UNL1        0.0048
     17 C         -27.2049    0.7511   26.2517 C.3     1  UNL1        0.0044
     18 C         -26.8149   -0.2758   25.6439 C.3     1  UNL1        0.0003
@<TRIPOS>BOND
     1     3     7    1
     2     6     8    1
     3     8     9    1
     4     9    10    1
     5    10    11    1
     6    10    12    1
     7    10    13    1
     8     9    14    1
     9     2    15    1
    10    15    16    1
    11    15    17    1
    12    17    18    1
    13     1     2   ar
    14     2     3   ar
    15     3     4   ar
    16     4     5   ar
    17     5     6   ar
    18     6     1   ar
