@<TRIPOS>MOLECULE
No_2759-gen_results/8p0m/2024-11-27-11-27-31/
 35 37 0 0 0
SMALL
GASTEIGER

@<TRIPOS>ATOM
      1 C         -28.0162   -0.8135   28.8779 C.ar    1  UNL1        0.0159
      2 C         -28.4690   -0.7850   29.8287 C.ar    1  UNL1        0.0544
      3 C         -26.5455   -0.8762   28.8500 C.ar    1  UNL1        0.0578
      4 C         -25.8041   -1.0324   30.0571 C.ar    1  UNL1        0.0108
      5 C         -27.9437   -0.9869   31.2075 C.ar    1  UNL1        0.0046
      6 C         -24.4008   -1.0969   30.0965 C.ar    1  UNL1        0.0071
      7 C         -26.5612   -1.0746   31.2270 C.ar    1  UNL1        0.0010
      8 C         -23.7342    0.1405   29.9379 C.ar    1  UNL1        0.0761
      9 C         -22.4073    0.1808   29.4004 C.ar    1  UNL1        0.0065
     10 C         -21.7778   -1.0662   29.1520 C.ar    1  UNL1        0.0002
     11 C         -22.5827   -2.1747   29.0453 C.ar    1  UNL1        0.0000
     12 C         -23.8344   -2.2779   29.5597 C.ar    1  UNL1        0.0002
     13 C         -30.0824   -0.6696   29.8864 C.2     1  UNL1        0.2490
     14 O         -30.7935   -1.4345   30.3542 O.2     1  UNL1       -0.2699
     15 N         -30.5347    0.4234   29.2205 N.am    1  UNL1       -0.2761
     16 C         -31.9416    0.6510   29.0775 C.3     1  UNL1        0.0937
     17 C         -32.2667    1.6878   28.6159 C.3     1  UNL1        0.0216
     18 C         -31.3188    2.6574   28.0411 C.3     1  UNL1        0.0035
     19 C         -29.9375    2.3873   28.1357 C.3     1  UNL1        0.0216
     20 C         -29.5595    1.3522   28.7517 C.3     1  UNL1        0.0937
     21 C         -24.2926    1.4233   30.4739 C.2     1  UNL1        0.3481
     22 O         -24.6861    2.3005   29.6502 O.3     1  UNL1       -0.3828
     23 O         -24.4162    1.5519   31.7772 O.2     1  UNL1       -0.2444
     24 C         -25.6557    3.2392   30.0170 C.2     1  UNL1        0.4042
     25 C         -26.1626    3.9949   28.9312 C.2     1  UNL1        0.3452
     26 O         -26.0693    3.6052   27.8858 O.2     1  UNL1       -0.2609
     27 N         -26.9796    5.0659   29.2340 N.am    1  UNL1       -0.1733
     28 C         -27.5352    5.9023   28.1882 C.2     1  UNL1        0.0627
     29 O         -26.1610    3.3179   31.1742 O.2     1  UNL1       -0.2392
     30 CL        -25.6950   -0.7689   27.3665 Cl      1  UNL1       -0.0822
     31 C         -27.1713    7.2727   28.5192 C.3     1  UNL1        0.0433
     32 C         -26.5092    7.6795   29.5110 C.3     1  UNL1        0.0318
     33 C         -26.0481    8.9613   29.7174 C.2     1  UNL1       -0.0258
     34 C         -26.3822    9.9343   28.7771 C.2     1  UNL1       -0.0049
     35 C         -27.6825    8.2964   27.5192 C.3     1  UNL1        0.0065
@<TRIPOS>BOND
     1     4     6    1
     2     2    13    1
     3    13    14    2
     4    13    15   am
     5    15    16    1
     6    17    18    1
     7    15    20    1
     8    19    20    1
     9     8    21    1
    10    21    22    1
    11    21    23    2
    12    22    24    1
    13    24    25    1
    14    25    26    2
    15    25    27    1
    16    27    28    2
    17    24    29    2
    18     3    30    1
    19    28    31    1
    20    31    32    1
    21    32    33    1
    22    33    34    2
    23    31    35    1
    24    16    17    1
    25    18    19    1
    26     6     8   ar
    27     8     9   ar
    28     9    10   ar
    29    10    11   ar
    30    11    12   ar
    31    12     6   ar
    32     1     2   ar
    33     2     5   ar
    34     5     7   ar
    35     7     4   ar
    36     4     3   ar
    37     3     1   ar
