@<TRIPOS>MOLECULE
No_2760-gen_results/8p0m/2024-11-27-11-27-31/
 31 34 0 0 0
SMALL
GASTEIGER

@<TRIPOS>ATOM
      1 F         -28.0727   -1.2542   28.5316 F       1  UNL1       -0.2042
      2 C         -27.0607   -0.6291   28.8721 C.ar    1  UNL1        0.1401
      3 C         -26.3579   -0.0711   28.0115 C.ar    1  UNL1        0.0296
      4 C         -25.0715    0.5530   28.2555 C.ar    1  UNL1        0.0024
      5 C         -24.5772    0.4803   29.5696 C.ar    1  UNL1        0.0001
      6 C         -25.3317   -0.2027   30.5060 C.ar    1  UNL1        0.0023
      7 C         -26.4956   -0.7357   30.1606 C.ar    1  UNL1        0.0296
      8 C         -24.2552    1.2560   27.2599 C.2     1  UNL1        0.0047
      9 C         -24.0079    2.4028   27.2818 C.2     1  UNL1        0.0579
     10 C         -24.5013    3.2425   28.3967 C.2     1  UNL1        0.2492
     11 N         -24.9740    4.5550   28.0037 N.am    1  UNL1       -0.2735
     12 O         -24.3326    3.0991   29.5946 O.2     1  UNL1       -0.2699
     13 C         -25.2656    4.8656   26.6989 C.3     1  UNL1        0.1232
     14 C         -25.5217    5.4704   28.9920 C.3     1  UNL1        0.0961
     15 C         -26.9189    5.4468   28.9612 C.3     1  UNL1        0.0461
     16 C         -27.4349    6.0579   27.7177 C.3     1  UNL1        0.0354
     17 C         -26.8910    5.1416   26.5478 C.3     1  UNL1        0.1378
     18 C         -27.4642    6.3438   30.1395 C.3     1  UNL1        0.0041
     19 C         -28.3724    5.7674   30.8308 C.3     1  UNL1        0.0006
     20 C         -28.5670    4.4877   30.7223 C.3     1  UNL1        0.0068
     21 C         -28.0922    3.6741   29.6373 C.3     1  UNL1        0.0490
     22 C         -28.4008    2.2769   29.5294 C.2     1  UNL1       -0.0283
     23 C         -27.4070    4.3908   28.8999 C.3     1  UNL1        0.1234
     24 O         -27.2061    3.6421   27.7996 O.3     1  UNL1       -0.3289
     25 C         -28.2374    3.3272   27.0430 C.3     1  UNL1        0.2939
     26 O         -27.5755    4.5368   25.8222 O.3     1  UNL1       -0.3275
     27 C         -29.4348    1.6877   29.7288 C.2     1  UNL1       -0.0259
     28 C         -30.5114    1.9555   29.9026 C.3     1  UNL1        0.0513
     29 C         -31.6878    1.1176   30.1192 C.2     1  UNL1       -0.0260
     30 C         -31.3907   -0.2393   30.1217 C.2     1  UNL1       -0.0300
     31 C         -30.1459   -0.7211   30.0082 C.3     1  UNL1        0.0304
@<TRIPOS>BOND
     1     1     2    1
     2     4     8    1
     3     8     9    2
     4     9    10    1
     5    10    11   am
     6    10    12    2
     7    11    13    1
     8    11    14    1
     9    14    15    1
    10    15    16    1
    11    13    17    1
    12    16    17    1
    13    15    18    1
    14    18    19    1
    15    20    21    1
    16    21    22    1
    17    15    23    1
    18    21    23    1
    19    23    24    1
    20    24    25    1
    21    17    26    1
    22    25    26    1
    23    22    27    2
    24    27    28    1
    25    28    29    1
    26    29    30    2
    27    30    31    1
    28    19    20    1
    29     2     3   ar
    30     3     4   ar
    31     4     5   ar
    32     5     6   ar
    33     6     7   ar
    34     7     2   ar
