@<TRIPOS>MOLECULE
outputs/IAG933/test6/raw/output_2764_IAG933_linker_design_.xyz
 44 47 0 0 0
SMALL
GASTEIGER

@<TRIPOS>ATOM
      1 C         -24.8550   -1.0120   30.1430 C.3     1  UNL1        0.1322
      2 C         -24.9730   -2.5050   29.7880 C.2     1  UNL1       -0.0012
      3 C         -23.9060   -3.1730   29.1460 C.2     1  UNL1       -0.0026
      4 C         -23.9890   -4.5490   28.8530 C.2     1  UNL1       -0.0003
      5 C         -25.1370   -5.2800   29.2050 C.2     1  UNL1       -0.0000
      6 C         -26.2320   -4.6110   29.7840 C.2     1  UNL1       -0.0003
      7 C         -26.1550   -3.2320   30.0650 C.2     1  UNL1       -0.0026
      8 C         -25.3870   -0.6790   31.5710 C.3     1  UNL1        0.0968
      9 C         -25.1890    0.7730   32.0280 C.3     1  UNL1        0.0210
     10 C         -25.3360    0.6840   33.5440 C.3     1  UNL1        0.0203
     11 C         -24.8290   -0.7150   33.9050 C.3     1  UNL1        0.0888
     12 N         -24.7580   -1.4810   32.6460 N.3     1  UNL1       -0.2174
     13 C         -25.6880    1.6140   26.4610 C.2     1  UNL1        0.0424
     14 C         -26.2500    2.9200   26.3950 C.2     1  UNL1        0.0767
     15 C         -25.6420    4.0930   27.1230 C.2     1  UNL1        0.2664
     16 N         -25.6140    5.2520   26.4490 N.am    1  UNL1       -0.1997
     17 C         -25.0260    6.4790   26.9630 C.3     1  UNL1        0.1388
     18 O         -25.1430    3.9660   28.2430 O.2     1  UNL1       -0.2683
     19 C         -27.4380    3.0910   25.6450 C.2     1  UNL1        0.1067
     20 N         -28.0750    2.0890   25.0030 N.2     1  UNL1       -0.2081
     21 C         -27.5430    0.8490   25.0790 C.2     1  UNL1        0.2533
     22 O         -28.1930   -0.2080   24.4770 O.2     1  UNL1       -0.4558
     23 C         -29.4600    0.0050   23.8660 C.3     1  UNL1        0.2426
     24 C         -30.0650   -1.3770   23.5730 C.3     1  UNL1        0.2292
     25 O         -30.7290   -1.8780   24.7210 O.3     1  UNL1       -0.2162
     26 C         -26.3540    0.5760   25.7770 C.2     1  UNL1        0.1932
     27 F         -25.8600   -0.6810   25.7950 F       1  UNL1       -0.1992
     28 C         -31.0938    1.2916   29.6286 C.3     1  UNL1        0.0361
     29 C         -29.9457    0.3413   29.2161 C.3     1  UNL1        0.1633
     30 C         -27.9931    2.3625   29.9002 C.3     1  UNL1        0.1938
     31 N         -25.1142   -0.0154   29.0356 N.pl3   1  UNL1       -0.2138
     32 N         -26.2776    0.4829   28.9718 N.am    1  UNL1       -0.1093
     33 C         -21.6358    0.9101   27.9440 C.2     1  UNL1        0.0046
     34 C         -21.8163    1.6456   26.7789 C.2     1  UNL1        0.0421
     35 O         -27.9053   -1.1234   28.5287 O.2     1  UNL1       -0.2715
     36 O         -29.6562    0.3900   27.8104 O.3     1  UNL1       -0.2225
     37 C         -27.5128   -0.0618   29.1041 C.2     1  UNL1        0.2639
     38 O         -28.8951    3.2279   29.1349 O.3     1  UNL1       -0.2198
     39 C         -28.5553    0.8208   29.8034 C.3     1  UNL1        0.1429
     40 C         -23.9869    0.6698   28.2653 C.2     1  UNL1        0.0705
     41 C         -23.1199    1.9802   26.4095 C.2     1  UNL1        0.1970
     42 C         -22.7029    0.4245   28.6707 C.2     1  UNL1        0.0164
     43 C         -24.3001    1.3743   27.0790 C.2     1  UNL1        0.0563
     44 O         -23.2905    2.9466   25.5155 O.2     1  UNL1       -0.2865
@<TRIPOS>BOND
     1     1    31    1
     2     2     7    1
     3     2     1    1
     4     3     2    2
     5     4     3    1
     6     4     5    2
     7     5     6    1
     8     6     7    2
     9     8     1    1
    10     8     9    1
    11     8    12    1
    12     9    10    1
    13    10    11    1
    14    12    11    1
    15    13    43    1
    16    14    13    1
    17    14    15    1
    18    15    18    2
    19    16    17    1
    20    16    15    1
    21    19    14    2
    22    20    21    2
    23    20    19    1
    24    21    26    1
    25    22    21    1
    26    23    22    1
    27    24    23    1
    28    24    25    1
    29    26    27    1
    30    26    13    2
    31    29    28    1
    32    29    39    1
    33    32    31    1
    34    32    37    1
    35    33    42    1
    36    34    33    2
    37    35    37    2
    38    36    29    1
    39    37    39    1
    40    38    30    1
    41    39    30    1
    42    40    42    2
    43    40    31    1
    44    41    34    1
    45    41    43    2
    46    43    40    1
    47    44    41    1
