@<TRIPOS>MOLECULE
outputs/IAG933/test6/raw/output_2765_IAG933_linker_design_.xyz
 42 46 0 0 0
SMALL
GASTEIGER

@<TRIPOS>ATOM
      1 C         -24.8550   -1.0120   30.1430 C.3     1  UNL1        0.0600
      2 C         -24.9730   -2.5050   29.7880 C.2     1  UNL1       -0.0171
      3 C         -23.9060   -3.1730   29.1460 C.2     1  UNL1       -0.0039
      4 C         -23.9890   -4.5490   28.8530 C.2     1  UNL1       -0.0003
      5 C         -25.1370   -5.2800   29.2050 C.2     1  UNL1       -0.0000
      6 C         -26.2320   -4.6110   29.7840 C.2     1  UNL1       -0.0003
      7 C         -26.1550   -3.2320   30.0650 C.2     1  UNL1       -0.0039
      8 C         -25.3870   -0.6790   31.5710 C.3     1  UNL1        0.0808
      9 C         -25.1890    0.7730   32.0280 C.3     1  UNL1        0.0195
     10 C         -25.3360    0.6840   33.5440 C.3     1  UNL1        0.0203
     11 C         -24.8290   -0.7150   33.9050 C.3     1  UNL1        0.0887
     12 N         -24.7580   -1.4810   32.6460 N.3     1  UNL1       -0.2188
     13 C         -25.6880    1.6140   26.4610 C.2     1  UNL1        0.0067
     14 C         -26.2500    2.9200   26.3950 C.2     1  UNL1        0.0529
     15 C         -25.6420    4.0930   27.1230 C.2     1  UNL1        0.2622
     16 N         -25.6140    5.2520   26.4490 N.am    1  UNL1       -0.2000
     17 C         -25.0260    6.4790   26.9630 C.3     1  UNL1        0.1388
     18 O         -25.1430    3.9660   28.2430 O.2     1  UNL1       -0.2687
     19 C         -27.4380    3.0910   25.6450 C.3     1  UNL1        0.1588
     20 N         -28.0750    2.0890   25.0030 N.2     1  UNL1       -0.2341
     21 C         -27.5430    0.8490   25.0790 C.2     1  UNL1        0.2338
     22 O         -28.1930   -0.2080   24.4770 O.2     1  UNL1       -0.4585
     23 C         -29.4600    0.0050   23.8660 C.3     1  UNL1        0.2423
     24 C         -30.0650   -1.3770   23.5730 C.3     1  UNL1        0.2292
     25 O         -30.7290   -1.8780   24.7210 O.3     1  UNL1       -0.2162
     26 C         -26.3540    0.5760   25.7770 C.3     1  UNL1        0.2545
     27 F         -25.8600   -0.6810   25.7950 F       1  UNL1       -0.2227
     28 C         -26.7954    0.2107   28.7236 C.3     1  UNL1        0.0250
     29 C         -28.9592    1.5012   28.9313 C.3     1  UNL1        0.1851
     30 O         -29.3367   -0.4998   27.7505 O.3     1  UNL1       -0.2176
     31 C         -25.2356    0.5482   28.3783 C.2     1  UNL1       -0.0399
     32 C         -22.5842    1.1358   27.9890 C.2     1  UNL1        0.1952
     33 C         -23.0103    0.4023   29.0804 C.2     1  UNL1        0.0373
     34 C         -29.5449    0.1427   29.0041 C.3     1  UNL1        0.2147
     35 C         -24.3324    0.0126   29.2126 C.2     1  UNL1       -0.0212
     36 O         -21.2907    1.3401   27.4675 O.2     1  UNL1       -0.2867
     37 C         -27.4807    1.4754   29.2895 C.3     1  UNL1        0.0400
     38 C         -23.5091    1.5656   27.1221 C.2     1  UNL1        0.0661
     39 C         -22.8609    2.3168   26.0251 C.2     1  UNL1        0.2337
     40 O         -21.4713    2.1147   26.2369 O.2     1  UNL1       -0.2835
     41 O         -29.5030    2.5524   29.6919 O.3     1  UNL1       -0.2203
     42 C         -24.8063    1.2249   27.3215 C.3     1  UNL1        0.0679
@<TRIPOS>BOND
     1     1    35    1
     2     2     7    1
     3     2     1    1
     4     3     2    2
     5     4     3    1
     6     4     5    2
     7     5     6    1
     8     6     7    2
     9     8     1    1
    10     8     9    1
    11     8    12    1
    12     9    10    1
    13    10    11    1
    14    12    11    1
    15    14    13    2
    16    14    15    1
    17    15    18    2
    18    16    17    1
    19    16    15    1
    20    19    14    1
    21    20    21    2
    22    20    19    1
    23    21    26    1
    24    22    21    1
    25    23    22    1
    26    24    23    1
    27    24    25    1
    28    26    27    1
    29    26    13    1
    30    28    37    1
    31    29    34    1
    32    29    37    1
    33    29    41    1
    34    30    34    1
    35    31    28    1
    36    31    35    2
    37    32    33    2
    38    33    35    1
    39    36    32    1
    40    38    42    1
    41    38    32    1
    42    39    40    1
    43    39    38    2
    44    40    36    1
    45    42    13    1
    46    42    31    1
