@<TRIPOS>MOLECULE
outputs/IAG933/test6/raw/output_2766_IAG933_linker_design_.xyz
 45 47 0 0 0
SMALL
GASTEIGER

@<TRIPOS>ATOM
      1 C         -24.8550   -1.0120   30.1430 C.3     1  UNL1        0.0437
      2 C         -24.9730   -2.5050   29.7880 C.2     1  UNL1       -0.0208
      3 C         -23.9060   -3.1730   29.1460 C.2     1  UNL1       -0.0042
      4 C         -23.9890   -4.5490   28.8530 C.2     1  UNL1       -0.0003
      5 C         -25.1370   -5.2800   29.2050 C.2     1  UNL1       -0.0000
      6 C         -26.2320   -4.6110   29.7840 C.2     1  UNL1       -0.0003
      7 C         -26.1550   -3.2320   30.0650 C.2     1  UNL1       -0.0042
      8 C         -25.3870   -0.6790   31.5710 C.3     1  UNL1        0.0780
      9 C         -25.1890    0.7730   32.0280 C.3     1  UNL1        0.0325
     10 C         -25.3360    0.6840   33.5440 C.3     1  UNL1        0.0211
     11 C         -24.8290   -0.7150   33.9050 C.3     1  UNL1        0.0887
     12 N         -24.7580   -1.4810   32.6460 N.3     1  UNL1       -0.2191
     13 C         -25.6880    1.6140   26.4610 C.3     1  UNL1        0.1501
     14 C         -26.2500    2.9200   26.3950 C.2     1  UNL1        0.0735
     15 C         -25.6420    4.0930   27.1230 C.2     1  UNL1        0.2640
     16 N         -25.6140    5.2520   26.4490 N.am    1  UNL1       -0.1999
     17 C         -25.0260    6.4790   26.9630 C.3     1  UNL1        0.1388
     18 O         -25.1430    3.9660   28.2430 O.2     1  UNL1       -0.2686
     19 C         -27.4380    3.0910   25.6450 C.2     1  UNL1        0.1038
     20 N         -28.0750    2.0890   25.0030 N.2     1  UNL1       -0.2118
     21 C         -27.5430    0.8490   25.0790 C.2     1  UNL1        0.2359
     22 O         -28.1930   -0.2080   24.4770 O.2     1  UNL1       -0.4585
     23 C         -29.4600    0.0050   23.8660 C.3     1  UNL1        0.2423
     24 C         -30.0650   -1.3770   23.5730 C.3     1  UNL1        0.2292
     25 O         -30.7290   -1.8780   24.7210 O.3     1  UNL1       -0.2162
     26 C         -26.3540    0.5760   25.7770 C.3     1  UNL1        0.2584
     27 F         -25.8600   -0.6810   25.7950 F       1  UNL1       -0.2250
     28 O         -26.4890    4.0397   33.0196 O.3     1  UNL1       -0.4456
     29 C         -25.7485    3.5025   31.9937 C.2     1  UNL1        0.3207
     30 C         -25.2463    1.4334   28.9369 C.2     1  UNL1        0.0642
     31 C         -25.0722    2.0621   30.1292 C.2     1  UNL1        0.0008
     32 N         -24.6718    1.4219   27.5316 N.am    1  UNL1       -0.2462
     33 C         -22.2053    0.9370   27.9491 C.2     1  UNL1        0.2269
     34 O         -28.9883    2.7565   32.0890 O.3     1  UNL1       -0.0347
     35 C         -28.5693    5.6547   30.4428 C.3     1  UNL1        0.0369
     36 C         -27.1146    5.3094   32.5861 C.3     1  UNL1        0.2385
     37 O         -28.9710    3.8499   32.0767 O.3     1  UNL1       -0.1905
     38 C         -23.2699    1.6575   27.0584 C.2     1  UNL1        0.2879
     39 O         -23.0612    2.4696   26.1658 O.2     1  UNL1       -0.2664
     40 C         -25.9116    2.0365   31.4793 C.3     1  UNL1        0.1236
     41 O         -22.4015    0.3421   28.9681 O.2     1  UNL1       -0.2865
     42 C         -29.5962    6.1758   32.6496 C.3     1  UNL1        0.0369
     43 O         -24.8351    4.2638   31.5101 O.2     1  UNL1       -0.2498
     44 C         -28.5757    5.2037   31.9265 C.3     1  UNL1        0.1698
     45 C         -20.8704    1.2458   27.4325 C.3     1  UNL1        0.0823
@<TRIPOS>BOND
     1     2     7    1
     2     2     1    1
     3     3     2    2
     4     4     3    1
     5     4     5    2
     6     5     6    1
     7     6     7    2
     8     8     1    1
     9     8     9    1
    10     8    12    1
    11     9    40    1
    12     9    10    1
    13    10    11    1
    14    12    11    1
    15    13    32    1
    16    14    13    1
    17    14    15    1
    18    15    18    2
    19    16    17    1
    20    16    15    1
    21    19    14    2
    22    20    21    2
    23    20    19    1
    24    21    26    1
    25    22    21    1
    26    23    22    1
    27    24    23    1
    28    24    25    1
    29    26    27    1
    30    26    13    1
    31    29    28    1
    32    30    31    2
    33    32    30    1
    34    33    41    2
    35    35    44    1
    36    36    28    1
    37    37    34    1
    38    38    32   am
    39    38    33    1
    40    39    38    2
    41    40    31    1
    42    40    29    1
    43    43    29    2
    44    44    37    1
    45    44    36    1
    46    44    42    1
    47    45    33    1
