@<TRIPOS>MOLECULE
outputs/IAG933/test6/raw/output_2769_IAG933_linker_design_.xyz
 41 45 0 0 0
SMALL
GASTEIGER

@<TRIPOS>ATOM
      1 C         -24.8550   -1.0120   30.1430 C.3     1  UNL1        0.1718
      2 C         -24.9730   -2.5050   29.7880 C.2     1  UNL1        0.0011
      3 C         -23.9060   -3.1730   29.1460 C.2     1  UNL1       -0.0026
      4 C         -23.9890   -4.5490   28.8530 C.2     1  UNL1       -0.0003
      5 C         -25.1370   -5.2800   29.2050 C.2     1  UNL1       -0.0000
      6 C         -26.2320   -4.6110   29.7840 C.2     1  UNL1       -0.0003
      7 C         -26.1550   -3.2320   30.0650 C.2     1  UNL1       -0.0026
      8 C         -25.3870   -0.6790   31.5710 C.3     1  UNL1        0.0992
      9 C         -25.1890    0.7730   32.0280 C.3     1  UNL1        0.0210
     10 C         -25.3360    0.6840   33.5440 C.3     1  UNL1        0.0203
     11 C         -24.8290   -0.7150   33.9050 C.3     1  UNL1        0.0888
     12 N         -24.7580   -1.4810   32.6460 N.3     1  UNL1       -0.2174
     13 C         -25.6880    1.6140   26.4610 C.2     1  UNL1        0.0424
     14 C         -26.2500    2.9200   26.3950 C.2     1  UNL1        0.0767
     15 C         -25.6420    4.0930   27.1230 C.2     1  UNL1        0.2664
     16 N         -25.6140    5.2520   26.4490 N.am    1  UNL1       -0.1997
     17 C         -25.0260    6.4790   26.9630 C.3     1  UNL1        0.1388
     18 O         -25.1430    3.9660   28.2430 O.2     1  UNL1       -0.2683
     19 C         -27.4380    3.0910   25.6450 C.2     1  UNL1        0.1067
     20 N         -28.0750    2.0890   25.0030 N.2     1  UNL1       -0.2081
     21 C         -27.5430    0.8490   25.0790 C.2     1  UNL1        0.2533
     22 O         -28.1930   -0.2080   24.4770 O.2     1  UNL1       -0.4558
     23 C         -29.4600    0.0050   23.8660 C.3     1  UNL1        0.2426
     24 C         -30.0650   -1.3770   23.5730 C.3     1  UNL1        0.2292
     25 O         -30.7290   -1.8780   24.7210 O.3     1  UNL1       -0.2162
     26 C         -26.3540    0.5760   25.7770 C.2     1  UNL1        0.1932
     27 F         -25.8600   -0.6810   25.7950 F       1  UNL1       -0.1992
     28 C         -20.8840   -0.4240   29.0217 C.2     1  UNL1       -0.0214
     29 C         -23.2632    1.6056   26.4746 C.2     1  UNL1        0.1898
     30 S         -25.6225    0.2591   29.1725 S.O2    1  UNL1        0.0120
     31 C         -22.2554   -0.3873   29.2361 C.3     1  UNL1        0.0537
     32 C         -21.0037    1.3225   27.5308 C.2     1  UNL1        0.0026
     33 O         -26.0247    1.5546   29.7684 O.2     1  UNL1       -0.1683
     34 C         -22.9876    0.3813   28.3988 C.2     1  UNL1        0.0025
     35 O         -22.9566    2.1605   25.3396 O.2     1  UNL1       -0.2919
     36 F         -21.6104    2.4217   25.1488 F       1  UNL1        0.0138
     37 C         -24.5343    1.2409   27.0172 C.2     1  UNL1        0.0575
     38 C         -22.3252    1.1726   27.4123 C.2     1  UNL1        0.0358
     39 C         -20.2869    0.3580   28.2539 C.2     1  UNL1       -0.0041
     40 O         -26.6587   -0.4200   28.5330 O.2     1  UNL1       -0.1683
     41 C         -24.3686    0.5387   28.1704 C.2     1  UNL1        0.1055
@<TRIPOS>BOND
     1     1    30    1
     2     2     7    1
     3     2     1    1
     4     3     2    2
     5     4     3    1
     6     4     5    2
     7     5     6    1
     8     6     7    2
     9     8     1    1
    10     8     9    1
    11     8    12    1
    12     9    10    1
    13    10    11    1
    14    12    11    1
    15    13    37    1
    16    14    13    1
    17    14    15    1
    18    15    18    2
    19    16    17    1
    20    16    15    1
    21    19    14    2
    22    20    21    2
    23    20    19    1
    24    21    26    1
    25    22    21    1
    26    23    22    1
    27    24    23    1
    28    24    25    1
    29    26    27    1
    30    26    13    2
    31    28    31    1
    32    29    37    2
    33    29    38    1
    34    30    33    2
    35    32    39    1
    36    34    31    1
    37    35    29    1
    38    36    35    1
    39    37    41    1
    40    38    32    2
    41    38    34    1
    42    39    28    2
    43    40    30    2
    44    41    34    2
    45    41    30    1
