@<TRIPOS>MOLECULE
outputs/IAG933/test6/raw/output_2770_IAG933_linker_design_.xyz
 41 45 0 0 0
SMALL
GASTEIGER

@<TRIPOS>ATOM
      1 C         -24.8550   -1.0120   30.1430 C.3     1  UNL1        0.0602
      2 C         -24.9730   -2.5050   29.7880 C.2     1  UNL1       -0.0171
      3 C         -23.9060   -3.1730   29.1460 C.2     1  UNL1       -0.0039
      4 C         -23.9890   -4.5490   28.8530 C.2     1  UNL1       -0.0003
      5 C         -25.1370   -5.2800   29.2050 C.2     1  UNL1       -0.0000
      6 C         -26.2320   -4.6110   29.7840 C.2     1  UNL1       -0.0003
      7 C         -26.1550   -3.2320   30.0650 C.2     1  UNL1       -0.0039
      8 C         -25.3870   -0.6790   31.5710 C.3     1  UNL1        0.0808
      9 C         -25.1890    0.7730   32.0280 C.3     1  UNL1        0.0195
     10 C         -25.3360    0.6840   33.5440 C.3     1  UNL1        0.0203
     11 C         -24.8290   -0.7150   33.9050 C.3     1  UNL1        0.0887
     12 N         -24.7580   -1.4810   32.6460 N.3     1  UNL1       -0.2188
     13 C         -25.6880    1.6140   26.4610 C.2     1  UNL1        0.0237
     14 C         -26.2500    2.9200   26.3950 C.2     1  UNL1        0.0732
     15 C         -25.6420    4.0930   27.1230 C.2     1  UNL1        0.2661
     16 N         -25.6140    5.2520   26.4490 N.am    1  UNL1       -0.1997
     17 C         -25.0260    6.4790   26.9630 C.3     1  UNL1        0.1388
     18 O         -25.1430    3.9660   28.2430 O.2     1  UNL1       -0.2683
     19 C         -27.4380    3.0910   25.6450 C.2     1  UNL1        0.1064
     20 N         -28.0750    2.0890   25.0030 N.2     1  UNL1       -0.2081
     21 C         -27.5430    0.8490   25.0790 C.2     1  UNL1        0.2530
     22 O         -28.1930   -0.2080   24.4770 O.2     1  UNL1       -0.4558
     23 C         -29.4600    0.0050   23.8660 C.3     1  UNL1        0.2426
     24 C         -30.0650   -1.3770   23.5730 C.3     1  UNL1        0.2292
     25 O         -30.7290   -1.8780   24.7210 O.3     1  UNL1       -0.2162
     26 C         -26.3540    0.5760   25.7770 C.2     1  UNL1        0.1897
     27 F         -25.8600   -0.6810   25.7950 F       1  UNL1       -0.1996
     28 C         -24.5326    0.4591   28.2588 C.2     1  UNL1       -0.0213
     29 C         -23.8327    1.0059   27.8549 C.2     1  UNL1       -0.0169
     30 C         -21.9654    0.6221   29.0913 C.2     1  UNL1        0.0002
     31 O         -21.1280    1.8441   25.9216 O.3     1  UNL1       -0.3231
     32 C         -24.0491   -0.2622   29.5125 C.2     1  UNL1       -0.0207
     33 C         -22.4143    2.8485   24.7998 C.3     1  UNL1        0.0352
     34 F         -22.3200    0.8818   23.9117 F       1  UNL1       -0.2316
     35 C         -22.7913   -0.1612   29.8528 C.2     1  UNL1       -0.0044
     36 C         -22.1812    1.2376   27.9767 C.2     1  UNL1        0.0350
     37 C         -21.0848    1.7330   27.2664 C.3     1  UNL1        0.3017
     38 C         -24.5710    1.2177   27.2979 C.3     1  UNL1        0.0682
     39 C         -23.0974    0.9927   24.9928 C.3     1  UNL1        0.2226
     40 C         -22.3994    2.2318   25.4751 C.3     1  UNL1        0.1537
     41 F         -20.0520    1.9769   27.9305 F       1  UNL1       -0.1988
@<TRIPOS>BOND
     1     1    32    1
     2     2     7    1
     3     2     1    1
     4     3     2    2
     5     4     3    1
     6     4     5    2
     7     5     6    1
     8     6     7    2
     9     8     1    1
    10     8     9    1
    11     8    12    1
    12     9    10    1
    13    10    11    1
    14    12    11    1
    15    14    13    1
    16    14    15    1
    17    15    18    2
    18    16    17    1
    19    16    15    1
    20    19    14    2
    21    20    21    2
    22    20    19    1
    23    21    26    1
    24    22    21    1
    25    23    22    1
    26    24    23    1
    27    24    25    1
    28    26    27    1
    29    26    13    2
    30    28    32    1
    31    29    36    1
    32    29    28    2
    33    30    35    1
    34    31    37    1
    35    32    35    2
    36    34    39    1
    37    36    30    2
    38    37    41    1
    39    37    36    1
    40    38    13    1
    41    38    29    1
    42    38    28    1
    43    39    40    1
    44    40    33    1
    45    40    31    1
