@<TRIPOS>MOLECULE
No_2774-gen_results/8p0m/2024-11-27-11-27-31/
 35 37 0 0 0
SMALL
GASTEIGER

@<TRIPOS>ATOM
      1 C         -28.0162   -0.8135   28.8779 C.ar    1  UNL1        0.0713
      2 C         -27.0636   -0.1189   28.6079 C.ar    1  UNL1        0.1357
      3 N         -26.9515    1.1286   28.9566 N.ar    1  UNL1       -0.2191
      4 C         -29.1088   -0.2102   29.6318 C.ar    1  UNL1        0.1442
      5 C         -29.0881    1.0629   29.9416 C.ar    1  UNL1        0.0678
      6 C         -27.9547    1.7679   29.5913 C.ar    1  UNL1        0.1428
      7 N         -25.9103   -0.6251   27.9767 N.pl3   1  UNL1       -0.2925
      8 C         -24.8720   -1.2704   28.7104 C.3     1  UNL1        0.0968
      9 C         -24.2557   -0.5545   29.7847 C.3     1  UNL1        0.0476
     10 C         -23.6087    0.3893   29.6322 C.2     1  UNL1       -0.0194
     11 C         -22.6100    0.5602   28.6048 C.2     1  UNL1        0.0595
     12 C         -21.9955    1.6982   28.1109 C.2     1  UNL1        0.2966
     13 C         -25.4648    0.0906   26.8490 C.3     1  UNL1        0.0968
     14 O         -30.2265   -0.8715   29.8757 O.3     1  UNL1       -0.4697
     15 CL        -27.7548    3.4492   29.9439 Cl      1  UNL1       -0.0612
     16 N         -21.2467    1.5646   27.0811 N.2     1  UNL1       -0.1025
     17 O         -22.5663    2.8580   28.3398 O.2     1  UNL1       -0.2636
     18 C         -30.1530   -2.0227   30.5781 C.3     1  UNL1        0.2427
     19 C         -26.2835    0.6073   25.8636 C.3     1  UNL1        0.0475
     20 C         -27.4608    0.2378   25.6893 C.2     1  UNL1       -0.0244
     21 C         -28.2781    0.7473   24.6400 C.2     1  UNL1       -0.0045
     22 C         -29.6214    0.4069   24.5402 C.2     1  UNL1       -0.0003
     23 C         -30.1640   -0.3979   25.4824 C.2     1  UNL1       -0.0000
     24 C         -31.5415   -0.7343   25.3409 C.ar    1  UNL1       -0.0000
     25 C         -32.1506   -1.6024   26.3367 C.ar    1  UNL1       -0.0000
     26 C         -33.1430   -2.4015   26.0136 C.ar    1  UNL1        0.0000
     27 C         -33.8070   -2.2103   24.7889 C.ar    1  UNL1        0.0000
     28 C         -33.3023   -1.3907   23.8254 C.ar    1  UNL1        0.0000
     29 C         -32.0782   -0.7889   24.1024 C.ar    1  UNL1       -0.0000
     30 C         -31.1741   -2.9605   30.2093 C.2     1  UNL1        0.2816
     31 O         -32.0843   -2.6860   29.7320 O.2     1  UNL1       -0.2694
     32 N         -31.0306   -4.2200   30.7145 N.am    1  UNL1       -0.2024
     33 C         -29.8351   -4.7439   31.4549 C.3     1  UNL1        0.1154
     34 C         -28.8202   -3.8558   31.4170 C.3     1  UNL1        0.0277
     35 C         -28.9052   -2.5212   31.1012 C.3     1  UNL1        0.0550
@<TRIPOS>BOND
     1     2     7    1
     2     7     8    1
     3     8     9    1
     4     9    10    1
     5    10    11    2
     6    11    12    1
     7     7    13    1
     8     4    14    1
     9     6    15    1
    10    12    16    2
    11    12    17    1
    12    14    18    1
    13    13    19    1
    14    19    20    1
    15    20    21    2
    16    21    22    1
    17    22    23    2
    18    23    24    1
    19    18    30    1
    20    30    31    2
    21    30    32   am
    22    32    33    1
    23    18    35    1
    24    34    35    1
    25    34    33    1
    26    24    25   ar
    27    25    26   ar
    28    26    27   ar
    29    27    28   ar
    30    28    29   ar
    31    29    24   ar
    32     1     2   ar
    33     2     3   ar
    34     3     6   ar
    35     6     5   ar
    36     5     4   ar
    37     4     1   ar
