@<TRIPOS>MOLECULE
No_2775-gen_results/8p0m/2024-11-27-11-27-31/
 18 19 0 0 0
SMALL
GASTEIGER

@<TRIPOS>ATOM
      1 C         -28.0162   -0.8135   28.8779 C.3     1  UNL1        0.0313
      2 C         -27.0636   -0.1190   28.6079 C.ar    1  UNL1       -0.0174
      3 C         -27.0010    0.6913   27.4910 C.ar    1  UNL1        0.0527
      4 C         -25.8548    1.4825   27.0830 C.ar    1  UNL1        0.0043
      5 C         -24.6901    1.4526   27.8807 C.ar    1  UNL1        0.0001
      6 C         -24.7379    0.6010   29.0416 C.ar    1  UNL1       -0.0003
      7 C         -25.8234   -0.1688   29.3887 C.ar    1  UNL1       -0.0041
      8 C         -28.7350   -0.4637   30.1419 C.3     1  UNL1        0.0333
      9 C         -28.7831    0.6118   30.5175 C.ar    1  UNL1        0.0056
     10 C         -29.3406    1.2670   31.3691 C.ar    1  UNL1       -0.0020
     11 C         -29.2656    2.7147   31.7293 C.ar    1  UNL1       -0.0002
     12 C         -28.3706    3.4273   30.8861 C.ar    1  UNL1        0.0023
     13 C         -27.6267    2.8067   29.9537 C.ar    1  UNL1        0.0293
     14 C         -27.7490    1.5028   29.7438 C.ar    1  UNL1        0.1361
     15 F         -27.1787    1.3374   28.9193 F       1  UNL1       -0.2045
     16 C         -27.9417    0.6417   26.4971 C.2     1  UNL1        0.2839
     17 O         -29.1312    0.7851   26.7144 O.2     1  UNL1       -0.2667
     18 N         -27.5600    0.3023   25.2682 N.am    1  UNL1       -0.0837
@<TRIPOS>BOND
     1     1     2    1
     2     1     8    1
     3    14    15    1
     4     3    16    1
     5    16    17    2
     6    16    18   am
     7     8     9    1
     8     2     3   ar
     9     3     4   ar
    10     4     5   ar
    11     5     6   ar
    12     6     7   ar
    13     7     2   ar
    14     9    10   ar
    15    10    11   ar
    16    11    12   ar
    17    12    13   ar
    18    13    14   ar
    19    14     9   ar
