@<TRIPOS>MOLECULE
No_2777-gen_results/8p0m/2024-11-27-11-27-31/
 12 13 0 0 0
SMALL
GASTEIGER

@<TRIPOS>ATOM
      1 C         -28.0162   -0.8135   28.8779 C.ar    1  UNL1        0.0000
      2 C         -28.4690   -0.7850   29.8287 C.ar    1  UNL1        0.0000
      3 C         -27.2166   -0.0832   27.9639 C.ar    1  UNL1        0.0000
      4 C         -27.0905    1.2695   28.4177 C.ar    1  UNL1        0.0000
      5 C         -26.2935    2.2416   27.7321 C.ar    1  UNL1        0.0000
      6 C         -28.3698    0.6459   30.4427 C.ar    1  UNL1        0.0000
      7 C         -27.6449    1.6093   29.7015 C.ar    1  UNL1        0.0000
      8 C         -25.9230    2.1871   26.5853 C.ar    1  UNL1        0.0000
      9 C         -24.9703    3.1921   25.9930 C.ar    1  UNL1        0.0000
     10 C         -24.6181    4.2915   26.7841 C.ar    1  UNL1        0.0000
     11 C         -25.7682    3.4204   28.4878 C.ar    1  UNL1        0.0000
     12 C         -25.0003    4.3955   27.9809 C.ar    1  UNL1        0.0000
@<TRIPOS>BOND
     1     4     5    1
     2     1     2   ar
     3     2     6   ar
     4     6     7   ar
     5     7     4   ar
     6     4     3   ar
     7     3     1   ar
     8     5     8   ar
     9     8     9   ar
    10     9    10   ar
    11    10    12   ar
    12    12    11   ar
    13    11     5   ar
