@<TRIPOS>MOLECULE
No_2778-gen_results/8p0m/2024-11-27-11-27-31/
 11 12 0 0 0
SMALL
GASTEIGER

@<TRIPOS>ATOM
      1 O         -28.1229   -1.3353   28.4874 O.2     1  UNL1       -0.2488
      2 C         -27.4806   -0.4044   28.7094 C.2     1  UNL1        0.3438
      3 N         -26.4599   -0.1104   28.0051 N.am    1  UNL1       -0.1612
      4 C         -25.4297    0.8788   28.3572 C.ar    1  UNL1        0.0726
      5 C         -25.6985    1.5873   29.3706 C.ar    1  UNL1        0.0149
      6 N         -27.7528    0.2412   29.9527 N.am    1  UNL1       -0.1820
      7 C         -24.7652    2.6450   29.9108 C.ar    1  UNL1       -0.0013
      8 C         -26.8441    1.2896   30.3633 C.3     1  UNL1        0.1445
      9 C         -24.3637    1.1568   27.5139 C.ar    1  UNL1        0.0164
     10 C         -23.3866    2.1070   27.8877 C.ar    1  UNL1        0.0013
     11 C         -23.6339    2.8423   29.0800 C.ar    1  UNL1       -0.0002
@<TRIPOS>BOND
     1     1     2    2
     2     2     3   am
     3     3     4    1
     4     2     6   am
     5     5     8    1
     6     8     6    1
     7     4     5   ar
     8     5     7   ar
     9     7    11   ar
    10    11    10   ar
    11    10     9   ar
    12     9     4   ar
