@<TRIPOS>MOLECULE
outputs/IAG933/test6/raw/output_2779_IAG933_linker_design_.xyz
 40 43 0 0 0
SMALL
GASTEIGER

@<TRIPOS>ATOM
      1 C         -24.8550   -1.0120   30.1430 C.3     1  UNL1        0.1113
      2 C         -24.9730   -2.5050   29.7880 C.2     1  UNL1       -0.0030
      3 C         -23.9060   -3.1730   29.1460 C.2     1  UNL1       -0.0026
      4 C         -23.9890   -4.5490   28.8530 C.2     1  UNL1       -0.0003
      5 C         -25.1370   -5.2800   29.2050 C.2     1  UNL1       -0.0000
      6 C         -26.2320   -4.6110   29.7840 C.2     1  UNL1       -0.0003
      7 C         -26.1550   -3.2320   30.0650 C.2     1  UNL1       -0.0026
      8 C         -25.3870   -0.6790   31.5710 C.3     1  UNL1        0.0950
      9 C         -25.1890    0.7730   32.0280 C.3     1  UNL1        0.0209
     10 C         -25.3360    0.6840   33.5440 C.3     1  UNL1        0.0203
     11 C         -24.8290   -0.7150   33.9050 C.3     1  UNL1        0.0888
     12 N         -24.7580   -1.4810   32.6460 N.3     1  UNL1       -0.2174
     13 C         -25.6880    1.6140   26.4610 C.2     1  UNL1        0.0393
     14 C         -26.2500    2.9200   26.3950 C.2     1  UNL1        0.0766
     15 C         -25.6420    4.0930   27.1230 C.2     1  UNL1        0.2664
     16 N         -25.6140    5.2520   26.4490 N.am    1  UNL1       -0.1997
     17 C         -25.0260    6.4790   26.9630 C.3     1  UNL1        0.1388
     18 O         -25.1430    3.9660   28.2430 O.2     1  UNL1       -0.2683
     19 C         -27.4380    3.0910   25.6450 C.2     1  UNL1        0.1067
     20 N         -28.0750    2.0890   25.0030 N.2     1  UNL1       -0.2081
     21 C         -27.5430    0.8490   25.0790 C.2     1  UNL1        0.2533
     22 O         -28.1930   -0.2080   24.4770 O.2     1  UNL1       -0.4558
     23 C         -29.4600    0.0050   23.8660 C.3     1  UNL1        0.2426
     24 C         -30.0650   -1.3770   23.5730 C.3     1  UNL1        0.2292
     25 O         -30.7290   -1.8780   24.7210 O.3     1  UNL1       -0.2162
     26 C         -26.3540    0.5760   25.7770 C.2     1  UNL1        0.1931
     27 F         -25.8600   -0.6810   25.7950 F       1  UNL1       -0.1992
     28 C         -24.3309    1.4277   26.9135 C.2     1  UNL1        0.0159
     29 C         -26.0282    0.7080   29.1597 C.3     1  UNL1        0.0916
     30 N         -24.8872    0.0400   29.0537 N.pl3   1  UNL1       -0.3040
     31 C         -28.1657    0.3071   30.3204 C.3     1  UNL1        0.0903
     32 C         -23.3681    2.0349   26.0169 C.2     1  UNL1        0.0013
     33 C         -22.5099    0.7204   28.3376 C.2     1  UNL1        0.0145
     34 C         -21.5569    1.3938   27.5087 C.2     1  UNL1        0.0013
     35 C         -27.2306    1.1229   29.4543 C.3     1  UNL1        0.0311
     36 C         -23.9081    0.7190   28.0884 C.2     1  UNL1        0.0481
     37 C         -28.5755   -0.8837   29.6418 C.2     1  UNL1        0.2608
     38 C         -21.9868    2.0317   26.3158 C.2     1  UNL1        0.0001
     39 N         -27.6812   -1.2121   28.7984 N.am    1  UNL1       -0.0878
     40 O         -29.6341   -1.4857   29.7139 O.2     1  UNL1       -0.2717
@<TRIPOS>BOND
     1     1    30    1
     2     2     7    1
     3     2     1    1
     4     3     2    2
     5     4     3    1
     6     4     5    2
     7     5     6    1
     8     6     7    2
     9     8     1    1
    10     8     9    1
    11     8    12    1
    12     9    10    1
    13    10    11    1
    14    12    11    1
    15    13    28    1
    16    14    13    1
    17    14    15    1
    18    15    18    2
    19    16    17    1
    20    16    15    1
    21    19    14    2
    22    20    21    2
    23    20    19    1
    24    21    26    1
    25    22    21    1
    26    23    22    1
    27    24    23    1
    28    24    25    1
    29    26    27    1
    30    26    13    2
    31    28    36    1
    32    29    35    1
    33    30    29    1
    34    32    38    1
    35    32    28    2
    36    34    33    1
    37    35    31    1
    38    36    33    2
    39    36    30    1
    40    37    40    2
    41    37    31    1
    42    38    34    2
    43    39    37    1
