@<TRIPOS>MOLECULE
outputs/IAG933/test6/raw/output_2780_IAG933_linker_design_.xyz
 39 42 0 0 0
SMALL
GASTEIGER

@<TRIPOS>ATOM
      1 C         -24.8550   -1.0120   30.1430 C.3     1  UNL1        0.1164
      2 C         -24.9730   -2.5050   29.7880 C.2     1  UNL1       -0.0125
      3 C         -23.9060   -3.1730   29.1460 C.2     1  UNL1       -0.0038
      4 C         -23.9890   -4.5490   28.8530 C.2     1  UNL1       -0.0003
      5 C         -25.1370   -5.2800   29.2050 C.2     1  UNL1       -0.0000
      6 C         -26.2320   -4.6110   29.7840 C.2     1  UNL1       -0.0003
      7 C         -26.1550   -3.2320   30.0650 C.2     1  UNL1       -0.0038
      8 C         -25.3870   -0.6790   31.5710 C.3     1  UNL1        0.0855
      9 C         -25.1890    0.7730   32.0280 C.3     1  UNL1        0.0197
     10 C         -25.3360    0.6840   33.5440 C.3     1  UNL1        0.0203
     11 C         -24.8290   -0.7150   33.9050 C.3     1  UNL1        0.0887
     12 N         -24.7580   -1.4810   32.6460 N.3     1  UNL1       -0.2186
     13 C         -25.6880    1.6140   26.4610 C.2     1  UNL1        0.0520
     14 C         -26.2500    2.9200   26.3950 C.2     1  UNL1        0.0755
     15 C         -25.6420    4.0930   27.1230 C.2     1  UNL1        0.2662
     16 N         -25.6140    5.2520   26.4490 N.am    1  UNL1       -0.1997
     17 C         -25.0260    6.4790   26.9630 C.3     1  UNL1        0.1388
     18 O         -25.1430    3.9660   28.2430 O.2     1  UNL1       -0.2683
     19 C         -27.4380    3.0910   25.6450 C.2     1  UNL1        0.1065
     20 N         -28.0750    2.0890   25.0030 N.2     1  UNL1       -0.2081
     21 C         -27.5430    0.8490   25.0790 C.2     1  UNL1        0.2531
     22 O         -28.1930   -0.2080   24.4770 O.2     1  UNL1       -0.4558
     23 C         -29.4600    0.0050   23.8660 C.3     1  UNL1        0.2426
     24 C         -30.0650   -1.3770   23.5730 C.3     1  UNL1        0.2292
     25 O         -30.7290   -1.8780   24.7210 O.3     1  UNL1       -0.2162
     26 C         -26.3540    0.5760   25.7770 C.2     1  UNL1        0.1921
     27 F         -25.8600   -0.6810   25.7950 F       1  UNL1       -0.1995
     28 F         -22.5625    0.1781   30.1606 F       1  UNL1       -0.2329
     29 N         -23.3733    1.1906   26.8280 N.3     1  UNL1       -0.1878
     30 O         -26.6072   -0.2745   28.6204 O.2     1  UNL1       -0.2729
     31 C         -22.4761    0.8732   27.6887 C.3     1  UNL1        0.1712
     32 F         -20.9916    1.5616   26.1861 F       1  UNL1       -0.2023
     33 C         -22.2794   -0.1688   28.8896 C.3     1  UNL1        0.2116
     34 N         -24.8007    0.9700   28.6273 N.am    1  UNL1       -0.1843
     35 C         -25.4547   -0.1488   29.1063 C.2     1  UNL1        0.2479
     36 C         -24.5363    1.2285   27.3154 C.3     1  UNL1        0.1934
     37 O         -20.2221    0.5181   28.2100 O.3     1  UNL1       -0.3227
     38 C         -20.9296   -0.4868   28.8511 C.3     1  UNL1        0.1818
     39 C         -21.1663    1.1528   27.3968 C.3     1  UNL1        0.2974
@<TRIPOS>BOND
     1     1    35    1
     2     2     7    1
     3     2     1    1
     4     3     2    2
     5     4     3    1
     6     4     5    2
     7     5     6    1
     8     6     7    2
     9     8     1    1
    10     8     9    1
    11     8    12    1
    12     9    10    1
    13    10    11    1
    14    12    11    1
    15    13    36    1
    16    14    13    1
    17    14    15    1
    18    15    18    2
    19    16    17    1
    20    16    15    1
    21    19    14    2
    22    20    21    2
    23    20    19    1
    24    21    26    1
    25    22    21    1
    26    23    22    1
    27    24    23    1
    28    24    25    1
    29    26    27    1
    30    26    13    2
    31    30    35    2
    32    31    29    1
    33    31    33    1
    34    33    28    1
    35    34    35    1
    36    36    29    1
    37    36    34    1
    38    37    38    1
    39    38    33    1
    40    39    32    1
    41    39    31    1
    42    39    37    1
