@<TRIPOS>MOLECULE
No_2781-gen_results/8p0m/2024-11-27-11-27-31/
 24 27 0 0 0
SMALL
GASTEIGER

@<TRIPOS>ATOM
      1 C         -28.0162   -0.8135   28.8779 C.ar    1  UNL1        0.0012
      2 C         -28.4690   -0.7850   29.8287 C.ar    1  UNL1       -0.0002
      3 C         -28.1960    0.3478   28.0550 C.ar    1  UNL1        0.0133
      4 C         -29.0191    1.3501   28.3782 C.ar    1  UNL1        0.0475
      5 C         -29.4107    0.1803   30.3782 C.ar    1  UNL1       -0.0030
      6 C         -29.6059    1.2495   29.6193 C.ar    1  UNL1       -0.0082
      7 C         -27.4597    0.3802   26.7091 C.2     1  UNL1        0.0012
      8 C         -27.9298    0.5836   25.6804 C.2     1  UNL1       -0.0003
      9 C         -29.3518    0.8141   25.5930 C.ar    1  UNL1       -0.0039
     10 C         -30.0874    0.3793   24.7863 C.ar    1  UNL1       -0.0003
     11 C         -31.5061    0.6291   24.6778 C.ar    1  UNL1       -0.0000
     12 C         -32.0014    1.4784   25.6478 C.ar    1  UNL1       -0.0003
     13 C         -31.2549    2.0846   26.5629 C.ar    1  UNL1       -0.0042
     14 C         -29.8572    1.8097   26.5872 C.ar    1  UNL1       -0.0204
     15 N         -28.2234    2.6333   28.3889 N.pl3   1  UNL1       -0.2868
     16 C         -29.0910    3.1373   26.5148 C.3     1  UNL1        0.0481
     17 C         -27.5116    2.8977   29.5487 C.ar    1  UNL1        0.0516
     18 C         -27.9339    3.5614   27.4502 C.3     1  UNL1        0.1002
     19 C         -26.3342    3.5957   29.4946 C.ar    1  UNL1        0.0148
     20 C         -25.5217    3.6788   30.6203 C.ar    1  UNL1        0.0013
     21 C         -25.9030    3.0527   31.8374 C.ar    1  UNL1        0.0001
     22 C         -27.0622    2.3127   31.9061 C.ar    1  UNL1        0.0013
     23 C         -27.5903    2.0325   30.6850 C.ar    1  UNL1        0.0148
     24 C         -31.2428    1.1487   29.4748 C.3     1  UNL1        0.0323
@<TRIPOS>BOND
     1     3     7    1
     2     7     8    2
     3     8     9    1
     4     4    15    1
     5    14    16    1
     6    15    17    1
     7    15    18    1
     8    16    18    1
     9     6    24    1
    10     9    10   ar
    11    10    11   ar
    12    11    12   ar
    13    12    13   ar
    14    13    14   ar
    15    14     9   ar
    16    17    19   ar
    17    19    20   ar
    18    20    21   ar
    19    21    22   ar
    20    22    23   ar
    21    23    17   ar
    22     1     2   ar
    23     2     5   ar
    24     5     6   ar
    25     6     4   ar
    26     4     3   ar
    27     3     1   ar
