@<TRIPOS>MOLECULE
outputs/IAG933/test6/raw/output_2783_IAG933_linker_design_.xyz
 41 45 0 0 0
SMALL
GASTEIGER

@<TRIPOS>ATOM
      1 C         -24.8550   -1.0120   30.1430 C.3     1  UNL1        0.0772
      2 C         -24.9730   -2.5050   29.7880 C.2     1  UNL1       -0.0157
      3 C         -23.9060   -3.1730   29.1460 C.2     1  UNL1       -0.0039
      4 C         -23.9890   -4.5490   28.8530 C.2     1  UNL1       -0.0003
      5 C         -25.1370   -5.2800   29.2050 C.2     1  UNL1       -0.0000
      6 C         -26.2320   -4.6110   29.7840 C.2     1  UNL1       -0.0003
      7 C         -26.1550   -3.2320   30.0650 C.2     1  UNL1       -0.0039
      8 C         -25.3870   -0.6790   31.5710 C.3     1  UNL1        0.0822
      9 C         -25.1890    0.7730   32.0280 C.3     1  UNL1        0.0196
     10 C         -25.3360    0.6840   33.5440 C.3     1  UNL1        0.0203
     11 C         -24.8290   -0.7150   33.9050 C.3     1  UNL1        0.0887
     12 N         -24.7580   -1.4810   32.6460 N.3     1  UNL1       -0.2188
     13 C         -25.6880    1.6140   26.4610 C.2     1  UNL1        0.1095
     14 C         -26.2500    2.9200   26.3950 C.2     1  UNL1        0.0918
     15 C         -25.6420    4.0930   27.1230 C.2     1  UNL1        0.2677
     16 N         -25.6140    5.2520   26.4490 N.am    1  UNL1       -0.1997
     17 C         -25.0260    6.4790   26.9630 C.3     1  UNL1        0.1388
     18 O         -25.1430    3.9660   28.2430 O.2     1  UNL1       -0.2683
     19 C         -27.4380    3.0910   25.6450 C.2     1  UNL1        0.1080
     20 N         -28.0750    2.0890   25.0030 N.2     1  UNL1       -0.2080
     21 C         -27.5430    0.8490   25.0790 C.2     1  UNL1        0.2546
     22 O         -28.1930   -0.2080   24.4770 O.2     1  UNL1       -0.4558
     23 C         -29.4600    0.0050   23.8660 C.3     1  UNL1        0.2426
     24 C         -30.0650   -1.3770   23.5730 C.3     1  UNL1        0.2292
     25 O         -30.7290   -1.8780   24.7210 O.3     1  UNL1       -0.2162
     26 C         -26.3540    0.5760   25.7770 C.2     1  UNL1        0.2082
     27 F         -25.8600   -0.6810   25.7950 F       1  UNL1       -0.1978
     28 C         -20.8416   -0.2932   29.2122 C.3     1  UNL1        0.0375
     29 C         -22.5245    1.1920   27.6742 C.2     1  UNL1        0.0898
     30 C         -23.0289    2.0775   25.6283 C.3     1  UNL1        0.2519
     31 C         -22.0680    0.4070   29.8629 C.3     1  UNL1        0.1755
     32 O         -20.3927    2.2412   27.7096 O.2     1  UNL1       -0.2449
     33 N         -24.8715    0.3408   28.1320 N.pl3   1  UNL1       -0.1472
     34 C         -21.3811    1.8716   27.1241 C.2     1  UNL1        0.3424
     35 C         -24.2814   -0.0757   29.1472 C.2     1  UNL1        0.0691
     36 O         -21.6393    2.3056   25.8255 O.3     1  UNL1       -0.4390
     37 C         -19.9671   -0.2395   28.0542 C.3     1  UNL1        0.0031
     38 N         -24.6723    1.1156   27.1880 N.pl3   1  UNL1       -0.1970
     39 C         -23.0133    0.4740   28.8628 C.2     1  UNL1        0.0280
     40 C         -23.4846    1.4013   26.7757 C.2     1  UNL1        0.0992
     41 O         -22.4888    0.1417   31.1315 O.3     1  UNL1       -0.2183
@<TRIPOS>BOND
     1     1    35    1
     2     2     7    1
     3     2     1    1
     4     3     2    2
     5     4     3    1
     6     4     5    2
     7     5     6    1
     8     6     7    2
     9     8     1    1
    10     8     9    1
    11     8    12    1
    12     9    10    1
    13    10    11    1
    14    12    11    1
    15    13    38    1
    16    14    13    1
    17    14    15    1
    18    15    18    2
    19    16    17    1
    20    16    15    1
    21    19    14    2
    22    20    21    2
    23    20    19    1
    24    21    26    1
    25    22    21    1
    26    23    22    1
    27    24    23    1
    28    24    25    1
    29    26    27    1
    30    26    13    2
    31    28    31    1
    32    29    39    1
    33    30    36    1
    34    30    40    1
    35    31    41    1
    36    33    35    1
    37    34    29    1
    38    34    32    2
    39    36    34    1
    40    37    28    1
    41    38    33    1
    42    39    35    2
    43    39    31    1
    44    40    38    1
    45    40    29    2
