@<TRIPOS>MOLECULE
No_2784-gen_results/8p0m/2024-11-27-11-27-31/
 19 19 0 0 0
SMALL
GASTEIGER

@<TRIPOS>ATOM
      1 C         -28.0162   -0.8135   28.8779 C.2     1  UNL1        0.0780
      2 C         -27.0636   -0.1189   28.6079 C.2     1  UNL1       -0.0339
      3 C         -26.9716    0.7139   27.5060 C.3     1  UNL1        0.0227
      4 C         -25.8205    1.4909   27.1160 C.3     1  UNL1        0.0084
      5 C         -24.6562    1.4242   27.9180 C.3     1  UNL1        0.0495
      6 C         -24.6847    0.5901   29.0659 C.3     1  UNL1        0.0124
      7 C         -25.8099   -0.1266   29.3338 C.3     1  UNL1        0.0406
      8 C         -29.2186   -0.0422   29.3127 C.2     1  UNL1        0.3873
      9 O         -29.6481    0.7353   28.6841 O.co2   1  UNL1       -0.2406
     10 O         -29.5804   -0.2545   30.5747 O.co2   1  UNL1       -0.2406
     11 C         -23.4837    2.2139   27.5959 C.3     1  UNL1        0.2390
     12 CL        -22.3005    2.2648   28.7293 Cl      1  UNL1       -0.0764
     13 F         -23.2140    2.5881   26.4551 F       1  UNL1       -0.2194
     14 C         -25.6924   -1.0122   30.5568 C.2     1  UNL1       -0.0224
     15 C         -25.0809   -0.7708   31.4997 C.2     1  UNL1       -0.0042
     16 C         -25.2863   -1.4323   32.7628 C.2     1  UNL1        0.0013
     17 C         -26.5648   -1.3157   33.3281 C.2     1  UNL1        0.0225
     18 C         -26.7359   -1.3918   34.6476 C.2     1  UNL1        0.1221
     19 N         -27.9810   -1.5468   35.2174 N.2     1  UNL1       -0.1464
@<TRIPOS>BOND
     1     1     2    2
     2     2     3    1
     3     3     4    1
     4     4     5    1
     5     5     6    1
     6     2     7    1
     7     6     7    1
     8     1     8    1
     9     8     9   ar
    10     8    10   ar
    11     5    11    1
    12    11    12    1
    13    11    13    1
    14     7    14    1
    15    14    15    2
    16    15    16    1
    17    16    17    2
    18    17    18    1
    19    18    19    2
