@<TRIPOS>MOLECULE
No_2785-gen_results/8p0m/2024-11-27-11-27-31/
 11 11 0 0 0
SMALL
GASTEIGER

@<TRIPOS>ATOM
      1 O         -28.1229   -1.3353   28.4874 O.2     1  UNL1       -0.2699
      2 C         -27.0637   -0.8242   28.8687 C.2     1  UNL1        0.2488
      3 N         -26.4446   -0.0097   28.8266 N.am    1  UNL1       -0.2761
      4 C         -26.3514   -1.9045   29.8953 C.2     1  UNL1        0.0534
      5 C         -26.9151    1.1844   28.0474 C.3     1  UNL1        0.0937
      6 C         -26.0226    1.7947   27.2860 C.3     1  UNL1        0.0216
      7 C         -24.6767    1.7055   27.5649 C.3     1  UNL1        0.0035
      8 C         -24.2248    0.7140   28.4853 C.3     1  UNL1        0.0216
      9 C         -25.0573   -0.0505   28.9571 C.3     1  UNL1        0.0937
     10 C         -25.0864   -1.9298   30.1413 C.2     1  UNL1       -0.0211
     11 C         -24.3659   -1.0713   29.6997 C.3     1  UNL1        0.0309
@<TRIPOS>BOND
     1     1     2    2
     2     2     3   am
     3     2     4    1
     4     3     5    1
     5     5     6    1
     6     7     8    1
     7     3     9    1
     8     4    10    2
     9    10    11    1
    10     6     7    1
    11     8     9    1
