@<TRIPOS>MOLECULE
No_2789-gen_results/8p0m/2024-11-27-11-27-31/
 17 19 0 0 0
SMALL
GASTEIGER

@<TRIPOS>ATOM
      1 C         -28.0162   -0.8135   28.8779 C.ar    1  UNL1       -0.0003
      2 C         -27.0636   -0.1189   28.6079 C.ar    1  UNL1       -0.0041
      3 C         -26.9716    0.7139   27.5060 C.ar    1  UNL1       -0.0167
      4 C         -28.1053    0.7744   26.6421 C.ar    1  UNL1        0.0511
      5 C         -29.2041    0.1179   27.0477 C.ar    1  UNL1        0.0042
      6 C         -29.2127   -0.6088   28.1281 C.ar    1  UNL1        0.0001
      7 C         -25.7106    1.4519   27.1380 C.3     1  UNL1        0.0391
      8 C         -25.2074    2.4128   27.9320 C.3     1  UNL1        0.0058
      9 C         -24.2878    2.8213   28.1828 C.3     1  UNL1        0.0004
     10 C         -23.0796    2.2449   27.3693 C.3     1  UNL1        0.0000
     11 C         -21.7549    2.3885   27.7887 C.3     1  UNL1        0.0000
     12 C         -24.4503    0.5157   27.0426 C.3     1  UNL1        0.0058
     13 C         -23.3068    0.8671   27.2837 C.3     1  UNL1        0.0004
     14 C         -25.8434    2.0318   25.6773 C.3     1  UNL1        0.1194
     15 C         -28.0115    1.6046   25.4602 C.2     1  UNL1        0.2645
     16 N         -26.9026    2.1350   25.0512 N.am    1  UNL1       -0.2013
     17 O         -29.0565    1.6651   24.7911 O.2     1  UNL1       -0.2684
@<TRIPOS>BOND
     1     3     7    1
     2     7     8    1
     3     9    10    1
     4    10    11    1
     5     7    12    1
     6    10    13    1
     7    12    13    1
     8     7    14    1
     9     4    15    1
    10    14    16    1
    11    15    16   am
    12    15    17    2
    13     8     9    1
    14     1     2   ar
    15     2     3   ar
    16     3     4   ar
    17     4     5   ar
    18     5     6   ar
    19     6     1   ar
