@<TRIPOS>MOLECULE
No_279-gen_results/8p0m/2024-11-27-11-27-31/
 9 9 0 0 0
SMALL
GASTEIGER

@<TRIPOS>ATOM
      1 C         -28.0162   -0.8135   28.8779 C.ar    1  UNL1       -0.0000
      2 C         -28.4690   -0.7850   29.8287 C.ar    1  UNL1       -0.0000
      3 C         -26.5042   -0.7777   28.8766 C.ar    1  UNL1       -0.0000
      4 C         -25.8103   -0.8531   30.1028 C.ar    1  UNL1       -0.0003
      5 C         -27.9906   -0.8916   31.2257 C.ar    1  UNL1       -0.0000
      6 C         -24.3976   -0.8364   30.1775 C.2     1  UNL1       -0.0046
      7 C         -26.5754   -0.8899   31.2661 C.ar    1  UNL1       -0.0000
      8 C         -23.6362   -0.9045   29.1560 C.2     1  UNL1       -0.0258
      9 C         -22.1750   -0.7187   29.2225 C.3     1  UNL1        0.0307
@<TRIPOS>BOND
     1     4     6    1
     2     6     8    2
     3     8     9    1
     4     1     2   ar
     5     2     5   ar
     6     5     7   ar
     7     7     4   ar
     8     4     3   ar
     9     3     1   ar
