@<TRIPOS>MOLECULE
No_2791-gen_results/8p0m/2024-11-27-11-27-31/
 31 33 0 0 0
SMALL
GASTEIGER

@<TRIPOS>ATOM
      1 C         -28.0162   -0.8135   28.8779 C.ar    1  UNL1        0.0046
      2 C         -27.0636   -0.1189   28.6079 C.ar    1  UNL1        0.0001
      3 C         -25.7647   -0.3897   29.0360 C.ar    1  UNL1        0.0000
      4 C         -24.5516    0.4058   28.7646 C.ar    1  UNL1        0.0000
      5 C         -23.2300    0.1178   29.2575 C.ar    1  UNL1        0.0000
      6 C         -22.1393    0.9427   28.9224 C.ar    1  UNL1        0.0000
      7 C         -27.8294   -1.9287   29.8545 C.ar    1  UNL1        0.0551
      8 C         -26.5882   -2.3272   30.2682 C.ar    1  UNL1        0.0046
      9 C         -25.4565   -1.5432   29.9146 C.ar    1  UNL1        0.0001
     10 C         -22.2302    1.9089   27.8723 C.ar    1  UNL1        0.0000
     11 C         -24.5538    1.4700   27.7617 C.ar    1  UNL1        0.0000
     12 C         -23.4471    2.1666   27.3764 C.ar    1  UNL1        0.0000
     13 C         -28.9783   -2.7708   30.2578 C.2     1  UNL1        0.2651
     14 N         -28.8311   -4.0718   30.4871 N.am    1  UNL1       -0.1968
     15 C         -29.6649   -4.7818   31.2377 C.3     1  UNL1        0.1418
     16 O         -30.0945   -2.3205   30.0442 O.2     1  UNL1       -0.2684
     17 C         -30.4805   -5.6796   30.4625 C.ar    1  UNL1       -0.0006
     18 C         -31.7549   -5.3678   30.4901 C.ar    1  UNL1       -0.0029
     19 C         -32.4857   -5.8116   29.4380 C.ar    1  UNL1       -0.0045
     20 C         -31.9838   -6.7621   28.4544 C.ar    1  UNL1       -0.0222
     21 C         -30.6163   -6.9794   28.4833 C.ar    1  UNL1       -0.0045
     22 C         -29.8575   -6.3463   29.4719 C.ar    1  UNL1       -0.0029
     23 C         -32.8011   -7.3375   27.3949 C.3     1  UNL1        0.0267
     24 C         -33.2611   -6.5404   26.4217 C.3     1  UNL1        0.0050
     25 C         -32.9842   -8.7073   27.3317 C.3     1  UNL1        0.0304
     26 C         -32.7409   -9.4987   28.2329 C.2     1  UNL1       -0.0258
     27 C         -32.7435   -9.1958   29.4872 C.2     1  UNL1       -0.0046
     28 C         -32.4080  -10.2798   30.5253 C.2     1  UNL1       -0.0003
     29 C         -32.3908   -9.9478   31.8992 C.2     1  UNL1       -0.0000
     30 C         -32.6290   -8.6025   32.2849 C.2     1  UNL1       -0.0000
     31 C         -33.0436   -7.6905   31.3779 C.2     1  UNL1       -0.0000
@<TRIPOS>BOND
     1     3     4    1
     2     7    13    1
     3    13    14   am
     4    14    15    1
     5    13    16    2
     6    15    17    1
     7    20    23    1
     8    23    24    1
     9    23    25    1
    10    25    26    1
    11    26    27    2
    12    27    28    1
    13    28    29    2
    14    29    30    1
    15    30    31    2
    16    17    18   ar
    17    18    19   ar
    18    19    20   ar
    19    20    21   ar
    20    21    22   ar
    21    22    17   ar
    22     1     2   ar
    23     2     3   ar
    24     3     9   ar
    25     9     8   ar
    26     8     7   ar
    27     7     1   ar
    28     4     5   ar
    29     5     6   ar
    30     6    10   ar
    31    10    12   ar
    32    12    11   ar
    33    11     4   ar
