@<TRIPOS>MOLECULE
outputs/IAG933/test6/raw/output_2793_IAG933_linker_design_.xyz
 45 49 0 0 0
SMALL
GASTEIGER

@<TRIPOS>ATOM
      1 C         -24.8550   -1.0120   30.1430 C.3     1  UNL1        0.0451
      2 C         -24.9730   -2.5050   29.7880 C.2     1  UNL1       -0.0207
      3 C         -23.9060   -3.1730   29.1460 C.2     1  UNL1       -0.0042
      4 C         -23.9890   -4.5490   28.8530 C.2     1  UNL1       -0.0003
      5 C         -25.1370   -5.2800   29.2050 C.2     1  UNL1       -0.0000
      6 C         -26.2320   -4.6110   29.7840 C.2     1  UNL1       -0.0003
      7 C         -26.1550   -3.2320   30.0650 C.2     1  UNL1       -0.0042
      8 C         -25.3870   -0.6790   31.5710 C.3     1  UNL1        0.0917
      9 C         -25.1890    0.7730   32.0280 C.3     1  UNL1        0.0752
     10 C         -25.3360    0.6840   33.5440 C.3     1  UNL1        0.0362
     11 C         -24.8290   -0.7150   33.9050 C.3     1  UNL1        0.0901
     12 N         -24.7580   -1.4810   32.6460 N.3     1  UNL1       -0.2177
     13 C         -25.6880    1.6140   26.4610 C.2     1  UNL1        0.0376
     14 C         -26.2500    2.9200   26.3950 C.2     1  UNL1        0.0765
     15 C         -25.6420    4.0930   27.1230 C.2     1  UNL1        0.2664
     16 N         -25.6140    5.2520   26.4490 N.am    1  UNL1       -0.1997
     17 C         -25.0260    6.4790   26.9630 C.3     1  UNL1        0.1388
     18 O         -25.1430    3.9660   28.2430 O.2     1  UNL1       -0.2683
     19 C         -27.4380    3.0910   25.6450 C.2     1  UNL1        0.1067
     20 N         -28.0750    2.0890   25.0030 N.2     1  UNL1       -0.2081
     21 C         -27.5430    0.8490   25.0790 C.2     1  UNL1        0.2533
     22 O         -28.1930   -0.2080   24.4770 O.2     1  UNL1       -0.4558
     23 C         -29.4600    0.0050   23.8660 C.3     1  UNL1        0.2426
     24 C         -30.0650   -1.3770   23.5730 C.3     1  UNL1        0.2292
     25 O         -30.7290   -1.8780   24.7210 O.3     1  UNL1       -0.2162
     26 C         -26.3540    0.5760   25.7770 C.2     1  UNL1        0.1930
     27 F         -25.8600   -0.6810   25.7950 F       1  UNL1       -0.1992
     28 O         -29.8357    0.7265   30.0681 O.3     1  UNL1       -0.3536
     29 C         -28.7840   -1.3321   29.4436 C.3     1  UNL1        0.0676
     30 C         -28.1365    1.9589   31.4869 C.3     1  UNL1        0.0212
     31 C         -27.7723    2.0128   30.0194 C.3     1  UNL1        0.0460
     32 N         -25.8605    1.8285   31.3836 N.3     1  UNL1       -0.2735
     33 C         -29.3659   -0.5369   30.5964 C.3     1  UNL1        0.1449
     34 C         -28.8405    1.2981   29.1521 C.3     1  UNL1        0.1435
     35 O         -31.0696   -0.6617   28.3011 O.3     1  UNL1       -0.2203
     36 C         -26.9226    2.5168   32.0051 C.3     1  UNL1        0.0722
     37 C         -24.3271    0.9424   28.2975 C.2     1  UNL1       -0.0361
     38 C         -24.3848    1.4820   27.0502 C.2     1  UNL1       -0.0030
     39 C         -22.2602    1.4223   27.4984 C.2     1  UNL1        0.1217
     40 C         -29.8159   -1.4228   28.2778 C.3     1  UNL1        0.1847
     41 C         -26.2496    1.7175   29.9306 C.3     1  UNL1        0.0639
     42 C         -23.1225    1.8919   26.5126 C.2     1  UNL1        0.0249
     43 C         -22.9233    0.8619   28.6000 C.3     1  UNL1        0.0785
     44 C         -25.5318    0.7799   29.0248 C.3     1  UNL1        0.0384
     45 F         -20.9163    1.6620   27.3991 F       1  UNL1       -0.2085
@<TRIPOS>BOND
     1     2     7    1
     2     2     1    1
     3     3     2    2
     4     4     3    1
     5     4     5    2
     6     5     6    1
     7     6     7    2
     8     8     1    1
     9     8     9    1
    10     8    12    1
    11     9    10    1
    12    10    11    1
    13    12    11    1
    14    13    38    1
    15    14    13    1
    16    14    15    1
    17    15    18    2
    18    16    17    1
    19    16    15    1
    20    19    14    2
    21    20    21    2
    22    20    19    1
    23    21    26    1
    24    22    21    1
    25    23    22    1
    26    24    23    1
    27    24    25    1
    28    26    27    1
    29    26    13    2
    30    28    33    1
    31    29    33    1
    32    30    36    1
    33    31    34    1
    34    31    30    1
    35    32    36    1
    36    32     9    1
    37    34    28    1
    38    37    43    1
    39    37    44    1
    40    38    37    2
    41    39    43    1
    42    40    35    1
    43    40    29    1
    44    41    44    1
    45    41    31    1
    46    41    32    1
    47    42    38    1
    48    42    39    2
    49    45    39    1
