@<TRIPOS>MOLECULE
outputs/IAG933/test6/raw/output_2796_IAG933_linker_design_.xyz
 40 43 0 0 0
SMALL
GASTEIGER

@<TRIPOS>ATOM
      1 C         -24.8550   -1.0120   30.1430 C.3     1  UNL1        0.1537
      2 C         -24.9730   -2.5050   29.7880 C.2     1  UNL1        0.0059
      3 C         -23.9060   -3.1730   29.1460 C.2     1  UNL1       -0.0019
      4 C         -23.9890   -4.5490   28.8530 C.2     1  UNL1       -0.0002
      5 C         -25.1370   -5.2800   29.2050 C.2     1  UNL1       -0.0000
      6 C         -26.2320   -4.6110   29.7840 C.2     1  UNL1       -0.0002
      7 C         -26.1550   -3.2320   30.0650 C.2     1  UNL1       -0.0019
      8 C         -25.3870   -0.6790   31.5710 C.3     1  UNL1        0.1041
      9 C         -25.1890    0.7730   32.0280 C.3     1  UNL1        0.0217
     10 C         -25.3360    0.6840   33.5440 C.3     1  UNL1        0.0203
     11 C         -24.8290   -0.7150   33.9050 C.3     1  UNL1        0.0888
     12 N         -24.7580   -1.4810   32.6460 N.3     1  UNL1       -0.2166
     13 C         -25.6880    1.6140   26.4610 C.2     1  UNL1        0.0384
     14 C         -26.2500    2.9200   26.3950 C.2     1  UNL1        0.0764
     15 C         -25.6420    4.0930   27.1230 C.2     1  UNL1        0.2664
     16 N         -25.6140    5.2520   26.4490 N.am    1  UNL1       -0.1997
     17 C         -25.0260    6.4790   26.9630 C.3     1  UNL1        0.1388
     18 O         -25.1430    3.9660   28.2430 O.2     1  UNL1       -0.2683
     19 C         -27.4380    3.0910   25.6450 C.2     1  UNL1        0.1067
     20 N         -28.0750    2.0890   25.0030 N.2     1  UNL1       -0.2081
     21 C         -27.5430    0.8490   25.0790 C.2     1  UNL1        0.2533
     22 O         -28.1930   -0.2080   24.4770 O.2     1  UNL1       -0.4558
     23 C         -29.4600    0.0050   23.8660 C.3     1  UNL1        0.2426
     24 C         -30.0650   -1.3770   23.5730 C.3     1  UNL1        0.2292
     25 O         -30.7290   -1.8780   24.7210 O.3     1  UNL1       -0.2162
     26 C         -26.3540    0.5760   25.7770 C.2     1  UNL1        0.1929
     27 F         -25.8600   -0.6810   25.7950 F       1  UNL1       -0.1992
     28 F         -21.9807   -0.0128   29.6646 F       1  UNL1       -0.2310
     29 F         -20.9264    2.1879   27.1168 F       1  UNL1       -0.2269
     30 O         -23.5262    2.4295   30.8842 O.3     1  UNL1       -0.2171
     31 C         -23.0967    1.6884   26.6791 C.2     1  UNL1        0.1513
     32 C         -24.0200    4.0782   32.3698 C.3     1  UNL1        0.2175
     33 C         -24.4078    1.3792   27.2185 C.2     1  UNL1        0.0358
     34 C         -23.5738    1.7542   29.5448 C.3     1  UNL1        0.2186
     35 C         -22.1716    1.2304   29.0298 C.3     1  UNL1        0.2326
     36 C         -21.9487    1.2919   27.5050 C.3     1  UNL1        0.2449
     37 F         -22.9010    2.3532   25.5705 F       1  UNL1       -0.2062
     38 O         -25.0492   -0.1241   29.0918 O.3     1  UNL1       -0.3457
     39 O         -24.4210    3.3379   31.2277 O.3     1  UNL1       -0.2175
     40 C         -24.4374    0.9483   28.5501 C.3     1  UNL1        0.1729
@<TRIPOS>BOND
     1     1    38    1
     2     2     7    1
     3     2     1    1
     4     3     2    2
     5     4     3    1
     6     4     5    2
     7     5     6    1
     8     6     7    2
     9     8     1    1
    10     8     9    1
    11     8    12    1
    12     9    10    1
    13    10    11    1
    14    12    11    1
    15    13    33    1
    16    14    13    1
    17    14    15    1
    18    15    18    2
    19    16    17    1
    20    16    15    1
    21    19    14    2
    22    20    21    2
    23    20    19    1
    24    21    26    1
    25    22    21    1
    26    23    22    1
    27    24    23    1
    28    24    25    1
    29    26    27    1
    30    26    13    2
    31    30    39    1
    32    31    33    2
    33    31    36    1
    34    33    40    1
    35    34    30    1
    36    35    34    1
    37    35    28    1
    38    36    29    1
    39    36    35    1
    40    37    31    1
    41    39    32    1
    42    40    38    1
    43    40    34    1
