@<TRIPOS>MOLECULE
outputs/IAG933/test6/raw/output_2799_IAG933_linker_design_.xyz
 43 48 0 0 0
SMALL
GASTEIGER

@<TRIPOS>ATOM
      1 C         -24.8550   -1.0120   30.1430 C.3     1  UNL1        0.1141
      2 C         -24.9730   -2.5050   29.7880 C.2     1  UNL1       -0.0029
      3 C         -23.9060   -3.1730   29.1460 C.2     1  UNL1       -0.0026
      4 C         -23.9890   -4.5490   28.8530 C.2     1  UNL1       -0.0003
      5 C         -25.1370   -5.2800   29.2050 C.2     1  UNL1       -0.0000
      6 C         -26.2320   -4.6110   29.7840 C.2     1  UNL1       -0.0003
      7 C         -26.1550   -3.2320   30.0650 C.2     1  UNL1       -0.0026
      8 C         -25.3870   -0.6790   31.5710 C.3     1  UNL1        0.0951
      9 C         -25.1890    0.7730   32.0280 C.3     1  UNL1        0.0209
     10 C         -25.3360    0.6840   33.5440 C.3     1  UNL1        0.0203
     11 C         -24.8290   -0.7150   33.9050 C.3     1  UNL1        0.0888
     12 N         -24.7580   -1.4810   32.6460 N.3     1  UNL1       -0.2174
     13 C         -25.6880    1.6140   26.4610 C.3     1  UNL1        0.0778
     14 C         -26.2500    2.9200   26.3950 C.2     1  UNL1        0.0552
     15 C         -25.6420    4.0930   27.1230 C.2     1  UNL1        0.2625
     16 N         -25.6140    5.2520   26.4490 N.am    1  UNL1       -0.2000
     17 C         -25.0260    6.4790   26.9630 C.3     1  UNL1        0.1388
     18 O         -25.1430    3.9660   28.2430 O.2     1  UNL1       -0.2687
     19 C         -27.4380    3.0910   25.6450 C.2     1  UNL1        0.1022
     20 N         -28.0750    2.0890   25.0030 N.2     1  UNL1       -0.2119
     21 C         -27.5430    0.8490   25.0790 C.2     1  UNL1        0.2341
     22 O         -28.1930   -0.2080   24.4770 O.2     1  UNL1       -0.4585
     23 C         -29.4600    0.0050   23.8660 C.3     1  UNL1        0.2423
     24 C         -30.0650   -1.3770   23.5730 C.3     1  UNL1        0.2292
     25 O         -30.7290   -1.8780   24.7210 O.3     1  UNL1       -0.2162
     26 C         -26.3540    0.5760   25.7770 C.3     1  UNL1        0.2404
     27 F         -25.8600   -0.6810   25.7950 F       1  UNL1       -0.2269
     28 C         -29.5534    3.2629   30.5716 C.2     1  UNL1        0.0013
     29 C         -22.5060    1.7361   27.0436 C.ar    1  UNL1        0.2320
     30 C         -25.5475    0.6608   28.6047 C.3     1  UNL1        0.1730
     31 O         -21.4196    1.4981   27.8340 O.2     1  UNL1       -0.3409
     32 C         -23.5591    1.2007   27.7016 C.ar    1  UNL1        0.0644
     33 N         -21.9780    0.7096   28.9831 N.ar    1  UNL1       -0.0611
     34 C         -27.7008    4.1235   31.9291 C.2     1  UNL1        0.0013
     35 C         -29.0885    3.8594   31.7842 C.2     1  UNL1        0.0001
     36 C         -23.3170    0.5992   28.7548 C.ar    1  UNL1        0.1720
     37 N         -24.5326    0.0319   29.2259 N.pl3   1  UNL1       -0.2714
     38 CL        -22.5601    2.4242   25.4619 Cl      1  UNL1       -0.0402
     39 C         -28.5848    2.9706   29.5629 C.2     1  UNL1        0.0161
     40 C         -27.1836    2.9096   29.8565 C.2     1  UNL1        0.0671
     41 C         -26.7332    3.7366   30.9385 C.2     1  UNL1        0.0161
     42 C         -24.9556    1.2290   27.4452 C.3     1  UNL1        0.0755
     43 N         -26.2957    1.7826   29.3488 N.pl3   1  UNL1       -0.2188
@<TRIPOS>BOND
     1     1     2    1
     2     2     7    1
     3     3     2    2
     4     4     3    1
     5     4     5    2
     6     5     6    1
     7     6     7    2
     8     8     1    1
     9     8     9    1
    10     8    12    1
    11     9    10    1
    12    10    11    1
    13    12    11    1
    14    13    14    1
    15    13    42    1
    16    14    15    1
    17    15    18    2
    18    16    17    1
    19    16    15    1
    20    19    14    2
    21    20    21    2
    22    20    19    1
    23    21    26    1
    24    22    21    1
    25    23    22    1
    26    24    23    1
    27    24    25    1
    28    26    27    1
    29    26    13    1
    30    28    35    1
    31    29    32   ar
    32    29    31   ar
    33    30    37    1
    34    30    43    1
    35    31    33   ar
    36    32    36   ar
    37    35    34    2
    38    36    33   ar
    39    36    37    1
    40    37     1    1
    41    38    29    1
    42    39    40    1
    43    39    28    2
    44    40    41    2
    45    41    34    1
    46    42    32    1
    47    42    30    1
    48    43    40    1
