@<TRIPOS>MOLECULE
outputs/IAG933/test6/raw/output_2801_IAG933_linker_design_.xyz
 45 49 0 0 0
SMALL
GASTEIGER

@<TRIPOS>ATOM
      1 C         -24.8550   -1.0120   30.1430 C.3     1  UNL1        0.0557
      2 C         -24.9730   -2.5050   29.7880 C.2     1  UNL1       -0.0197
      3 C         -23.9060   -3.1730   29.1460 C.2     1  UNL1       -0.0042
      4 C         -23.9890   -4.5490   28.8530 C.2     1  UNL1       -0.0003
      5 C         -25.1370   -5.2800   29.2050 C.2     1  UNL1       -0.0000
      6 C         -26.2320   -4.6110   29.7840 C.2     1  UNL1       -0.0003
      7 C         -26.1550   -3.2320   30.0650 C.2     1  UNL1       -0.0042
      8 C         -25.3870   -0.6790   31.5710 C.3     1  UNL1        0.0782
      9 C         -25.1890    0.7730   32.0280 C.3     1  UNL1        0.0192
     10 C         -25.3360    0.6840   33.5440 C.3     1  UNL1        0.0202
     11 C         -24.8290   -0.7150   33.9050 C.3     1  UNL1        0.0887
     12 N         -24.7580   -1.4810   32.6460 N.3     1  UNL1       -0.2191
     13 C         -25.6880    1.6140   26.4610 C.2     1  UNL1        0.0381
     14 C         -26.2500    2.9200   26.3950 C.2     1  UNL1        0.0744
     15 C         -25.6420    4.0930   27.1230 C.2     1  UNL1        0.2242
     16 N         -25.6140    5.2520   26.4490 N.2     1  UNL1       -0.2356
     17 C         -25.0260    6.4790   26.9630 C.3     1  UNL1        0.1550
     18 O         -25.1430    3.9660   28.2430 O.2     1  UNL1       -0.4351
     19 C         -27.4380    3.0910   25.6450 C.2     1  UNL1        0.1068
     20 N         -28.0750    2.0890   25.0030 N.2     1  UNL1       -0.2081
     21 C         -27.5430    0.8490   25.0790 C.2     1  UNL1        0.2533
     22 O         -28.1930   -0.2080   24.4770 O.2     1  UNL1       -0.4558
     23 C         -29.4600    0.0050   23.8660 C.3     1  UNL1        0.2426
     24 C         -30.0650   -1.3770   23.5730 C.3     1  UNL1        0.2292
     25 O         -30.7290   -1.8780   24.7210 O.3     1  UNL1       -0.2162
     26 C         -26.3540    0.5760   25.7770 C.2     1  UNL1        0.1931
     27 F         -25.8600   -0.6810   25.7950 F       1  UNL1       -0.1992
     28 O         -24.7473    3.6826   30.6123 O.3     1  UNL1       -0.1749
     29 C         -25.6541    3.5126   29.4911 C.3     1  UNL1        0.2944
     30 C         -29.6114    4.6624   30.3430 C.2     1  UNL1       -0.0000
     31 C         -21.1925    1.7118   27.0595 C.2     1  UNL1       -0.0214
     32 C         -21.4114    0.8462   28.1248 C.3     1  UNL1        0.0520
     33 C         -28.1270    3.0380   29.3970 C.2     1  UNL1        0.0017
     34 C         -29.4340    3.5012   29.5937 C.2     1  UNL1       -0.0001
     35 C         -27.2260    4.8466   30.6895 C.2     1  UNL1        0.0017
     36 C         -25.9089   -0.4691   29.1898 C.3     1  UNL1        0.0946
     37 C         -23.3956    1.7889   26.1250 C.2     1  UNL1       -0.0003
     38 C         -24.3666    1.4726   26.9561 C.2     1  UNL1        0.0022
     39 C         -22.1256    2.2106   26.1194 C.2     1  UNL1       -0.0042
     40 N         -25.8360    0.8702   28.9477 N.3     1  UNL1       -0.2109
     41 C         -28.5056    5.3154   30.8995 C.2     1  UNL1       -0.0001
     42 C         -23.8257    0.7993   27.8398 C.2     1  UNL1       -0.0042
     43 C         -25.6955    1.9612   29.1449 C.3     1  UNL1        0.1657
     44 C         -22.6554    0.4069   28.4601 C.2     1  UNL1       -0.0214
     45 C         -27.0296    3.7684   29.8931 C.2     1  UNL1        0.0445
@<TRIPOS>BOND
     1     1    36    1
     2     2     7    1
     3     2     1    1
     4     3     2    2
     5     4     3    1
     6     4     5    2
     7     5     6    1
     8     6     7    2
     9     8     1    1
    10     8     9    1
    11     8    12    1
    12     9    10    1
    13    10    11    1
    14    12    11    1
    15    13    38    1
    16    14    13    1
    17    14    15    1
    18    15    18    1
    19    16    17    1
    20    16    15    2
    21    18    29    1
    22    19    14    2
    23    20    21    2
    24    20    19    1
    25    21    26    1
    26    22    21    1
    27    23    22    1
    28    24    23    1
    29    24    25    1
    30    26    27    1
    31    26    13    2
    32    29    45    1
    33    29    28    1
    34    30    41    1
    35    31    32    1
    36    32    44    1
    37    33    34    1
    38    33    45    2
    39    34    30    2
    40    35    41    2
    41    37    38    2
    42    38    42    1
    43    39    37    1
    44    39    31    2
    45    40    43    1
    46    40    36    1
    47    42    44    2
    48    43    29    1
    49    45    35    1
