@<TRIPOS>MOLECULE
outputs/IAG933/test6/raw/output_2803_IAG933_linker_design_.xyz
 39 43 0 0 0
SMALL
GASTEIGER

@<TRIPOS>ATOM
      1 C         -24.8550   -1.0120   30.1430 C.3     1  UNL1        0.1192
      2 C         -24.9730   -2.5050   29.7880 C.2     1  UNL1       -0.0026
      3 C         -23.9060   -3.1730   29.1460 C.2     1  UNL1       -0.0026
      4 C         -23.9890   -4.5490   28.8530 C.2     1  UNL1       -0.0003
      5 C         -25.1370   -5.2800   29.2050 C.2     1  UNL1       -0.0000
      6 C         -26.2320   -4.6110   29.7840 C.2     1  UNL1       -0.0003
      7 C         -26.1550   -3.2320   30.0650 C.2     1  UNL1       -0.0026
      8 C         -25.3870   -0.6790   31.5710 C.3     1  UNL1        0.0955
      9 C         -25.1890    0.7730   32.0280 C.3     1  UNL1        0.0209
     10 C         -25.3360    0.6840   33.5440 C.3     1  UNL1        0.0203
     11 C         -24.8290   -0.7150   33.9050 C.3     1  UNL1        0.0888
     12 N         -24.7580   -1.4810   32.6460 N.3     1  UNL1       -0.2174
     13 C         -25.6880    1.6140   26.4610 C.2     1  UNL1        0.0958
     14 C         -26.2500    2.9200   26.3950 C.2     1  UNL1        0.0904
     15 C         -25.6420    4.0930   27.1230 C.2     1  UNL1        0.2676
     16 N         -25.6140    5.2520   26.4490 N.am    1  UNL1       -0.1997
     17 C         -25.0260    6.4790   26.9630 C.3     1  UNL1        0.1388
     18 O         -25.1430    3.9660   28.2430 O.2     1  UNL1       -0.2683
     19 C         -27.4380    3.0910   25.6450 C.2     1  UNL1        0.1080
     20 N         -28.0750    2.0890   25.0030 N.2     1  UNL1       -0.2080
     21 C         -27.5430    0.8490   25.0790 C.2     1  UNL1        0.2546
     22 O         -28.1930   -0.2080   24.4770 O.2     1  UNL1       -0.4558
     23 C         -29.4600    0.0050   23.8660 C.3     1  UNL1        0.2426
     24 C         -30.0650   -1.3770   23.5730 C.3     1  UNL1        0.2292
     25 O         -30.7290   -1.8780   24.7210 O.3     1  UNL1       -0.2162
     26 C         -26.3540    0.5760   25.7770 C.2     1  UNL1        0.2067
     27 F         -25.8600   -0.6810   25.7950 F       1  UNL1       -0.1979
     28 N         -24.6253    1.2160   27.3842 N.am    1  UNL1       -0.2113
     29 O         -26.1519    0.7709   28.8978 O.2     1  UNL1       -0.2516
     30 N         -24.1924   -0.1682   29.1002 N.am    1  UNL1       -0.2427
     31 C         -22.7947    0.0344   28.8030 C.2     1  UNL1        0.0374
     32 C         -21.3797   -0.4882   29.2796 C.3     1  UNL1        0.0673
     33 C         -20.3998    0.2541   28.5944 C.2     1  UNL1       -0.0202
     34 O         -22.4910    3.0546   25.7314 O.3     1  UNL1       -0.0327
     35 O         -23.0849    1.8651   25.8100 O.3     1  UNL1       -0.1656
     36 C         -22.4378    0.9202   27.8166 C.2     1  UNL1        0.0372
     37 C         -25.0564    0.5220   28.2926 C.2     1  UNL1        0.3168
     38 C         -20.9425    1.0847   27.6939 C.2     1  UNL1       -0.0034
     39 C         -23.4628    1.4274   27.0139 C.3     1  UNL1        0.2621
@<TRIPOS>BOND
     1     1     2    1
     2     2     7    1
     3     3     2    2
     4     4     3    1
     5     4     5    2
     6     5     6    1
     7     6     7    2
     8     8     1    1
     9     8     9    1
    10     8    12    1
    11     9    10    1
    12    10    11    1
    13    12    11    1
    14    13    28    1
    15    14    13    1
    16    14    15    1
    17    15    18    2
    18    16    17    1
    19    16    15    1
    20    19    14    2
    21    20    21    2
    22    20    19    1
    23    21    26    1
    24    22    21    1
    25    23    22    1
    26    24    23    1
    27    24    25    1
    28    26    27    1
    29    26    13    2
    30    28    37   am
    31    30     1    1
    32    31    30    1
    33    31    32    1
    34    33    32    1
    35    34    35    1
    36    36    31    2
    37    37    29    2
    38    37    30   am
    39    38    36    1
    40    38    33    2
    41    39    35    1
    42    39    28    1
    43    39    36    1
