@<TRIPOS>MOLECULE
outputs/IAG933/test6/raw/output_2804_IAG933_linker_design_.xyz
 42 46 0 0 0
SMALL
GASTEIGER

@<TRIPOS>ATOM
      1 C         -24.8550   -1.0120   30.1430 C.3     1  UNL1        0.0609
      2 C         -24.9730   -2.5050   29.7880 C.2     1  UNL1       -0.0192
      3 C         -23.9060   -3.1730   29.1460 C.2     1  UNL1       -0.0042
      4 C         -23.9890   -4.5490   28.8530 C.2     1  UNL1       -0.0003
      5 C         -25.1370   -5.2800   29.2050 C.2     1  UNL1       -0.0000
      6 C         -26.2320   -4.6110   29.7840 C.2     1  UNL1       -0.0003
      7 C         -26.1550   -3.2320   30.0650 C.2     1  UNL1       -0.0042
      8 C         -25.3870   -0.6790   31.5710 C.3     1  UNL1        0.0787
      9 C         -25.1890    0.7730   32.0280 C.3     1  UNL1        0.0193
     10 C         -25.3360    0.6840   33.5440 C.3     1  UNL1        0.0202
     11 C         -24.8290   -0.7150   33.9050 C.3     1  UNL1        0.0887
     12 N         -24.7580   -1.4810   32.6460 N.3     1  UNL1       -0.2191
     13 C         -25.6880    1.6140   26.4610 C.2     1  UNL1        0.1831
     14 C         -26.2500    2.9200   26.3950 C.2     1  UNL1        0.1111
     15 C         -25.6420    4.0930   27.1230 C.2     1  UNL1        0.2694
     16 N         -25.6140    5.2520   26.4490 N.am    1  UNL1       -0.1996
     17 C         -25.0260    6.4790   26.9630 C.3     1  UNL1        0.1388
     18 O         -25.1430    3.9660   28.2430 O.2     1  UNL1       -0.2682
     19 C         -27.4380    3.0910   25.6450 C.2     1  UNL1        0.1098
     20 N         -28.0750    2.0890   25.0030 N.2     1  UNL1       -0.2079
     21 C         -27.5430    0.8490   25.0790 C.2     1  UNL1        0.2564
     22 O         -28.1930   -0.2080   24.4770 O.2     1  UNL1       -0.4558
     23 C         -29.4600    0.0050   23.8660 C.3     1  UNL1        0.2426
     24 C         -30.0650   -1.3770   23.5730 C.3     1  UNL1        0.2292
     25 O         -30.7290   -1.8780   24.7210 O.3     1  UNL1       -0.2162
     26 C         -26.3540    0.5760   25.7770 C.2     1  UNL1        0.2273
     27 F         -25.8600   -0.6810   25.7950 F       1  UNL1       -0.1960
     28 CL        -22.7651    2.8060   25.3777 Cl      1  UNL1       -0.0791
     29 O         -28.1000   -0.4548   27.9307 O.2     1  UNL1       -0.2721
     30 N         -26.5291    0.6222   29.1874 N.am    1  UNL1       -0.2495
     31 C         -23.6436    1.2349   27.4616 C.2     1  UNL1        0.1534
     32 C         -27.7797    0.2306   28.8431 C.2     1  UNL1        0.2578
     33 O         -28.0868    2.3460   29.4225 O.3     1  UNL1       -0.3243
     34 C         -25.1308   -0.0002   29.0466 C.3     1  UNL1        0.1084
     35 C         -21.3052    1.5661   27.2380 C.2     1  UNL1        0.0145
     36 C         -22.3167    0.1628   29.0347 C.2     1  UNL1        0.0004
     37 C         -26.6987    2.0110   29.6700 C.3     1  UNL1        0.2432
     38 C         -28.8273    1.0853   29.5044 C.3     1  UNL1        0.2288
     39 C         -22.5860    1.8354   26.7756 C.2     1  UNL1        0.0918
     40 O         -24.6829    1.5166   27.1838 O.2     1  UNL1       -0.4503
     41 C         -23.6710    0.3694   28.5563 C.2     1  UNL1        0.0316
     42 C         -21.1872    0.7473   28.3800 C.2     1  UNL1        0.0008
@<TRIPOS>BOND
     1     1    34    1
     2     2     7    1
     3     2     1    1
     4     3     2    2
     5     4     3    1
     6     4     5    2
     7     5     6    1
     8     6     7    2
     9     8     1    1
    10     8     9    1
    11     8    12    1
    12     9    10    1
    13    10    11    1
    14    12    11    1
    15    13    40    1
    16    14    13    1
    17    14    15    1
    18    15    18    2
    19    16    17    1
    20    16    15    1
    21    19    14    2
    22    20    21    2
    23    20    19    1
    24    21    26    1
    25    22    21    1
    26    23    22    1
    27    24    23    1
    28    24    25    1
    29    26    27    1
    30    26    13    2
    31    28    39    1
    32    29    32    2
    33    30    37    1
    34    31    41    1
    35    32    30   am
    36    32    38    1
    37    33    38    1
    38    33    37    1
    39    34    41    1
    40    34    30    1
    41    35    42    2
    42    39    35    1
    43    39    31    2
    44    40    31    1
    45    41    36    2
    46    42    36    1
