@<TRIPOS>MOLECULE
outputs/IAG933/test6/raw/output_2806_IAG933_linker_design_.xyz
 42 46 0 0 0
SMALL
GASTEIGER

@<TRIPOS>ATOM
      1 C         -24.8550   -1.0120   30.1430 C.3     1  UNL1        0.1116
      2 C         -24.9730   -2.5050   29.7880 C.2     1  UNL1       -0.0030
      3 C         -23.9060   -3.1730   29.1460 C.2     1  UNL1       -0.0026
      4 C         -23.9890   -4.5490   28.8530 C.2     1  UNL1       -0.0003
      5 C         -25.1370   -5.2800   29.2050 C.2     1  UNL1       -0.0000
      6 C         -26.2320   -4.6110   29.7840 C.2     1  UNL1       -0.0003
      7 C         -26.1550   -3.2320   30.0650 C.2     1  UNL1       -0.0026
      8 C         -25.3870   -0.6790   31.5710 C.3     1  UNL1        0.0950
      9 C         -25.1890    0.7730   32.0280 C.3     1  UNL1        0.0209
     10 C         -25.3360    0.6840   33.5440 C.3     1  UNL1        0.0203
     11 C         -24.8290   -0.7150   33.9050 C.3     1  UNL1        0.0888
     12 N         -24.7580   -1.4810   32.6460 N.3     1  UNL1       -0.2174
     13 C         -25.6880    1.6140   26.4610 C.2     1  UNL1        0.0393
     14 C         -26.2500    2.9200   26.3950 C.2     1  UNL1        0.0766
     15 C         -25.6420    4.0930   27.1230 C.2     1  UNL1        0.2664
     16 N         -25.6140    5.2520   26.4490 N.am    1  UNL1       -0.1997
     17 C         -25.0260    6.4790   26.9630 C.3     1  UNL1        0.1388
     18 O         -25.1430    3.9660   28.2430 O.2     1  UNL1       -0.2683
     19 C         -27.4380    3.0910   25.6450 C.2     1  UNL1        0.1067
     20 N         -28.0750    2.0890   25.0030 N.2     1  UNL1       -0.2081
     21 C         -27.5430    0.8490   25.0790 C.2     1  UNL1        0.2533
     22 O         -28.1930   -0.2080   24.4770 O.2     1  UNL1       -0.4558
     23 C         -29.4600    0.0050   23.8660 C.3     1  UNL1        0.2426
     24 C         -30.0650   -1.3770   23.5730 C.3     1  UNL1        0.2292
     25 O         -30.7290   -1.8780   24.7210 O.3     1  UNL1       -0.2162
     26 C         -26.3540    0.5760   25.7770 C.2     1  UNL1        0.1931
     27 F         -25.8600   -0.6810   25.7950 F       1  UNL1       -0.1992
     28 N         -25.4899   -0.1793   29.1085 N.pl3   1  UNL1       -0.3001
     29 C         -30.2576   -0.7115   30.8962 C.2     1  UNL1       -0.0045
     30 C         -32.0143    1.0657   31.1430 C.3     1  UNL1        0.0310
     31 C         -22.1278    1.6660   27.1969 C.2     1  UNL1        0.0001
     32 C         -23.1940    0.4711   29.0012 C.2     1  UNL1        0.0145
     33 C         -24.4680    0.5283   28.3752 C.2     1  UNL1        0.0483
     34 C         -29.1028   -1.0720   30.2106 C.2     1  UNL1       -0.0029
     35 C         -28.1621   -0.1018   29.7350 C.2     1  UNL1       -0.0024
     36 C         -24.4717    1.2879   27.1374 C.2     1  UNL1        0.0159
     37 C         -22.0564    1.0062   28.4082 C.2     1  UNL1        0.0013
     38 C         -28.3589    1.2508   30.1452 C.2     1  UNL1       -0.0029
     39 C         -30.5458    0.6476   30.9735 C.2     1  UNL1       -0.0219
     40 C         -23.3309    1.8580   26.5447 C.2     1  UNL1        0.0013
     41 C         -26.9724   -0.4150   28.9132 C.3     1  UNL1        0.1179
     42 C         -29.5479    1.6231   30.8004 C.2     1  UNL1       -0.0045
@<TRIPOS>BOND
     1     1    28    1
     2     2     7    1
     3     2     1    1
     4     3     2    2
     5     4     3    1
     6     4     5    2
     7     5     6    1
     8     6     7    2
     9     8     1    1
    10     8     9    1
    11     8    12    1
    12     9    10    1
    13    10    11    1
    14    12    11    1
    15    13    36    1
    16    14    13    1
    17    14    15    1
    18    15    18    2
    19    16    17    1
    20    16    15    1
    21    19    14    2
    22    20    21    2
    23    20    19    1
    24    21    26    1
    25    22    21    1
    26    23    22    1
    27    24    23    1
    28    24    25    1
    29    26    27    1
    30    26    13    2
    31    29    39    1
    32    31    37    1
    33    33    32    1
    34    33    28    1
    35    34    29    2
    36    35    38    2
    37    35    34    1
    38    36    33    2
    39    37    32    2
    40    38    42    1
    41    39    30    1
    42    40    36    1
    43    40    31    2
    44    41    28    1
    45    41    35    1
    46    42    39    2
