@<TRIPOS>MOLECULE
outputs/IAG933/test6/raw/output_2808_IAG933_linker_design_.xyz
 41 44 0 0 0
SMALL
GASTEIGER

@<TRIPOS>ATOM
      1 C         -24.8550   -1.0120   30.1430 C.3     1  UNL1        0.0437
      2 C         -24.9730   -2.5050   29.7880 C.2     1  UNL1       -0.0208
      3 C         -23.9060   -3.1730   29.1460 C.2     1  UNL1       -0.0042
      4 C         -23.9890   -4.5490   28.8530 C.2     1  UNL1       -0.0003
      5 C         -25.1370   -5.2800   29.2050 C.2     1  UNL1       -0.0000
      6 C         -26.2320   -4.6110   29.7840 C.2     1  UNL1       -0.0003
      7 C         -26.1550   -3.2320   30.0650 C.2     1  UNL1       -0.0042
      8 C         -25.3870   -0.6790   31.5710 C.3     1  UNL1        0.0772
      9 C         -25.1890    0.7730   32.0280 C.3     1  UNL1        0.0195
     10 C         -25.3360    0.6840   33.5440 C.3     1  UNL1        0.0203
     11 C         -24.8290   -0.7150   33.9050 C.3     1  UNL1        0.0887
     12 N         -24.7580   -1.4810   32.6460 N.3     1  UNL1       -0.2191
     13 C         -25.6880    1.6140   26.4610 C.3     1  UNL1        0.0883
     14 C         -26.2500    2.9200   26.3950 C.2     1  UNL1        0.0564
     15 C         -25.6420    4.0930   27.1230 C.2     1  UNL1        0.2625
     16 N         -25.6140    5.2520   26.4490 N.am    1  UNL1       -0.2000
     17 C         -25.0260    6.4790   26.9630 C.3     1  UNL1        0.1388
     18 O         -25.1430    3.9660   28.2430 O.2     1  UNL1       -0.2687
     19 C         -27.4380    3.0910   25.6450 C.2     1  UNL1        0.1022
     20 N         -28.0750    2.0890   25.0030 N.2     1  UNL1       -0.2119
     21 C         -27.5430    0.8490   25.0790 C.2     1  UNL1        0.2341
     22 O         -28.1930   -0.2080   24.4770 O.2     1  UNL1       -0.4585
     23 C         -29.4600    0.0050   23.8660 C.3     1  UNL1        0.2423
     24 C         -30.0650   -1.3770   23.5730 C.3     1  UNL1        0.2292
     25 O         -30.7290   -1.8780   24.7210 O.3     1  UNL1       -0.2162
     26 C         -26.3540    0.5760   25.7770 C.3     1  UNL1        0.2416
     27 F         -25.8600   -0.6810   25.7950 F       1  UNL1       -0.2268
     28 C         -22.5474    1.4091   28.5330 C.2     1  UNL1        0.2256
     29 C         -24.4510    1.6270   30.9146 C.3     1  UNL1        0.0213
     30 C         -24.8694    1.9547   29.3942 C.3     1  UNL1        0.0933
     31 C         -26.5036    4.8789   31.7195 C.3     1  UNL1        0.0885
     32 C         -23.0793    2.1959   26.2275 C.3     1  UNL1        0.0298
     33 O         -22.1046    0.7001   29.4134 O.2     1  UNL1       -0.2749
     34 N         -26.5704    7.1855   32.0758 N.am    1  UNL1       -0.0878
     35 C         -25.8888    6.1511   31.6076 C.2     1  UNL1        0.2607
     36 N         -23.9411    1.5819   28.2676 N.am    1  UNL1       -0.2807
     37 O         -24.6698    6.2991   31.1462 O.2     1  UNL1       -0.2717
     38 C         -24.2606    1.3729   26.8390 C.3     1  UNL1        0.0832
     39 C         -24.7027    2.9824   31.6641 C.3     1  UNL1        0.0023
     40 C         -25.7315    3.7036   32.1575 C.3     1  UNL1        0.0097
     41 C         -21.8730    1.9422   27.2354 C.3     1  UNL1        0.0870
@<TRIPOS>BOND
     1     2     7    1
     2     2     1    1
     3     3     2    2
     4     4     3    1
     5     4     5    2
     6     5     6    1
     7     6     7    2
     8     8     1    1
     9     8     9    1
    10     8    12    1
    11     9    29    1
    12     9    10    1
    13    10    11    1
    14    12    11    1
    15    13    14    1
    16    13    38    1
    17    14    15    1
    18    15    18    2
    19    16    17    1
    20    16    15    1
    21    19    14    2
    22    20    21    2
    23    20    19    1
    24    21    26    1
    25    22    21    1
    26    23    22    1
    27    24    23    1
    28    24    25    1
    29    26    27    1
    30    26    13    1
    31    28    33    2
    32    29    30    1
    33    29    39    1
    34    31    40    1
    35    32    41    1
    36    35    31    1
    37    35    34    1
    38    36    28   am
    39    36    30    1
    40    37    35    2
    41    38    32    1
    42    38    36    1
    43    39    40    1
    44    41    28    1
