@<TRIPOS>MOLECULE
outputs/IAG933/test6/raw/output_2809_IAG933_linker_design_.xyz
 38 41 0 0 0
SMALL
GASTEIGER

@<TRIPOS>ATOM
      1 C         -24.8550   -1.0120   30.1430 C.3     1  UNL1        0.0442
      2 C         -24.9730   -2.5050   29.7880 C.2     1  UNL1       -0.0208
      3 C         -23.9060   -3.1730   29.1460 C.2     1  UNL1       -0.0042
      4 C         -23.9890   -4.5490   28.8530 C.2     1  UNL1       -0.0003
      5 C         -25.1370   -5.2800   29.2050 C.2     1  UNL1       -0.0000
      6 C         -26.2320   -4.6110   29.7840 C.2     1  UNL1       -0.0003
      7 C         -26.1550   -3.2320   30.0650 C.2     1  UNL1       -0.0042
      8 C         -25.3870   -0.6790   31.5710 C.3     1  UNL1        0.0858
      9 C         -25.1890    0.7730   32.0280 C.3     1  UNL1        0.0960
     10 C         -25.3360    0.6840   33.5440 C.3     1  UNL1        0.0294
     11 C         -24.8290   -0.7150   33.9050 C.3     1  UNL1        0.0892
     12 N         -24.7580   -1.4810   32.6460 N.3     1  UNL1       -0.2186
     13 C         -25.6880    1.6140   26.4610 C.2     1  UNL1        0.0329
     14 C         -26.2500    2.9200   26.3950 C.2     1  UNL1        0.0739
     15 C         -25.6420    4.0930   27.1230 C.2     1  UNL1        0.2662
     16 N         -25.6140    5.2520   26.4490 N.am    1  UNL1       -0.1997
     17 C         -25.0260    6.4790   26.9630 C.3     1  UNL1        0.1388
     18 O         -25.1430    3.9660   28.2430 O.2     1  UNL1       -0.2683
     19 C         -27.4380    3.0910   25.6450 C.2     1  UNL1        0.1065
     20 N         -28.0750    2.0890   25.0030 N.2     1  UNL1       -0.2081
     21 C         -27.5430    0.8490   25.0790 C.2     1  UNL1        0.2530
     22 O         -28.1930   -0.2080   24.4770 O.2     1  UNL1       -0.4558
     23 C         -29.4600    0.0050   23.8660 C.3     1  UNL1        0.2426
     24 C         -30.0650   -1.3770   23.5730 C.3     1  UNL1        0.2292
     25 O         -30.7290   -1.8780   24.7210 O.3     1  UNL1       -0.2162
     26 C         -26.3540    0.5760   25.7770 C.2     1  UNL1        0.1905
     27 F         -25.8600   -0.6810   25.7950 F       1  UNL1       -0.1995
     28 O         -22.9486    2.7476   25.7386 O.3     1  UNL1       -0.2185
     29 C         -21.7178    0.2308   28.9780 C.3     1  UNL1        0.0174
     30 C         -22.5430    0.9270   27.9451 C.3     1  UNL1        0.0595
     31 N         -23.7903    1.9524   30.5008 N.am    1  UNL1       -0.1871
     32 C         -20.9297    0.8873   27.8501 C.3     1  UNL1        0.0174
     33 C         -23.8957    1.5930   29.4089 C.3     1  UNL1        0.1904
     34 C         -24.4389    1.3214   26.9489 C.3     1  UNL1        0.1173
     35 N         -23.7359    1.5343   27.9929 N.3     1  UNL1       -0.2510
     36 O         -24.6789    3.0506   32.1248 O.2     1  UNL1       -0.2733
     37 C         -24.5530    2.0229   31.5692 C.2     1  UNL1        0.2436
     38 C         -23.4514    1.4874   25.7797 C.3     1  UNL1        0.2025
@<TRIPOS>BOND
     1     2     7    1
     2     2     1    1
     3     3     2    2
     4     4     3    1
     5     4     5    2
     6     5     6    1
     7     6     7    2
     8     8     1    1
     9     8     9    1
    10     8    12    1
    11     9    37    1
    12     9    10    1
    13    10    11    1
    14    12    11    1
    15    13    34    1
    16    14    13    1
    17    14    15    1
    18    15    18    2
    19    16    17    1
    20    16    15    1
    21    19    14    2
    22    20    21    2
    23    20    19    1
    24    21    26    1
    25    22    21    1
    26    23    22    1
    27    24    23    1
    28    24    25    1
    29    26    27    1
    30    26    13    2
    31    28    38    1
    32    30    35    1
    33    30    29    1
    34    31    37    1
    35    32    30    1
    36    32    29    1
    37    33    31    1
    38    34    38    1
    39    34    35    1
    40    35    33    1
    41    37    36    2
