@<TRIPOS>MOLECULE
No_281-gen_results/8p0m/2024-11-27-11-27-31/
 15 15 0 0 0
SMALL
GASTEIGER

@<TRIPOS>ATOM
      1 C         -28.0162   -0.8135   28.8779 C.3     1  UNL1        0.1324
      2 C         -28.4690   -0.7850   29.8287 C.ar    1  UNL1        0.0678
      3 C         -28.1816    0.4277   28.1134 C.2     1  UNL1        0.2475
      4 O         -27.2060    0.7105   27.3893 O.2     1  UNL1       -0.2729
      5 N         -29.3068    1.0856   28.0074 N.am    1  UNL1       -0.2032
      6 C         -29.5130    2.1773   27.2282 C.3     1  UNL1        0.1385
      7 N         -29.8769   -0.6216   29.9180 N.ar    1  UNL1       -0.2532
      8 C         -30.4960   -0.7455   31.0221 C.ar    1  UNL1        0.0630
      9 C         -31.8854   -0.5792   31.0942 C.3     1  UNL1        0.0714
     10 C         -29.8394   -1.1560   32.3213 C.ar    1  UNL1        0.0151
     11 C         -28.4558   -1.3786   32.3133 C.ar    1  UNL1        0.0024
     12 C         -27.7442   -1.3009   31.0929 C.ar    1  UNL1        0.0152
     13 C         -32.4046    0.1977   31.9201 C.2     1  UNL1       -0.0244
     14 C         -33.8659    0.4516   31.9665 C.2     1  UNL1       -0.0300
     15 C         -34.5755   -0.2022   30.9666 C.3     1  UNL1        0.0304
@<TRIPOS>BOND
     1     1     2    1
     2     1     3    1
     3     3     4    2
     4     3     5   am
     5     5     6    1
     6     9    13    1
     7    13    14    2
     8    14    15    1
     9     9     8    1
    10     2     7   ar
    11     7     8   ar
    12     8    10   ar
    13    10    11   ar
    14    11    12   ar
    15    12     2   ar
