@<TRIPOS>MOLECULE
outputs/IAG933/test6/raw/output_2811_IAG933_linker_design_.xyz
 40 43 0 0 0
SMALL
GASTEIGER

@<TRIPOS>ATOM
      1 C         -24.8550   -1.0120   30.1430 C.3     1  UNL1        0.1226
      2 C         -24.9730   -2.5050   29.7880 C.2     1  UNL1       -0.0023
      3 C         -23.9060   -3.1730   29.1460 C.2     1  UNL1       -0.0026
      4 C         -23.9890   -4.5490   28.8530 C.2     1  UNL1       -0.0003
      5 C         -25.1370   -5.2800   29.2050 C.2     1  UNL1       -0.0000
      6 C         -26.2320   -4.6110   29.7840 C.2     1  UNL1       -0.0003
      7 C         -26.1550   -3.2320   30.0650 C.2     1  UNL1       -0.0026
      8 C         -25.3870   -0.6790   31.5710 C.3     1  UNL1        0.0958
      9 C         -25.1890    0.7730   32.0280 C.3     1  UNL1        0.0209
     10 C         -25.3360    0.6840   33.5440 C.3     1  UNL1        0.0203
     11 C         -24.8290   -0.7150   33.9050 C.3     1  UNL1        0.0888
     12 N         -24.7580   -1.4810   32.6460 N.3     1  UNL1       -0.2174
     13 C         -25.6880    1.6140   26.4610 C.2     1  UNL1        0.0914
     14 C         -26.2500    2.9200   26.3950 C.2     1  UNL1        0.0900
     15 C         -25.6420    4.0930   27.1230 C.2     1  UNL1        0.2676
     16 N         -25.6140    5.2520   26.4490 N.am    1  UNL1       -0.1997
     17 C         -25.0260    6.4790   26.9630 C.3     1  UNL1        0.1388
     18 O         -25.1430    3.9660   28.2430 O.2     1  UNL1       -0.2683
     19 C         -27.4380    3.0910   25.6450 C.2     1  UNL1        0.1080
     20 N         -28.0750    2.0890   25.0030 N.2     1  UNL1       -0.2080
     21 C         -27.5430    0.8490   25.0790 C.2     1  UNL1        0.2546
     22 O         -28.1930   -0.2080   24.4770 O.2     1  UNL1       -0.4558
     23 C         -29.4600    0.0050   23.8660 C.3     1  UNL1        0.2426
     24 C         -30.0650   -1.3770   23.5730 C.3     1  UNL1        0.2292
     25 O         -30.7290   -1.8780   24.7210 O.3     1  UNL1       -0.2162
     26 C         -26.3540    0.5760   25.7770 C.2     1  UNL1        0.2064
     27 F         -25.8600   -0.6810   25.7950 F       1  UNL1       -0.1979
     28 C         -26.7625   -0.1795   28.9164 C.1     1  UNL1        0.1720
     29 F         -20.5945    1.8107   27.3524 F       1  UNL1       -0.2261
     30 N         -25.3592   -0.2033   29.0611 N.pl3   1  UNL1       -0.2233
     31 O         -22.3269    0.7733   28.5213 O.3     1  UNL1       -0.1830
     32 F         -22.2412    2.7173   25.7635 F       1  UNL1       -0.1802
     33 N         -27.7803   -0.2786   28.6754 N.1     1  UNL1       -0.1740
     34 C         -23.1847   -0.0566   28.5345 C.3     1  UNL1        0.3383
     35 C         -23.0069    1.7618   26.2764 C.3     1  UNL1        0.3627
     36 F         -23.1084    1.0672   25.1075 F       1  UNL1       -0.1802
     37 N         -24.5412    1.3328   27.2085 N.pl3   1  UNL1       -0.2353
     38 C         -21.9204    1.3142   27.2881 C.3     1  UNL1        0.2802
     39 O         -22.2890   -0.3074   29.4099 O.3     1  UNL1       -0.1830
     40 C         -24.6505    0.4342   28.1573 C.3     1  UNL1        0.2264
@<TRIPOS>BOND
     1     1    30    1
     2     2     7    1
     3     2     1    1
     4     3     2    2
     5     4     3    1
     6     4     5    2
     7     5     6    1
     8     6     7    2
     9     8     1    1
    10     8     9    1
    11     8    12    1
    12     9    10    1
    13    10    11    1
    14    12    11    1
    15    13    37    1
    16    14    13    1
    17    14    15    1
    18    15    18    2
    19    16    17    1
    20    16    15    1
    21    19    14    2
    22    20    21    2
    23    20    19    1
    24    21    26    1
    25    22    21    1
    26    23    22    1
    27    24    23    1
    28    24    25    1
    29    26    27    1
    30    26    13    2
    31    28    30    1
    32    31    34    1
    33    31    39    1
    34    32    35    1
    35    33    28    3
    36    34    39    1
    37    35    37    1
    38    35    38    1
    39    36    35    1
    40    38    29    1
    41    40    37    1
    42    40    34    1
    43    40    30    1
