@<TRIPOS>MOLECULE
outputs/IAG933/test6/raw/output_2812_IAG933_linker_design_.xyz
 41 45 0 0 0
SMALL
GASTEIGER

@<TRIPOS>ATOM
      1 C         -24.8550   -1.0120   30.1430 C.3     1  UNL1        0.0899
      2 C         -24.9730   -2.5050   29.7880 C.2     1  UNL1       -0.0169
      3 C         -23.9060   -3.1730   29.1460 C.2     1  UNL1       -0.0041
      4 C         -23.9890   -4.5490   28.8530 C.2     1  UNL1       -0.0003
      5 C         -25.1370   -5.2800   29.2050 C.2     1  UNL1       -0.0000
      6 C         -26.2320   -4.6110   29.7840 C.2     1  UNL1       -0.0003
      7 C         -26.1550   -3.2320   30.0650 C.2     1  UNL1       -0.0041
      8 C         -25.3870   -0.6790   31.5710 C.3     1  UNL1        0.0811
      9 C         -25.1890    0.7730   32.0280 C.3     1  UNL1        0.0193
     10 C         -25.3360    0.6840   33.5440 C.3     1  UNL1        0.0202
     11 C         -24.8290   -0.7150   33.9050 C.3     1  UNL1        0.0887
     12 N         -24.7580   -1.4810   32.6460 N.3     1  UNL1       -0.2190
     13 C         -25.6880    1.6140   26.4610 C.2     1  UNL1        0.1198
     14 C         -26.2500    2.9200   26.3950 C.2     1  UNL1        0.0837
     15 C         -25.6420    4.0930   27.1230 C.2     1  UNL1        0.2667
     16 N         -25.6140    5.2520   26.4490 N.am    1  UNL1       -0.1997
     17 C         -25.0260    6.4790   26.9630 C.3     1  UNL1        0.1388
     18 O         -25.1430    3.9660   28.2430 O.2     1  UNL1       -0.2683
     19 C         -27.4380    3.0910   25.6450 C.2     1  UNL1        0.1070
     20 N         -28.0750    2.0890   25.0030 N.2     1  UNL1       -0.2081
     21 C         -27.5430    0.8490   25.0790 C.2     1  UNL1        0.2535
     22 O         -28.1930   -0.2080   24.4770 O.2     1  UNL1       -0.4558
     23 C         -29.4600    0.0050   23.8660 C.3     1  UNL1        0.2426
     24 C         -30.0650   -1.3770   23.5730 C.3     1  UNL1        0.2292
     25 O         -30.7290   -1.8780   24.7210 O.3     1  UNL1       -0.2162
     26 C         -26.3540    0.5760   25.7770 C.2     1  UNL1        0.2002
     27 F         -25.8600   -0.6810   25.7950 F       1  UNL1       -0.1990
     28 C         -23.5924    2.9272   31.0950 C.3     1  UNL1        0.1685
     29 C         -21.7364   -0.2552   29.6106 C.3     1  UNL1        0.0617
     30 C         -24.2939   -0.0983   29.3198 C.3     1  UNL1        0.2490
     31 C         -22.8978    0.6212   29.2994 C.3     1  UNL1        0.1848
     32 O         -22.8982    1.7555   30.2641 O.3     1  UNL1       -0.3449
     33 C         -20.6090   -0.0700   28.6314 C.2     1  UNL1       -0.0239
     34 N         -25.1739    0.4010   28.3758 N.2     1  UNL1       -0.0668
     35 C         -23.6713    5.0499   32.4641 C.2     1  UNL1       -0.0023
     36 C         -24.6398    1.1000   27.2955 C.2     1  UNL1        0.3211
     37 N         -23.3328    1.4721   26.9557 N.pl3   1  UNL1       -0.1846
     38 C         -22.3764    1.0969   27.9308 C.3     1  UNL1        0.2114
     39 C         -21.0954    0.7742   27.6918 C.2     1  UNL1        0.0177
     40 C         -22.8979    2.2982   25.7666 C.3     1  UNL1        0.2537
     41 C         -23.3372    4.3307   31.3763 C.2     1  UNL1        0.0056
@<TRIPOS>BOND
     1     1     2    1
     2     2     7    1
     3     3     2    2
     4     4     3    1
     5     4     5    2
     6     5     6    1
     7     6     7    2
     8     8     1    1
     9     8     9    1
    10     8    12    1
    11     9    10    1
    12    10    11    1
    13    12    11    1
    14    13    36    1
    15    14    13    1
    16    14    15    1
    17    15    18    2
    18    16    17    1
    19    16    15    1
    20    19    14    2
    21    20    21    2
    22    20    19    1
    23    21    26    1
    24    22    21    1
    25    23    22    1
    26    24    23    1
    27    24    25    1
    28    26    27    1
    29    26    13    2
    30    28    41    1
    31    30     1    1
    32    31    30    1
    33    31    29    1
    34    31    32    1
    35    32    28    1
    36    33    29    1
    37    34    30    1
    38    36    34    2
    39    37    36    1
    40    37    38    1
    41    38    39    1
    42    38    31    1
    43    39    33    2
    44    40    37    1
    45    41    35    2
