@<TRIPOS>MOLECULE
No_2813-gen_results/8p0m/2024-11-27-11-27-31/
 23 25 0 0 0
SMALL
GASTEIGER

@<TRIPOS>ATOM
      1 C         -28.0162   -0.8135   28.8779 C.ar    1  UNL1        0.0327
      2 C         -28.4690   -0.7850   29.8287 C.ar    1  UNL1        0.1389
      3 C         -27.0871    0.2903   28.6377 C.ar    1  UNL1       -0.0164
      4 C         -26.2516    0.4114   27.4223 C.3     1  UNL1        0.0270
      5 C         -28.3913    0.1041   30.9805 C.ar    1  UNL1        0.0370
      6 C         -27.5332    1.1666   30.7866 C.ar    1  UNL1        0.0056
      7 C         -26.8281    1.2557   29.6454 C.ar    1  UNL1        0.0309
      8 C         -25.6444    1.6653   27.2216 C.3     1  UNL1        0.0128
      9 C         -25.3909    2.5603   28.2291 C.3     1  UNL1        0.0695
     10 C         -26.0983    2.4436   29.4094 C.2     1  UNL1        0.1727
     11 O         -25.8917    3.3852   30.3396 O.2     1  UNL1       -0.2913
     12 O         -29.3636   -1.9467   30.1646 O.3     1  UNL1       -0.4681
     13 C         -30.5728   -1.8359   30.2700 C.3     1  UNL1        0.2622
     14 C         -31.1296   -3.1062   30.2674 C.2     1  UNL1        0.2834
     15 O         -30.5524   -4.1129   30.3333 O.2     1  UNL1       -0.2694
     16 N         -32.4823   -3.3110   30.1839 N.am    1  UNL1       -0.2023
     17 C         -33.4066   -2.1744   30.0374 C.3     1  UNL1        0.1172
     18 C         -31.3257   -0.8986   29.5421 C.3     1  UNL1        0.1432
     19 N         -30.7999    0.4302   29.3054 N.pl3   1  UNL1       -0.2341
     20 C         -32.7404   -0.8977   29.5620 C.3     1  UNL1        0.0492
     21 C         -31.5775    1.4569   28.8957 C.2     1  UNL1        0.0756
     22 C         -30.8084    2.5981   28.4921 C.2     1  UNL1       -0.0084
     23 C         -31.3905    3.8079   28.1562 C.3     1  UNL1        0.0321
@<TRIPOS>BOND
     1     3     4    1
     2     4     8    1
     3     7    10    1
     4     9    10    1
     5    10    11    2
     6     2    12    1
     7    12    13    1
     8    13    14    1
     9    14    15    2
    10    14    16   am
    11    16    17    1
    12    13    18    1
    13    18    19    1
    14    17    20    1
    15    18    20    1
    16    19    21    1
    17    21    22    2
    18    22    23    1
    19     8     9    1
    20     1     2   ar
    21     2     5   ar
    22     5     6   ar
    23     6     7   ar
    24     7     3   ar
    25     3     1   ar
