@<TRIPOS>MOLECULE
No_2814-gen_results/8p0m/2024-11-27-11-27-31/
 28 29 0 0 0
SMALL
GASTEIGER

@<TRIPOS>ATOM
      1 C         -28.0162   -0.8135   28.8779 C.ar    1  UNL1       -0.0035
      2 C         -28.4690   -0.7850   29.8287 C.ar    1  UNL1        0.0020
      3 C         -28.1960    0.3478   28.0550 C.ar    1  UNL1       -0.0127
      4 C         -29.0191    1.3501   28.3782 C.ar    1  UNL1        0.0260
      5 C         -29.4107    0.1803   30.3782 C.ar    1  UNL1        0.0296
      6 C         -29.6059    1.2495   29.6193 C.ar    1  UNL1        0.1398
      7 C         -27.4597    0.3802   26.7091 C.3     1  UNL1        0.0589
      8 C         -26.0094    0.3317   26.7236 C.2     1  UNL1       -0.0363
      9 C         -25.3055    0.0239   27.8527 C.2     1  UNL1       -0.0039
     10 C         -23.8827    0.0654   27.8432 C.2     1  UNL1        0.0501
     11 C         -23.2461    0.9951   28.1218 C.2     1  UNL1        0.2372
     12 C         -22.1005    1.2715   28.1869 C.1     1  UNL1       -0.0228
     13 C         -21.0839    1.1040   28.0979 C.1     1  UNL1       -0.0823
     14 C         -19.6089    0.4061   28.1766 C.3     1  UNL1        0.0904
     15 C         -27.9944    1.4340   25.8653 C.2     1  UNL1       -0.0368
     16 O         -24.0339    2.2565   28.0587 O.2     1  UNL1       -0.2775
     17 C         -25.4151    0.1436   25.4478 C.3     1  UNL1        0.0270
     18 F         -30.5043    2.1817   30.0446 F       1  UNL1       -0.2042
     19 C         -27.7665    2.6169   25.9366 C.2     1  UNL1       -0.0085
     20 C         -28.8847    0.8089   24.8726 C.3     1  UNL1        0.0233
     21 C         -29.2428   -0.4555   24.8044 C.3     1  UNL1        0.0047
     22 C         -29.4179    1.7604   23.8568 C.3     1  UNL1        0.0304
     23 C         -30.3687    2.4958   24.1531 C.ar    1  UNL1       -0.0219
     24 C         -31.6360    2.3142   24.3364 C.ar    1  UNL1       -0.0043
     25 C         -32.6477    3.3078   24.5512 C.ar    1  UNL1       -0.0003
     26 C         -32.1683    4.5841   24.8427 C.ar    1  UNL1       -0.0000
     27 C         -30.8359    4.8710   24.8507 C.ar    1  UNL1       -0.0003
     28 C         -29.8979    3.9588   24.5880 C.ar    1  UNL1       -0.0043
@<TRIPOS>BOND
     1     3     7    1
     2     7     8    1
     3     8     9    2
     4     9    10    1
     5    10    11    2
     6    11    12    1
     7    12    13    3
     8    13    14    1
     9     7    15    1
    10    11    16    1
    11     8    17    1
    12     6    18    1
    13    15    19    2
    14    15    20    1
    15    20    21    1
    16    20    22    1
    17    22    23    1
    18    23    24   ar
    19    24    25   ar
    20    25    26   ar
    21    26    27   ar
    22    27    28   ar
    23    28    23   ar
    24     1     2   ar
    25     2     5   ar
    26     5     6   ar
    27     6     4   ar
    28     4     3   ar
    29     3     1   ar
