@<TRIPOS>MOLECULE
outputs/IAG933/test6/raw/output_2815_IAG933_linker_design_.xyz
 47 51 0 0 0
SMALL
GASTEIGER

@<TRIPOS>ATOM
      1 C         -24.8550   -1.0120   30.1430 C.3     1  UNL1        0.0438
      2 C         -24.9730   -2.5050   29.7880 C.2     1  UNL1       -0.0208
      3 C         -23.9060   -3.1730   29.1460 C.2     1  UNL1       -0.0042
      4 C         -23.9890   -4.5490   28.8530 C.2     1  UNL1       -0.0003
      5 C         -25.1370   -5.2800   29.2050 C.2     1  UNL1       -0.0000
      6 C         -26.2320   -4.6110   29.7840 C.2     1  UNL1       -0.0003
      7 C         -26.1550   -3.2320   30.0650 C.2     1  UNL1       -0.0042
      8 C         -25.3870   -0.6790   31.5710 C.3     1  UNL1        0.0788
      9 C         -25.1890    0.7730   32.0280 C.3     1  UNL1        0.0395
     10 C         -25.3360    0.6840   33.5440 C.3     1  UNL1        0.0220
     11 C         -24.8290   -0.7150   33.9050 C.3     1  UNL1        0.0888
     12 N         -24.7580   -1.4810   32.6460 N.3     1  UNL1       -0.2191
     13 C         -25.6880    1.6140   26.4610 C.3     1  UNL1        0.0744
     14 C         -26.2500    2.9200   26.3950 C.2     1  UNL1        0.0551
     15 C         -25.6420    4.0930   27.1230 C.2     1  UNL1        0.2624
     16 N         -25.6140    5.2520   26.4490 N.am    1  UNL1       -0.2000
     17 C         -25.0260    6.4790   26.9630 C.3     1  UNL1        0.1388
     18 O         -25.1430    3.9660   28.2430 O.2     1  UNL1       -0.2687
     19 C         -27.4380    3.0910   25.6450 C.2     1  UNL1        0.1021
     20 N         -28.0750    2.0890   25.0030 N.2     1  UNL1       -0.2119
     21 C         -27.5430    0.8490   25.0790 C.2     1  UNL1        0.2341
     22 O         -28.1930   -0.2080   24.4770 O.2     1  UNL1       -0.4585
     23 C         -29.4600    0.0050   23.8660 C.3     1  UNL1        0.2423
     24 C         -30.0650   -1.3770   23.5730 C.3     1  UNL1        0.2292
     25 O         -30.7290   -1.8780   24.7210 O.3     1  UNL1       -0.2162
     26 C         -26.3540    0.5760   25.7770 C.3     1  UNL1        0.2403
     27 F         -25.8600   -0.6810   25.7950 F       1  UNL1       -0.2269
     28 F         -21.5813    2.1281   26.0352 F       1  UNL1       -0.1836
     29 O         -24.5623    4.3115   32.3600 O.3     1  UNL1       -0.2212
     30 O         -21.0623    1.0662   27.9786 O.2     1  UNL1       -0.4431
     31 C         -23.5913    1.5068   29.0166 C.2     1  UNL1        0.0666
     32 C         -25.9377    4.1441   32.4671 C.3     1  UNL1        0.1760
     33 C         -26.1644    3.1194   31.4975 C.3     1  UNL1        0.1454
     34 C         -26.5892    5.3400   33.1829 C.3     1  UNL1        0.0668
     35 C         -28.4076    3.9442   32.7022 C.3     1  UNL1        0.2287
     36 C         -28.4638    2.8940   31.7349 C.2     1  UNL1        0.2716
     37 C         -22.6852    0.8639   29.7567 C.2     1  UNL1        0.0558
     38 C         -22.0206    1.5559   27.1963 C.3     1  UNL1        0.3485
     39 O         -29.6072    2.4181   31.8491 O.2     1  UNL1       -0.2706
     40 O         -28.7110    5.2707   32.4878 O.3     1  UNL1       -0.3443
     41 C         -21.4685    0.6056   29.2203 C.2     1  UNL1        0.1770
     42 C         -27.6080    6.0328   32.4833 C.3     1  UNL1        0.1455
     43 N         -24.6196    2.0648   29.7583 N.pl3   1  UNL1       -0.2378
     44 C         -25.0148    2.1657   31.2311 C.3     1  UNL1        0.1162
     45 C         -23.3537    1.5312   27.6043 C.2     1  UNL1        0.0451
     46 C         -24.3250    1.3963   26.6606 C.3     1  UNL1        0.0376
     47 N         -27.4178    2.6034   31.0653 N.am    1  UNL1       -0.2007
@<TRIPOS>BOND
     1     2     7    1
     2     2     1    1
     3     3     2    2
     4     4     3    1
     5     4     5    2
     6     5     6    1
     7     6     7    2
     8     8     1    1
     9     8     9    1
    10     8    12    1
    11     9    44    1
    12     9    10    1
    13    10    11    1
    14    12    11    1
    15    13    46    1
    16    14    13    1
    17    14    15    1
    18    15    18    2
    19    16    17    1
    20    16    15    1
    21    19    14    2
    22    20    21    2
    23    20    19    1
    24    21    26    1
    25    22    21    1
    26    23    22    1
    27    24    23    1
    28    24    25    1
    29    26    27    1
    30    26    13    1
    31    30    41    1
    32    31    37    1
    33    31    43    1
    34    32    29    1
    35    32    34    1
    36    33    44    1
    37    33    32    1
    38    36    39    2
    39    36    35    1
    40    38    28    1
    41    38    45    1
    42    38    30    1
    43    40    35    1
    44    41    37    2
    45    42    40    1
    46    42    34    1
    47    44    43    1
    48    45    31    2
    49    46    45    1
    50    47    33    1
    51    47    36    1
