@<TRIPOS>MOLECULE
No_2816-gen_results/8p0m/2024-11-27-11-27-31/
 14 15 0 0 0
SMALL
GASTEIGER

@<TRIPOS>ATOM
      1 C         -28.0162   -0.8135   28.8779 C.ar    1  UNL1        0.0228
      2 C         -28.4690   -0.7850   29.8287 C.ar    1  UNL1        0.0585
      3 C         -26.5042   -0.7777   28.8766 C.ar    1  UNL1        0.0585
      4 C         -25.8103   -0.8531   30.1028 C.ar    1  UNL1        0.0106
      5 C         -27.9906   -0.8916   31.2257 C.ar    1  UNL1        0.0114
      6 C         -24.3976   -0.8364   30.1775 C.ar    1  UNL1        0.0008
      7 C         -26.5754   -0.8899   31.2661 C.ar    1  UNL1        0.0017
      8 C         -23.6362   -0.9045   29.1560 C.ar    1  UNL1        0.0000
      9 C         -22.1750   -0.7187   29.2226 C.ar    1  UNL1        0.0000
     10 C         -23.9951   -1.5757   31.4340 C.ar    1  UNL1        0.0000
     11 C         -22.4954   -1.1033   31.7307 C.ar    1  UNL1        0.0000
     12 C         -21.6802   -0.9089   30.5674 C.ar    1  UNL1        0.0000
     13 CL        -30.3141   -0.7348   29.8176 Cl      1  UNL1       -0.0822
     14 CL        -25.6161   -0.7632   27.4195 Cl      1  UNL1       -0.0822
@<TRIPOS>BOND
     1     4     6    1
     2     2    13    1
     3     3    14    1
     4     6     8   ar
     5     8     9   ar
     6     9    12   ar
     7    12    11   ar
     8    11    10   ar
     9    10     6   ar
    10     1     2   ar
    11     2     5   ar
    12     5     7   ar
    13     7     4   ar
    14     4     3   ar
    15     3     1   ar
