@<TRIPOS>MOLECULE
outputs/IAG933/test6/raw/output_2818_IAG933_linker_design_.xyz
 43 46 0 0 0
SMALL
GASTEIGER

@<TRIPOS>ATOM
      1 C         -24.8550   -1.0120   30.1430 C.3     1  UNL1        0.0883
      2 C         -24.9730   -2.5050   29.7880 C.2     1  UNL1       -0.0168
      3 C         -23.9060   -3.1730   29.1460 C.2     1  UNL1       -0.0041
      4 C         -23.9890   -4.5490   28.8530 C.2     1  UNL1       -0.0003
      5 C         -25.1370   -5.2800   29.2050 C.2     1  UNL1       -0.0000
      6 C         -26.2320   -4.6110   29.7840 C.2     1  UNL1       -0.0003
      7 C         -26.1550   -3.2320   30.0650 C.2     1  UNL1       -0.0041
      8 C         -25.3870   -0.6790   31.5710 C.3     1  UNL1        0.0812
      9 C         -25.1890    0.7730   32.0280 C.3     1  UNL1        0.0193
     10 C         -25.3360    0.6840   33.5440 C.3     1  UNL1        0.0202
     11 C         -24.8290   -0.7150   33.9050 C.3     1  UNL1        0.0887
     12 N         -24.7580   -1.4810   32.6460 N.3     1  UNL1       -0.2190
     13 C         -25.6880    1.6140   26.4610 C.2     1  UNL1        0.0250
     14 C         -26.2500    2.9200   26.3950 C.2     1  UNL1        0.0733
     15 C         -25.6420    4.0930   27.1230 C.2     1  UNL1        0.2661
     16 N         -25.6140    5.2520   26.4490 N.am    1  UNL1       -0.1997
     17 C         -25.0260    6.4790   26.9630 C.3     1  UNL1        0.1388
     18 O         -25.1430    3.9660   28.2430 O.2     1  UNL1       -0.2683
     19 C         -27.4380    3.0910   25.6450 C.2     1  UNL1        0.1064
     20 N         -28.0750    2.0890   25.0030 N.2     1  UNL1       -0.2081
     21 C         -27.5430    0.8490   25.0790 C.2     1  UNL1        0.2530
     22 O         -28.1930   -0.2080   24.4770 O.2     1  UNL1       -0.4558
     23 C         -29.4600    0.0050   23.8660 C.3     1  UNL1        0.2426
     24 C         -30.0650   -1.3770   23.5730 C.3     1  UNL1        0.2292
     25 O         -30.7290   -1.8780   24.7210 O.3     1  UNL1       -0.2162
     26 C         -26.3540    0.5760   25.7770 C.2     1  UNL1        0.1899
     27 F         -25.8600   -0.6810   25.7950 F       1  UNL1       -0.1995
     28 N         -31.8435   -4.6231   29.3569 N.3     1  UNL1       -0.1996
     29 C         -28.3408   -1.2260   29.0901 C.2     1  UNL1        0.0457
     30 N         -32.6783   -4.0342   26.1313 N.1     1  UNL1       -0.1944
     31 C         -25.1144    0.0239   29.1843 C.3     1  UNL1        0.2109
     32 O         -29.5814   -2.9354   30.2914 O.3     1  UNL1       -0.3474
     33 S         -23.4121    0.2614   28.2919 S.3     1  UNL1       -0.1377
     34 C         -22.0281    1.5550   27.6310 C.3     1  UNL1        0.0528
     35 O         -26.2268    0.5293   28.7660 O.2     1  UNL1       -0.4658
     36 C         -29.6052   -1.5532   29.7536 C.3     1  UNL1        0.1716
     37 C         -30.6878   -3.3723   31.1225 C.3     1  UNL1        0.1614
     38 C         -27.5915    0.1022   29.2294 C.2     1  UNL1        0.1712
     39 C         -32.7109   -3.7364   28.6624 C.3     1  UNL1        0.1939
     40 C         -31.9150   -4.3287   30.7002 C.3     1  UNL1        0.1219
     41 C         -32.6663   -3.8922   27.2527 C.1     1  UNL1        0.0925
     42 C         -23.0876    1.9728   26.4237 C.3     1  UNL1        0.0256
     43 C         -24.2915    1.1707   26.9708 C.3     1  UNL1        0.0676
@<TRIPOS>BOND
     1     1    31    1
     2     2     7    1
     3     2     1    1
     4     3     2    2
     5     4     3    1
     6     4     5    2
     7     5     6    1
     8     6     7    2
     9     8     1    1
    10     8     9    1
    11     8    12    1
    12     9    10    1
    13    10    11    1
    14    12    11    1
    15    14    13    1
    16    14    15    1
    17    15    18    2
    18    16    17    1
    19    16    15    1
    20    19    14    2
    21    20    21    2
    22    20    19    1
    23    21    26    1
    24    22    21    1
    25    23    22    1
    26    24    23    1
    27    24    25    1
    28    26    27    1
    29    26    13    2
    30    28    40    1
    31    29    38    2
    32    29    36    1
    33    30    41    3
    34    31    35    1
    35    32    37    1
    36    33    31    1
    37    34    33    1
    38    35    38    1
    39    36    32    1
    40    39    28    1
    41    40    37    1
    42    41    39    1
    43    42    43    1
    44    42    34    1
    45    43    13    1
    46    43    33    1
