@<TRIPOS>MOLECULE
No_2821-gen_results/8p0m/2024-11-27-11-27-31/
 20 22 0 0 0
SMALL
GASTEIGER

@<TRIPOS>ATOM
      1 C         -28.0162   -0.8135   28.8779 C.ar    1  UNL1       -0.0033
      2 C         -28.4690   -0.7850   29.8287 C.3     1  UNL1        0.1177
      3 C         -28.1816    0.4277   28.1134 C.ar    1  UNL1        0.0410
      4 C         -27.4498    0.6435   26.8500 C.ar    1  UNL1        0.0031
      5 C         -26.1815    0.0357   26.7145 C.ar    1  UNL1       -0.0002
      6 C         -25.7800   -0.9326   27.6938 C.ar    1  UNL1       -0.0045
      7 C         -26.5568   -1.2134   28.7413 C.ar    1  UNL1       -0.0246
      8 N         -29.5918   -0.3147   30.2054 N.am    1  UNL1       -0.1962
      9 C         -28.1141   -2.0875   30.8010 C.3     1  UNL1        0.0265
     10 C         -26.0420   -2.2667   29.5850 C.3     1  UNL1        0.0276
     11 C         -26.8976   -2.6751   30.6317 C.3     1  UNL1        0.0066
     12 C         -30.2594    0.4067   29.6511 C.2     1  UNL1        0.3042
     13 C         -29.4909    0.9951   28.2498 C.2     1  UNL1        0.2499
     14 C         -24.8185   -2.9552   29.3607 C.3     1  UNL1        0.0709
     15 O         -31.3121    1.0955   29.8665 O.2     1  UNL1       -0.2648
     16 C         -24.6907   -4.1693   28.7242 C.3     1  UNL1        0.0062
     17 C         -23.6196   -2.1865   29.7191 C.3     1  UNL1        0.3187
     18 O         -30.0110    1.9112   27.5634 O.2     1  UNL1       -0.2817
     19 F         -22.6048   -2.4513   29.0268 F       1  UNL1       -0.1984
     20 F         -23.1966   -2.4353   30.9355 F       1  UNL1       -0.1984
@<TRIPOS>BOND
     1     1     2    1
     2     2     9    1
     3     7    10    1
     4     9    11    1
     5    10    11    1
     6     8    12   am
     7     3    13    1
     8    12    13    1
     9    10    14    1
    10    12    15    2
    11    14    16    1
    12    14    17    1
    13    13    18    2
    14    17    19    1
    15    17    20    1
    16     2     8    1
    17     1     7   ar
    18     7     6   ar
    19     6     5   ar
    20     5     4   ar
    21     4     3   ar
    22     3     1   ar
