@<TRIPOS>MOLECULE
outputs/IAG933/test6/raw/output_2824_IAG933_linker_design_.xyz
 42 46 0 0 0
SMALL
GASTEIGER

@<TRIPOS>ATOM
      1 C         -24.8550   -1.0120   30.1430 C.3     1  UNL1        0.0511
      2 C         -24.9730   -2.5050   29.7880 C.2     1  UNL1       -0.0205
      3 C         -23.9060   -3.1730   29.1460 C.2     1  UNL1       -0.0042
      4 C         -23.9890   -4.5490   28.8530 C.2     1  UNL1       -0.0003
      5 C         -25.1370   -5.2800   29.2050 C.2     1  UNL1       -0.0000
      6 C         -26.2320   -4.6110   29.7840 C.2     1  UNL1       -0.0003
      7 C         -26.1550   -3.2320   30.0650 C.2     1  UNL1       -0.0042
      8 C         -25.3870   -0.6790   31.5710 C.3     1  UNL1        0.0774
      9 C         -25.1890    0.7730   32.0280 C.3     1  UNL1        0.0192
     10 C         -25.3360    0.6840   33.5440 C.3     1  UNL1        0.0202
     11 C         -24.8290   -0.7150   33.9050 C.3     1  UNL1        0.0887
     12 N         -24.7580   -1.4810   32.6460 N.3     1  UNL1       -0.2191
     13 C         -25.6880    1.6140   26.4610 C.2     1  UNL1        0.0880
     14 C         -26.2500    2.9200   26.3950 C.2     1  UNL1        0.0899
     15 C         -25.6420    4.0930   27.1230 C.2     1  UNL1        0.2676
     16 N         -25.6140    5.2520   26.4490 N.am    1  UNL1       -0.1997
     17 C         -25.0260    6.4790   26.9630 C.3     1  UNL1        0.1388
     18 O         -25.1430    3.9660   28.2430 O.2     1  UNL1       -0.2683
     19 C         -27.4380    3.0910   25.6450 C.2     1  UNL1        0.1080
     20 N         -28.0750    2.0890   25.0030 N.2     1  UNL1       -0.2080
     21 C         -27.5430    0.8490   25.0790 C.2     1  UNL1        0.2546
     22 O         -28.1930   -0.2080   24.4770 O.2     1  UNL1       -0.4558
     23 C         -29.4600    0.0050   23.8660 C.3     1  UNL1        0.2426
     24 C         -30.0650   -1.3770   23.5730 C.3     1  UNL1        0.2292
     25 O         -30.7290   -1.8780   24.7210 O.3     1  UNL1       -0.2162
     26 C         -26.3540    0.5760   25.7770 C.2     1  UNL1        0.2063
     27 F         -25.8600   -0.6810   25.7950 F       1  UNL1       -0.1979
     28 C         -28.5462    5.0760   30.6365 C.3     1  UNL1        0.0018
     29 C         -23.4241    1.3295   26.4952 C.3     1  UNL1        0.1225
     30 C         -22.5783    1.2476   27.3698 C.3     1  UNL1        0.1369
     31 N         -26.8730    2.4920   29.7873 N.am    1  UNL1       -0.2794
     32 C         -27.8795    3.8032   31.8612 C.3     1  UNL1        0.0232
     33 C         -26.5151    3.5543   30.9482 C.3     1  UNL1        0.0935
     34 C         -26.8946    0.8428   29.3583 C.2     1  UNL1        0.2297
     35 C         -24.4668    0.9393   28.4461 C.3     1  UNL1        0.2011
     36 C         -21.0766    1.5657   27.2316 C.3     1  UNL1        0.0339
     37 C         -28.3442    2.8961   29.4510 C.3     1  UNL1        0.0934
     38 O         -23.0944    0.8701   28.6663 O.3     1  UNL1       -0.3379
     39 C         -25.5147   -0.0145   28.9867 C.3     1  UNL1        0.1286
     40 O         -27.8343    0.2761   29.2472 O.2     1  UNL1       -0.2747
     41 N         -24.6459    1.2936   27.2170 N.pl3   1  UNL1       -0.2812
     42 C         -28.7446    3.9064   30.5981 C.3     1  UNL1        0.0216
@<TRIPOS>BOND
     1     1    39    1
     2     2     7    1
     3     2     1    1
     4     3     2    2
     5     4     3    1
     6     4     5    2
     7     5     6    1
     8     6     7    2
     9     8     1    1
    10     8     9    1
    11     8    12    1
    12     9    10    1
    13    10    11    1
    14    12    11    1
    15    13    41    1
    16    14    13    1
    17    14    15    1
    18    15    18    2
    19    16    17    1
    20    16    15    1
    21    19    14    2
    22    20    21    2
    23    20    19    1
    24    21    26    1
    25    22    21    1
    26    23    22    1
    27    24    23    1
    28    24    25    1
    29    26    27    1
    30    26    13    2
    31    29    41    1
    32    29    30    1
    33    30    36    1
    34    30    38    1
    35    31    33    1
    36    33    32    1
    37    34    31   am
    38    35    38    1
    39    35    39    1
    40    37    31    1
    41    37    42    1
    42    39    34    1
    43    40    34    2
    44    41    35    1
    45    42    28    1
    46    42    32    1
