@<TRIPOS>MOLECULE
outputs/IAG933/test6/raw/output_2827_IAG933_linker_design_.xyz
 43 46 0 0 0
SMALL
GASTEIGER

@<TRIPOS>ATOM
      1 C         -24.8550   -1.0120   30.1430 C.3     1  UNL1        0.0626
      2 C         -24.9730   -2.5050   29.7880 C.2     1  UNL1       -0.0191
      3 C         -23.9060   -3.1730   29.1460 C.2     1  UNL1       -0.0042
      4 C         -23.9890   -4.5490   28.8530 C.2     1  UNL1       -0.0003
      5 C         -25.1370   -5.2800   29.2050 C.2     1  UNL1       -0.0000
      6 C         -26.2320   -4.6110   29.7840 C.2     1  UNL1       -0.0003
      7 C         -26.1550   -3.2320   30.0650 C.2     1  UNL1       -0.0042
      8 C         -25.3870   -0.6790   31.5710 C.3     1  UNL1        0.0788
      9 C         -25.1890    0.7730   32.0280 C.3     1  UNL1        0.0193
     10 C         -25.3360    0.6840   33.5440 C.3     1  UNL1        0.0202
     11 C         -24.8290   -0.7150   33.9050 C.3     1  UNL1        0.0887
     12 N         -24.7580   -1.4810   32.6460 N.3     1  UNL1       -0.2191
     13 C         -25.6880    1.6140   26.4610 C.3     1  UNL1        0.2355
     14 C         -26.2500    2.9200   26.3950 C.2     1  UNL1        0.0946
     15 C         -25.6420    4.0930   27.1230 C.2     1  UNL1        0.2658
     16 N         -25.6140    5.2520   26.4490 N.am    1  UNL1       -0.1999
     17 C         -25.0260    6.4790   26.9630 C.3     1  UNL1        0.1388
     18 O         -25.1430    3.9660   28.2430 O.2     1  UNL1       -0.2685
     19 C         -27.4380    3.0910   25.6450 C.2     1  UNL1        0.1057
     20 N         -28.0750    2.0890   25.0030 N.2     1  UNL1       -0.2116
     21 C         -27.5430    0.8490   25.0790 C.2     1  UNL1        0.2379
     22 O         -28.1930   -0.2080   24.4770 O.2     1  UNL1       -0.4584
     23 C         -29.4600    0.0050   23.8660 C.3     1  UNL1        0.2423
     24 C         -30.0650   -1.3770   23.5730 C.3     1  UNL1        0.2292
     25 O         -30.7290   -1.8780   24.7210 O.3     1  UNL1       -0.2162
     26 C         -26.3540    0.5760   25.7770 C.3     1  UNL1        0.2797
     27 F         -25.8600   -0.6810   25.7950 F       1  UNL1       -0.2229
     28 O         -24.3643    1.6747   26.5867 O.2     1  UNL1       -0.4714
     29 C         -28.8450    0.9654   29.1834 C.3     1  UNL1        0.0868
     30 C         -30.8029    2.1984   29.1826 C.3     1  UNL1        0.0005
     31 C         -21.1135    1.4583   27.7687 C.2     1  UNL1        0.0031
     32 C         -21.2770    0.5193   28.7810 C.2     1  UNL1       -0.0001
     33 C         -23.6665    0.4294   28.4732 C.2     1  UNL1        0.0318
     34 C         -27.4282    0.3293   28.9464 C.2     1  UNL1        0.2416
     35 O         -27.6355   -0.8410   28.6705 O.2     1  UNL1       -0.2733
     36 C         -22.5190    0.0345   29.1348 C.2     1  UNL1        0.0004
     37 N         -26.0790    0.8529   28.8821 N.am    1  UNL1       -0.2022
     38 C         -24.9956   -0.1466   28.8577 C.3     1  UNL1        0.1257
     39 C         -29.0993    2.3815   29.1486 C.3     1  UNL1        0.0087
     40 C         -27.8689    3.0493   29.8843 C.3     1  UNL1        0.0005
     41 C         -23.4643    1.3067   27.4102 C.2     1  UNL1        0.1366
     42 C         -22.2398    1.8498   27.0632 C.2     1  UNL1        0.0366
     43 C         -29.1952    3.5920   28.3337 C.3     1  UNL1        0.0005
@<TRIPOS>BOND
     1     1    38    1
     2     2     7    1
     3     2     1    1
     4     3     2    2
     5     4     3    1
     6     4     5    2
     7     5     6    1
     8     6     7    2
     9     8     1    1
    10     8     9    1
    11     8    12    1
    12     9    10    1
    13    10    11    1
    14    12    11    1
    15    13    28    1
    16    14    13    1
    17    14    15    1
    18    15    18    2
    19    16    17    1
    20    16    15    1
    21    19    14    2
    22    20    21    2
    23    20    19    1
    24    21    26    1
    25    22    21    1
    26    23    22    1
    27    24    23    1
    28    24    25    1
    29    26    27    1
    30    26    13    1
    31    28    41    1
    32    31    32    1
    33    32    36    2
    34    33    38    1
    35    33    36    1
    36    34    29    1
    37    35    34    2
    38    37    34    1
    39    38    37    1
    40    39    30    1
    41    39    29    1
    42    39    40    1
    43    41    33    2
    44    42    41    1
    45    42    31    2
    46    43    39    1
