@<TRIPOS>MOLECULE
outputs/IAG933/test6/raw/output_2828_IAG933_linker_design_.xyz
 46 50 0 0 0
SMALL
GASTEIGER

@<TRIPOS>ATOM
      1 C         -24.8550   -1.0120   30.1430 C.3     1  UNL1        0.0390
      2 C         -24.9730   -2.5050   29.7880 C.2     1  UNL1       -0.0211
      3 C         -23.9060   -3.1730   29.1460 C.2     1  UNL1       -0.0042
      4 C         -23.9890   -4.5490   28.8530 C.2     1  UNL1       -0.0003
      5 C         -25.1370   -5.2800   29.2050 C.2     1  UNL1       -0.0000
      6 C         -26.2320   -4.6110   29.7840 C.2     1  UNL1       -0.0003
      7 C         -26.1550   -3.2320   30.0650 C.2     1  UNL1       -0.0042
      8 C         -25.3870   -0.6790   31.5710 C.3     1  UNL1        0.0768
      9 C         -25.1890    0.7730   32.0280 C.3     1  UNL1        0.0192
     10 C         -25.3360    0.6840   33.5440 C.3     1  UNL1        0.0202
     11 C         -24.8290   -0.7150   33.9050 C.3     1  UNL1        0.0887
     12 N         -24.7580   -1.4810   32.6460 N.3     1  UNL1       -0.2191
     13 C         -25.6880    1.6140   26.4610 C.2     1  UNL1        0.0353
     14 C         -26.2500    2.9200   26.3950 C.2     1  UNL1        0.0763
     15 C         -25.6420    4.0930   27.1230 C.2     1  UNL1        0.2664
     16 N         -25.6140    5.2520   26.4490 N.am    1  UNL1       -0.1997
     17 C         -25.0260    6.4790   26.9630 C.3     1  UNL1        0.1388
     18 O         -25.1430    3.9660   28.2430 O.2     1  UNL1       -0.2683
     19 C         -27.4380    3.0910   25.6450 C.2     1  UNL1        0.1067
     20 N         -28.0750    2.0890   25.0030 N.2     1  UNL1       -0.2081
     21 C         -27.5430    0.8490   25.0790 C.2     1  UNL1        0.2533
     22 O         -28.1930   -0.2080   24.4770 O.2     1  UNL1       -0.4558
     23 C         -29.4600    0.0050   23.8660 C.3     1  UNL1        0.2426
     24 C         -30.0650   -1.3770   23.5730 C.3     1  UNL1        0.2292
     25 O         -30.7290   -1.8780   24.7210 O.3     1  UNL1       -0.2162
     26 C         -26.3540    0.5760   25.7770 C.2     1  UNL1        0.1928
     27 F         -25.8600   -0.6810   25.7950 F       1  UNL1       -0.1992
     28 C         -22.7771    0.6700   28.6789 C.2     1  UNL1        0.0713
     29 O         -30.7670    1.7455   27.2409 O.3     1  UNL1       -0.3335
     30 N         -29.6567    0.4651   29.0706 N.am    1  UNL1       -0.2028
     31 C         -30.7267    2.7155   28.3256 C.3     1  UNL1        0.1538
     32 C         -25.1365   -0.0090   29.1880 C.3     1  UNL1        0.0154
     33 O         -28.7135   -1.5418   29.3946 O.2     1  UNL1       -0.2744
     34 C         -29.6522    2.8619   28.8903 C.3     1  UNL1        0.1178
     35 C         -23.0222    1.8246   26.8089 C.2     1  UNL1        0.0551
     36 C         -30.5065    0.4298   27.8248 C.3     1  UNL1        0.2487
     37 C         -22.1243    1.5156   27.8205 C.2     1  UNL1        0.0251
     38 CL        -22.6872    2.5554   25.2463 Cl      1  UNL1       -0.0825
     39 C         -26.3732    0.8704   29.1671 C.3     1  UNL1        0.0106
     40 C         -29.4122    1.6483   29.8285 C.2     1  UNL1        0.2357
     41 O         -29.4294    2.3348   31.3211 O.2     1  UNL1       -0.2743
     42 N         -22.1724   -0.0032   29.7712 N.pl3   1  UNL1       -0.1324
     43 C         -27.4410    0.1908   28.2796 C.3     1  UNL1        0.0858
     44 C         -24.3233    1.3664   27.1691 C.2     1  UNL1       -0.0039
     45 C         -28.5663   -0.3948   29.0515 C.2     1  UNL1        0.2331
     46 C         -24.1332    0.5834   28.3485 C.3     1  UNL1        0.0628
@<TRIPOS>BOND
     1     1    32    1
     2     2     7    1
     3     2     1    1
     4     3     2    2
     5     4     3    1
     6     4     5    2
     7     5     6    1
     8     6     7    2
     9     8     1    1
    10     8     9    1
    11     8    12    1
    12     9    10    1
    13    10    11    1
    14    12    11    1
    15    13    44    1
    16    14    13    1
    17    14    15    1
    18    15    18    2
    19    16    17    1
    20    16    15    1
    21    19    14    2
    22    20    21    2
    23    20    19    1
    24    21    26    1
    25    22    21    1
    26    23    22    1
    27    24    23    1
    28    24    25    1
    29    26    27    1
    30    26    13    2
    31    28    42    1
    32    29    36    1
    33    29    31    1
    34    30    40   am
    35    31    34    1
    36    32    39    1
    37    34    40    1
    38    35    44    2
    39    35    37    1
    40    36    30    1
    41    37    28    2
    42    38    35    1
    43    40    41    2
    44    43    45    1
    45    43    39    1
    46    44    46    1
    47    45    30   am
    48    45    33    2
    49    46    28    1
    50    46    32    1
