@<TRIPOS>MOLECULE
No_2830-gen_results/8p0m/2024-11-27-11-27-31/
 24 27 0 0 0
SMALL
GASTEIGER

@<TRIPOS>ATOM
      1 C         -28.0162   -0.8135   28.8779 C.ar    1  UNL1        0.0520
      2 C         -27.0636   -0.1189   28.6079 C.ar    1  UNL1        0.0147
      3 C         -25.7923   -0.4302   29.0761 C.ar    1  UNL1        0.0013
      4 C         -25.5756   -1.5654   29.9363 C.ar    1  UNL1       -0.0001
      5 C         -26.7354   -2.3004   30.2173 C.ar    1  UNL1        0.0013
      6 C         -27.9184   -1.9537   29.7629 C.ar    1  UNL1        0.0429
      7 C         -29.1546   -2.6058   30.1655 C.3     1  UNL1        0.2618
      8 N         -29.5809   -2.4264   31.4091 N.pl3   1  UNL1       -0.2756
      9 C         -29.4822   -1.3722   31.9843 C.ar    1  UNL1        0.0638
     10 C         -29.6081   -0.8216   32.9056 C.ar    1  UNL1        0.0159
     11 C         -29.4002    0.5614   33.3488 C.ar    1  UNL1        0.0014
     12 C         -28.8108    1.3776   32.3712 C.ar    1  UNL1        0.0014
     13 C         -28.4937    0.8338   31.2028 C.ar    1  UNL1        0.0161
     14 C         -28.7251   -0.4702   30.9722 C.ar    1  UNL1        0.0654
     15 N         -28.7223   -0.7442   29.6953 N.pl3   1  UNL1       -0.2817
     16 C         -30.1178   -0.8674   29.1514 C.3     1  UNL1        0.1221
     17 F         -28.6958   -4.0437   30.1879 F       1  UNL1       -0.2097
     18 C         -30.2372   -3.5114   32.2523 C.3     1  UNL1        0.1150
     19 C         -30.4568    0.3415   28.4577 C.ar    1  UNL1       -0.0021
     20 C         -31.5652    0.7064   28.1781 C.ar    1  UNL1       -0.0026
     21 C         -31.8719    1.7027   27.2424 C.ar    1  UNL1       -0.0003
     22 C         -30.8065    2.4570   26.6531 C.ar    1  UNL1       -0.0000
     23 C         -29.5404    2.0635   26.9488 C.ar    1  UNL1       -0.0003
     24 C         -29.3157    0.9961   27.8114 C.ar    1  UNL1       -0.0026
@<TRIPOS>BOND
     1     6     7    1
     2     7     8    1
     3     8     9    1
     4     1    15    1
     5    14    15    1
     6    15    16    1
     7     7    17    1
     8     8    18    1
     9    16    19    1
    10     1     2   ar
    11     2     3   ar
    12     3     4   ar
    13     4     5   ar
    14     5     6   ar
    15     6     1   ar
    16     9    10   ar
    17    10    11   ar
    18    11    12   ar
    19    12    13   ar
    20    13    14   ar
    21    14     9   ar
    22    19    20   ar
    23    20    21   ar
    24    21    22   ar
    25    22    23   ar
    26    23    24   ar
    27    24    19   ar
