@<TRIPOS>MOLECULE
outputs/IAG933/test6/raw/output_2831_IAG933_linker_design_.xyz
 39 43 0 0 0
SMALL
GASTEIGER

@<TRIPOS>ATOM
      1 C         -24.8550   -1.0120   30.1430 C.3     1  UNL1        0.1355
      2 C         -24.9730   -2.5050   29.7880 C.2     1  UNL1       -0.0032
      3 C         -23.9060   -3.1730   29.1460 C.2     1  UNL1       -0.0028
      4 C         -23.9890   -4.5490   28.8530 C.2     1  UNL1       -0.0003
      5 C         -25.1370   -5.2800   29.2050 C.2     1  UNL1       -0.0000
      6 C         -26.2320   -4.6110   29.7840 C.2     1  UNL1       -0.0003
      7 C         -26.1550   -3.2320   30.0650 C.2     1  UNL1       -0.0028
      8 C         -25.3870   -0.6790   31.5710 C.3     1  UNL1        0.0949
      9 C         -25.1890    0.7730   32.0280 C.3     1  UNL1        0.0207
     10 C         -25.3360    0.6840   33.5440 C.3     1  UNL1        0.0203
     11 C         -24.8290   -0.7150   33.9050 C.3     1  UNL1        0.0888
     12 N         -24.7580   -1.4810   32.6460 N.3     1  UNL1       -0.2176
     13 C         -25.6880    1.6140   26.4610 C.3     1  UNL1        0.1446
     14 C         -26.2500    2.9200   26.3950 C.2     1  UNL1        0.0731
     15 C         -25.6420    4.0930   27.1230 C.2     1  UNL1        0.2640
     16 N         -25.6140    5.2520   26.4490 N.am    1  UNL1       -0.1999
     17 C         -25.0260    6.4790   26.9630 C.3     1  UNL1        0.1388
     18 O         -25.1430    3.9660   28.2430 O.2     1  UNL1       -0.2686
     19 C         -27.4380    3.0910   25.6450 C.2     1  UNL1        0.1038
     20 N         -28.0750    2.0890   25.0030 N.2     1  UNL1       -0.2118
     21 C         -27.5430    0.8490   25.0790 C.2     1  UNL1        0.2358
     22 O         -28.1930   -0.2080   24.4770 O.2     1  UNL1       -0.4585
     23 C         -29.4600    0.0050   23.8660 C.3     1  UNL1        0.2423
     24 C         -30.0650   -1.3770   23.5730 C.3     1  UNL1        0.2292
     25 O         -30.7290   -1.8780   24.7210 O.3     1  UNL1       -0.2162
     26 C         -26.3540    0.5760   25.7770 C.3     1  UNL1        0.2581
     27 F         -25.8600   -0.6810   25.7950 F       1  UNL1       -0.2251
     28 N         -24.8954    1.2363   27.4248 N.pl3   1  UNL1       -0.2813
     29 F         -23.7184    2.2054   24.9199 F       1  UNL1       -0.1987
     30 N         -20.3122    0.2466   28.6992 N.pl3   1  UNL1        0.2200
     31 C         -21.2470    0.9333   27.9590 C.2     1  UNL1        0.4531
     32 C         -25.3432    0.6779   28.7361 C.3     1  UNL1        0.2077
     33 C         -23.5467    1.1968   27.2076 C.2     1  UNL1        0.1256
     34 N         -20.8447    1.7650   26.9989 N.2     1  UNL1       -0.0234
     35 C         -23.0304    1.8930   25.9866 C.2     1  UNL1        0.2032
     36 C         -22.6822    0.6345   28.1714 C.2     1  UNL1        0.2706
     37 C         -21.6449    2.2166   25.9831 C.2     1  UNL1        0.2668
     38 N         -24.4836   -0.1178   29.3515 N.3     1  UNL1       -0.0960
     39 O         -23.2300   -0.0478   29.1750 O.2     1  UNL1       -0.3902
@<TRIPOS>BOND
     1     1     2    1
     2     2     7    1
     3     3     2    2
     4     4     3    1
     5     4     5    2
     6     5     6    1
     7     6     7    2
     8     8     1    1
     9     8     9    1
    10     8    12    1
    11     9    10    1
    12    10    11    1
    13    12    11    1
    14    13    28    1
    15    14    13    1
    16    14    15    1
    17    15    18    2
    18    16    17    1
    19    16    15    1
    20    19    14    2
    21    20    21    2
    22    20    19    1
    23    21    26    1
    24    22    21    1
    25    23    22    1
    26    24    23    1
    27    24    25    1
    28    26    27    1
    29    26    13    1
    30    28    32    1
    31    29    35    1
    32    31    36    1
    33    31    30    1
    34    32    38    1
    35    33    28    1
    36    33    36    2
    37    34    31    2
    38    35    33    1
    39    36    39    1
    40    37    35    2
    41    37    34    1
    42    38     1    1
    43    39    38    1
