@<TRIPOS>MOLECULE
No_2832-gen_results/8p0m/2024-11-27-11-27-31/
 17 18 0 0 0
SMALL
GASTEIGER

@<TRIPOS>ATOM
      1 C         -28.0162   -0.8135   28.8779 C.ar    1  UNL1        0.0114
      2 C         -28.4690   -0.7850   29.8287 C.ar    1  UNL1        0.0577
      3 C         -28.1816    0.4277   28.1134 C.ar    1  UNL1        0.0005
      4 C         -28.9841    1.4155   28.5154 C.ar    1  UNL1        0.0000
      5 C         -29.3802    0.1384   30.4612 C.ar    1  UNL1        0.0114
      6 C         -29.5415    1.2736   29.7242 C.ar    1  UNL1        0.0009
      7 C         -27.4586    0.4934   26.7701 C.2     1  UNL1       -0.0042
      8 C         -26.4813    1.5210   26.6301 C.2     1  UNL1       -0.0218
      9 C         -25.2906    1.5248   26.9342 C.ar    1  UNL1       -0.0038
     10 C         -24.3958    2.6501   26.8212 C.ar    1  UNL1        0.0020
     11 C         -23.0456    2.6836   27.1402 C.ar    1  UNL1        0.0296
     12 C         -22.4625    1.4913   27.6631 C.ar    1  UNL1        0.1401
     13 C         -23.2792    0.4156   27.9513 C.ar    1  UNL1        0.0296
     14 C         -24.6054    0.3827   27.5845 C.ar    1  UNL1        0.0020
     15 F         -21.2051    1.5273   27.9553 F       1  UNL1       -0.2042
     16 C         -27.1167    2.7343   25.9791 C.3     1  UNL1        0.0310
     17 CL        -28.2788   -2.3040   30.8818 Cl      1  UNL1       -0.0822
@<TRIPOS>BOND
     1     3     7    1
     2     7     8    2
     3     8     9    1
     4    12    15    1
     5     8    16    1
     6     2    17    1
     7     9    10   ar
     8    10    11   ar
     9    11    12   ar
    10    12    13   ar
    11    13    14   ar
    12    14     9   ar
    13     1     2   ar
    14     2     5   ar
    15     5     6   ar
    16     6     4   ar
    17     4     3   ar
    18     3     1   ar
