@<TRIPOS>MOLECULE
No_2835-gen_results/8p0m/2024-11-27-11-27-31/
 32 34 0 0 0
SMALL
GASTEIGER

@<TRIPOS>ATOM
      1 C         -28.0162   -0.8135   28.8779 C.ar    1  UNL1        0.0063
      2 C         -27.0636   -0.1189   28.6079 C.ar    1  UNL1        0.0004
      3 C         -25.7923   -0.4302   29.0761 C.ar    1  UNL1        0.0105
      4 C         -25.5756   -1.5654   29.9363 C.ar    1  UNL1        0.0578
      5 C         -26.7354   -2.3004   30.2173 C.ar    1  UNL1        0.0178
      6 C         -27.9184   -1.9537   29.7629 C.ar    1  UNL1        0.0765
      7 C         -29.0732   -2.7835   30.1783 C.2     1  UNL1        0.3416
      8 O         -29.0022   -3.9850   30.2347 O.2     1  UNL1       -0.2449
      9 O         -30.1809   -2.1900   30.4596 O.3     1  UNL1       -0.4374
     10 C         -27.0949    1.1102   27.7546 C.ar    1  UNL1        0.0210
     11 C         -26.1987    1.4406   26.9167 C.ar    1  UNL1        0.0038
     12 C         -24.8225    0.9093   27.1901 C.ar    1  UNL1        0.0549
     13 C         -24.6158   -0.0234   28.1698 C.ar    1  UNL1        0.0054
     14 C         -23.6425    1.5530   26.5781 C.2     1  UNL1        0.2648
     15 N         -22.5238    1.6692   27.2704 N.am    1  UNL1       -0.1998
     16 O         -23.6960    1.9602   25.3991 O.2     1  UNL1       -0.2684
     17 C         -22.3925    1.3950   28.6560 C.3     1  UNL1        0.1388
     18 C         -28.4754    1.7456   27.6385 C.3     1  UNL1        0.2390
     19 BR        -28.9282    2.1924   26.8404 Br      1  UNL1       -0.0380
     20 F         -28.9978    1.5974   28.9481 F       1  UNL1       -0.2198
     21 CL        -23.9913   -2.0204   30.3481 Cl      1  UNL1       -0.0822
     22 C         -31.3767   -2.8403   30.4529 C.3     1  UNL1        0.2714
     23 C         -32.0863   -2.8600   29.2374 C.2     1  UNL1        0.4042
     24 O         -31.9371   -3.8043   28.5435 O.co2   1  UNL1       -0.2416
     25 O         -32.6722   -1.8056   28.7384 O.co2   1  UNL1       -0.2416
     26 C         -32.2492   -2.0258   31.5143 C.3     1  UNL1        0.0602
     27 C         -32.4672   -0.7137   31.4565 C.3     1  UNL1        0.0305
     28 C         -33.7523   -0.2867   31.3546 C.2     1  UNL1       -0.0260
     29 C         -34.6803   -0.5973   32.1175 C.2     1  UNL1       -0.0049
     30 C         -34.3275   -1.0325   33.3880 C.2     1  UNL1       -0.0049
     31 C         -33.5313   -2.2508   33.5757 C.2     1  UNL1       -0.0260
     32 C         -32.6414   -2.8135   32.6667 C.3     1  UNL1        0.0305
@<TRIPOS>BOND
     1     6     7    1
     2     7     8    2
     3     7     9    1
     4    12    14    1
     5    14    15   am
     6    14    16    2
     7    15    17    1
     8    10    18    1
     9    18    19    1
    10    18    20    1
    11     4    21    1
    12     9    22    1
    13    22    23    1
    14    23    24   ar
    15    23    25   ar
    16    22    26    1
    17    26    27    1
    18    27    28    1
    19    28    29    2
    20    29    30    1
    21    30    31    2
    22    26    32    1
    23    31    32    1
    24     1     2   ar
    25     3     4   ar
    26     4     5   ar
    27     5     6   ar
    28     6     1   ar
    29     2     3   ar
    30     3    13   ar
    31    13    12   ar
    32    12    11   ar
    33    11    10   ar
    34    10     2   ar
