@<TRIPOS>MOLECULE
outputs/IAG933/test6/raw/output_2838_IAG933_linker_design_.xyz
 37 40 0 0 0
SMALL
GASTEIGER

@<TRIPOS>ATOM
      1 C         -24.8550   -1.0120   30.1430 C.3     1  UNL1        0.2426
      2 C         -24.9730   -2.5050   29.7880 C.2     1  UNL1        0.0253
      3 C         -23.9060   -3.1730   29.1460 C.2     1  UNL1       -0.0003
      4 C         -23.9890   -4.5490   28.8530 C.2     1  UNL1       -0.0002
      5 C         -25.1370   -5.2800   29.2050 C.2     1  UNL1       -0.0000
      6 C         -26.2320   -4.6110   29.7840 C.2     1  UNL1       -0.0002
      7 C         -26.1550   -3.2320   30.0650 C.2     1  UNL1       -0.0003
      8 C         -25.3870   -0.6790   31.5710 C.3     1  UNL1        0.1239
      9 C         -25.1890    0.7730   32.0280 C.3     1  UNL1        0.0235
     10 C         -25.3360    0.6840   33.5440 C.3     1  UNL1        0.0204
     11 C         -24.8290   -0.7150   33.9050 C.3     1  UNL1        0.0889
     12 N         -24.7580   -1.4810   32.6460 N.3     1  UNL1       -0.2149
     13 C         -25.6880    1.6140   26.4610 C.2     1  UNL1        0.0360
     14 C         -26.2500    2.9200   26.3950 C.2     1  UNL1        0.0736
     15 C         -25.6420    4.0930   27.1230 C.2     1  UNL1        0.2661
     16 N         -25.6140    5.2520   26.4490 N.am    1  UNL1       -0.1997
     17 C         -25.0260    6.4790   26.9630 C.3     1  UNL1        0.1388
     18 O         -25.1430    3.9660   28.2430 O.2     1  UNL1       -0.2683
     19 C         -27.4380    3.0910   25.6450 C.2     1  UNL1        0.1064
     20 N         -28.0750    2.0890   25.0030 N.2     1  UNL1       -0.2081
     21 C         -27.5430    0.8490   25.0790 C.2     1  UNL1        0.2530
     22 O         -28.1930   -0.2080   24.4770 O.2     1  UNL1       -0.4558
     23 C         -29.4600    0.0050   23.8660 C.3     1  UNL1        0.2426
     24 C         -30.0650   -1.3770   23.5730 C.3     1  UNL1        0.2292
     25 O         -30.7290   -1.8780   24.7210 O.3     1  UNL1       -0.2162
     26 C         -26.3540    0.5760   25.7770 C.2     1  UNL1        0.1901
     27 F         -25.8600   -0.6810   25.7950 F       1  UNL1       -0.1995
     28 C         -23.2540    1.8290   26.6682 C.2     1  UNL1        0.2611
     29 C         -24.4389    1.3033   27.2119 C.3     1  UNL1        0.2115
     30 C         -21.7712    0.3363   28.5445 C.3     1  UNL1        0.2531
     31 O         -23.3780    2.3677   25.3844 O.2     1  UNL1       -0.2720
     32 N         -21.9884    2.1448   27.0204 N.am    1  UNL1       -0.1774
     33 C         -24.2161    0.4278   28.3405 C.2     1  UNL1        0.3448
     34 C         -21.2546    1.4101   27.8195 C.2     1  UNL1        0.1148
     35 N         -25.2850   -0.1238   29.0444 N.pl3   1  UNL1       -0.0332
     36 N         -23.0300    0.0396   28.7847 N.2     1  UNL1       -0.0639
     37 C         -20.8138   -0.5600   29.0749 C.3     1  UNL1        0.0643
@<TRIPOS>BOND
     1     1    35    1
     2     2     7    1
     3     2     1    1
     4     3     2    2
     5     4     3    1
     6     4     5    2
     7     5     6    1
     8     6     7    2
     9     8     1    1
    10     8     9    1
    11     8    12    1
    12     9    10    1
    13    10    11    1
    14    12    11    1
    15    14    13    1
    16    14    15    1
    17    15    18    2
    18    16    17    1
    19    16    15    1
    20    19    14    2
    21    20    21    2
    22    20    19    1
    23    21    26    1
    24    22    21    1
    25    23    22    1
    26    24    23    1
    27    24    25    1
    28    26    27    1
    29    26    13    2
    30    28    32    1
    31    28    29    1
    32    29    13    1
    33    29    33    1
    34    30    36    1
    35    30    37    1
    36    31    28    2
    37    32    34    2
    38    33    36    2
    39    33    35    1
    40    34    30    1
