@<TRIPOS>MOLECULE
outputs/IAG933/test6/raw/output_2839_IAG933_linker_design_.xyz
 47 51 0 0 0
SMALL
GASTEIGER

@<TRIPOS>ATOM
      1 C         -24.8550   -1.0120   30.1430 C.3     1  UNL1        0.0437
      2 C         -24.9730   -2.5050   29.7880 C.2     1  UNL1       -0.0208
      3 C         -23.9060   -3.1730   29.1460 C.2     1  UNL1       -0.0042
      4 C         -23.9890   -4.5490   28.8530 C.2     1  UNL1       -0.0003
      5 C         -25.1370   -5.2800   29.2050 C.2     1  UNL1       -0.0000
      6 C         -26.2320   -4.6110   29.7840 C.2     1  UNL1       -0.0003
      7 C         -26.1550   -3.2320   30.0650 C.2     1  UNL1       -0.0042
      8 C         -25.3870   -0.6790   31.5710 C.3     1  UNL1        0.0776
      9 C         -25.1890    0.7730   32.0280 C.3     1  UNL1        0.0268
     10 C         -25.3360    0.6840   33.5440 C.3     1  UNL1        0.0207
     11 C         -24.8290   -0.7150   33.9050 C.3     1  UNL1        0.0887
     12 N         -24.7580   -1.4810   32.6460 N.3     1  UNL1       -0.2191
     13 C         -25.6880    1.6140   26.4610 C.3     1  UNL1        0.0954
     14 C         -26.2500    2.9200   26.3950 C.2     1  UNL1        0.0590
     15 C         -25.6420    4.0930   27.1230 C.2     1  UNL1        0.2628
     16 N         -25.6140    5.2520   26.4490 N.am    1  UNL1       -0.2000
     17 C         -25.0260    6.4790   26.9630 C.3     1  UNL1        0.1388
     18 O         -25.1430    3.9660   28.2430 O.2     1  UNL1       -0.2686
     19 C         -27.4380    3.0910   25.6450 C.2     1  UNL1        0.1025
     20 N         -28.0750    2.0890   25.0030 N.2     1  UNL1       -0.2118
     21 C         -27.5430    0.8490   25.0790 C.2     1  UNL1        0.2344
     22 O         -28.1930   -0.2080   24.4770 O.2     1  UNL1       -0.4585
     23 C         -29.4600    0.0050   23.8660 C.3     1  UNL1        0.2423
     24 C         -30.0650   -1.3770   23.5730 C.3     1  UNL1        0.2292
     25 O         -30.7290   -1.8780   24.7210 O.3     1  UNL1       -0.2162
     26 C         -26.3540    0.5760   25.7770 C.3     1  UNL1        0.2441
     27 F         -25.8600   -0.6810   25.7950 F       1  UNL1       -0.2265
     28 C         -25.3963    5.1735   33.1348 C.2     1  UNL1        0.0656
     29 C         -25.9838    6.9946   31.6892 C.3     1  UNL1        0.0255
     30 N         -25.0483    3.9049   33.1229 N.am    1  UNL1       -0.1823
     31 C         -25.8309    8.0509   32.7692 C.3     1  UNL1        0.0912
     32 C         -24.8532    6.1261   34.0961 C.2     1  UNL1        0.0737
     33 O         -25.8477    3.3200   30.7741 O.2     1  UNL1       -0.2730
     34 N         -25.2254    7.5543   34.0504 N.pl3   1  UNL1       -0.3040
     35 C         -23.5168    1.5512   30.1740 C.3     1  UNL1        0.0355
     36 C         -26.3158    5.6274   32.1585 C.3     1  UNL1        0.0463
     37 O         -23.3425    1.7987   24.5889 O.2     1  UNL1       -0.2869
     38 C         -23.2317    1.7375   25.9042 C.2     1  UNL1        0.1921
     39 C         -25.1837    3.2150   31.6528 C.2     1  UNL1        0.2452
     40 C         -24.6762    6.7530   30.9123 C.3     1  UNL1        0.0021
     41 C         -22.0022    1.8363   26.5261 C.2     1  UNL1        0.0414
     42 C         -21.8973    1.6227   27.8912 C.2     1  UNL1       -0.0010
     43 C         -23.1320    1.4339   28.6814 C.2     1  UNL1       -0.0218
     44 C         -24.3442    1.4901   26.7360 C.2     1  UNL1        0.0236
     45 C         -25.0403    8.6158   35.0845 C.3     1  UNL1        0.1122
     46 C         -24.7372    1.8620   31.0159 C.3     1  UNL1        0.0843
     47 C         -24.2285    1.1613   27.9886 C.2     1  UNL1       -0.0049
@<TRIPOS>BOND
     1     2     7    1
     2     2     1    1
     3     3     2    2
     4     4     3    1
     5     4     5    2
     6     5     6    1
     7     6     7    2
     8     8     1    1
     9     8     9    1
    10     8    12    1
    11     9    46    1
    12     9    10    1
    13    10    11    1
    14    12    11    1
    15    13    44    1
    16    14    13    1
    17    14    15    1
    18    15    18    2
    19    16    17    1
    20    16    15    1
    21    19    14    2
    22    20    21    2
    23    20    19    1
    24    21    26    1
    25    22    21    1
    26    23    22    1
    27    24    23    1
    28    24    25    1
    29    26    27    1
    30    26    13    1
    31    28    32    2
    32    29    40    1
    33    29    36    1
    34    29    31    1
    35    30    28    1
    36    31    34    1
    37    33    39    2
    38    34    32    1
    39    34    45    1
    40    36    28    1
    41    37    38    1
    42    38    41    2
    43    38    44    1
    44    39    30    1
    45    41    42    1
    46    42    43    2
    47    43    35    1
    48    44    47    2
    49    46    35    1
    50    46    39    1
    51    47    43    1
