@<TRIPOS>MOLECULE
outputs/IAG933/test6/raw/output_284_IAG933_linker_design_.xyz
 42 45 0 0 0
SMALL
GASTEIGER

@<TRIPOS>ATOM
      1 C         -24.8550   -1.0120   30.1430 C.3     1  UNL1        0.0438
      2 C         -24.9730   -2.5050   29.7880 C.2     1  UNL1       -0.0208
      3 C         -23.9060   -3.1730   29.1460 C.2     1  UNL1       -0.0042
      4 C         -23.9890   -4.5490   28.8530 C.2     1  UNL1       -0.0003
      5 C         -25.1370   -5.2800   29.2050 C.2     1  UNL1       -0.0000
      6 C         -26.2320   -4.6110   29.7840 C.2     1  UNL1       -0.0003
      7 C         -26.1550   -3.2320   30.0650 C.2     1  UNL1       -0.0042
      8 C         -25.3870   -0.6790   31.5710 C.3     1  UNL1        0.0788
      9 C         -25.1890    0.7730   32.0280 C.3     1  UNL1        0.0379
     10 C         -25.3360    0.6840   33.5440 C.3     1  UNL1        0.0219
     11 C         -24.8290   -0.7150   33.9050 C.3     1  UNL1        0.0888
     12 N         -24.7580   -1.4810   32.6460 N.3     1  UNL1       -0.2191
     13 C         -25.6880    1.6140   26.4610 C.3     1  UNL1        0.0831
     14 C         -26.2500    2.9200   26.3950 C.2     1  UNL1        0.0556
     15 C         -25.6420    4.0930   27.1230 C.2     1  UNL1        0.2625
     16 N         -25.6140    5.2520   26.4490 N.am    1  UNL1       -0.2000
     17 C         -25.0260    6.4790   26.9630 C.3     1  UNL1        0.1388
     18 O         -25.1430    3.9660   28.2430 O.2     1  UNL1       -0.2687
     19 C         -27.4380    3.0910   25.6450 C.2     1  UNL1        0.1022
     20 N         -28.0750    2.0890   25.0030 N.2     1  UNL1       -0.2119
     21 C         -27.5430    0.8490   25.0790 C.2     1  UNL1        0.2341
     22 O         -28.1930   -0.2080   24.4770 O.2     1  UNL1       -0.4585
     23 C         -29.4600    0.0050   23.8660 C.3     1  UNL1        0.2423
     24 C         -30.0650   -1.3770   23.5730 C.3     1  UNL1        0.2292
     25 O         -30.7290   -1.8780   24.7210 O.3     1  UNL1       -0.2162
     26 C         -26.3540    0.5760   25.7770 C.3     1  UNL1        0.2408
     27 F         -25.8600   -0.6810   25.7950 F       1  UNL1       -0.2269
     28 N         -23.3407    2.3317   24.7873 N.pl3   1  UNL1       -0.1039
     29 C         -25.0412    3.8839   33.0912 C.3     1  UNL1        0.1839
     30 O         -26.4407    3.8432   33.1433 O.3     1  UNL1       -0.2204
     31 O         -26.5284    0.9032   29.0606 O.2     1  UNL1       -0.2730
     32 C         -23.3449    1.4809   27.2000 C.ar    1  UNL1        0.0793
     33 C         -24.6414    3.2068   31.7890 C.3     1  UNL1        0.0572
     34 C         -24.7160    1.4629   27.5696 C.3     1  UNL1        0.1152
     35 C         -25.4431    2.0594   31.2166 C.3     1  UNL1        0.0993
     36 C         -22.7494    1.9658   25.9779 C.ar    1  UNL1        0.2089
     37 N         -22.2055    0.4721   29.2041 N.pl3   1  UNL1       -0.0854
     38 O         -21.1309    1.5089   27.3568 O.2     1  UNL1       -0.3341
     39 C         -22.1450    1.1286   27.9348 C.ar    1  UNL1        0.2629
     40 C         -25.3584    1.4411   28.8889 C.2     1  UNL1        0.2456
     41 N         -21.4926    2.0565   26.0300 N.ar    1  UNL1       -0.0572
     42 N         -24.7567    2.0678   29.8576 N.am    1  UNL1       -0.2068
@<TRIPOS>BOND
     1     2     7    1
     2     2     1    1
     3     3     2    2
     4     4     3    1
     5     4     5    2
     6     5     6    1
     7     6     7    2
     8     8     1    1
     9     8     9    1
    10     8    12    1
    11     9    35    1
    12     9    10    1
    13    10    11    1
    14    12    11    1
    15    13    34    1
    16    14    13    1
    17    14    15    1
    18    15    18    2
    19    16    17    1
    20    16    15    1
    21    19    14    2
    22    20    21    2
    23    20    19    1
    24    21    26    1
    25    22    21    1
    26    23    22    1
    27    24    23    1
    28    24    25    1
    29    26    27    1
    30    26    13    1
    31    28    36    1
    32    29    30    1
    33    32    34    1
    34    32    39   ar
    35    33    29    1
    36    34    40    1
    37    35    33    1
    38    36    41   ar
    39    36    32   ar
    40    38    39   ar
    41    39    37    1
    42    40    31    2
    43    40    42    1
    44    41    38   ar
    45    42    35    1
