@<TRIPOS>MOLECULE
outputs/IAG933/test6/raw/output_2840_IAG933_linker_design_.xyz
 43 48 0 0 0
SMALL
GASTEIGER

@<TRIPOS>ATOM
      1 C         -24.8550   -1.0120   30.1430 C.3     1  UNL1        0.2013
      2 C         -24.9730   -2.5050   29.7880 C.2     1  UNL1        0.0214
      3 C         -23.9060   -3.1730   29.1460 C.2     1  UNL1       -0.0004
      4 C         -23.9890   -4.5490   28.8530 C.2     1  UNL1       -0.0002
      5 C         -25.1370   -5.2800   29.2050 C.2     1  UNL1       -0.0000
      6 C         -26.2320   -4.6110   29.7840 C.2     1  UNL1       -0.0002
      7 C         -26.1550   -3.2320   30.0650 C.2     1  UNL1       -0.0004
      8 C         -25.3870   -0.6790   31.5710 C.3     1  UNL1        0.1215
      9 C         -25.1890    0.7730   32.0280 C.3     1  UNL1        0.0451
     10 C         -25.3360    0.6840   33.5440 C.3     1  UNL1        0.0222
     11 C         -24.8290   -0.7150   33.9050 C.3     1  UNL1        0.0889
     12 N         -24.7580   -1.4810   32.6460 N.3     1  UNL1       -0.2150
     13 C         -25.6880    1.6140   26.4610 C.2     1  UNL1        0.0942
     14 C         -26.2500    2.9200   26.3950 C.2     1  UNL1        0.0903
     15 C         -25.6420    4.0930   27.1230 C.2     1  UNL1        0.2676
     16 N         -25.6140    5.2520   26.4490 N.am    1  UNL1       -0.1997
     17 C         -25.0260    6.4790   26.9630 C.3     1  UNL1        0.1388
     18 O         -25.1430    3.9660   28.2430 O.2     1  UNL1       -0.2683
     19 C         -27.4380    3.0910   25.6450 C.2     1  UNL1        0.1080
     20 N         -28.0750    2.0890   25.0030 N.2     1  UNL1       -0.2080
     21 C         -27.5430    0.8490   25.0790 C.2     1  UNL1        0.2546
     22 O         -28.1930   -0.2080   24.4770 O.2     1  UNL1       -0.4558
     23 C         -29.4600    0.0050   23.8660 C.3     1  UNL1        0.2426
     24 C         -30.0650   -1.3770   23.5730 C.3     1  UNL1        0.2292
     25 O         -30.7290   -1.8780   24.7210 O.3     1  UNL1       -0.2162
     26 C         -26.3540    0.5760   25.7770 C.2     1  UNL1        0.2067
     27 F         -25.8600   -0.6810   25.7950 F       1  UNL1       -0.1979
     28 C         -22.3926    1.0384   28.1273 C.2     1  UNL1        0.1680
     29 O         -27.8527    1.1199   30.0195 O.2     1  UNL1       -0.2946
     30 N         -22.1768   -0.6997   29.9246 N.pl3   1  UNL1        0.2105
     31 C         -24.8544    0.9989   28.7702 C.3     1  UNL1        0.3280
     32 C         -25.7261    1.6952   30.9327 C.3     1  UNL1        0.1370
     33 N         -24.2128   -0.1041   29.1375 N.pl3   1  UNL1       -0.1585
     34 N         -24.9710    1.9523   29.7293 N.3     1  UNL1       -0.1520
     35 C         -22.7940   -0.0170   29.0974 C.2     1  UNL1        0.3770
     36 N         -24.6430    1.2882   27.3892 N.pl3   1  UNL1       -0.2293
     37 S         -20.8587    1.2750   27.4644 S.3     1  UNL1        0.1066
     38 C         -27.1767    1.8050   30.7780 C.2     1  UNL1        0.1670
     39 C         -23.3339    1.2450   27.1040 C.2     1  UNL1        0.1368
     40 O         -21.4786    1.7242   25.9015 O.2     1  UNL1       -0.3889
     41 C         -27.8835    2.8998   31.5481 C.3     1  UNL1        0.0738
     42 F         -23.4061    1.4291   24.6959 F       1  UNL1       -0.1608
     43 C         -22.7818    1.5163   25.8521 C.2     1  UNL1        0.3093
@<TRIPOS>BOND
     1     1     2    1
     2     1     8    1
     3     2     7    1
     4     3     2    2
     5     4     3    1
     6     4     5    2
     7     5     6    1
     8     6     7    2
     9     8     9    1
    10     8    12    1
    11     9    10    1
    12    10    11    1
    13    12    11    1
    14    13    36    1
    15    14    13    1
    16    14    15    1
    17    15    18    2
    18    16    17    1
    19    16    15    1
    20    19    14    2
    21    20    21    2
    22    20    19    1
    23    21    26    1
    24    22    21    1
    25    23    22    1
    26    24    23    1
    27    24    25    1
    28    26    27    1
    29    26    13    2
    30    28    35    2
    31    29    38    2
    32    31    33    1
    33    31    34    1
    34    32    38    1
    35    32     9    1
    36    33     1    1
    37    34    32    1
    38    35    33    1
    39    35    30    1
    40    36    31    1
    41    37    28    1
    42    38    41    1
    43    39    36    1
    44    39    28    1
    45    40    37    1
    46    42    43    1
    47    43    40    1
    48    43    39    2
