@<TRIPOS>MOLECULE
No_2847-gen_results/8p0m/2024-11-27-11-27-31/
 12 13 0 0 0
SMALL
GASTEIGER

@<TRIPOS>ATOM
      1 C         -28.0162   -0.8135   28.8779 C.ar    1  UNL1        0.0000
      2 C         -27.0636   -0.1189   28.6079 C.ar    1  UNL1        0.0000
      3 C         -25.7647   -0.3897   29.0360 C.ar    1  UNL1        0.0000
      4 C         -25.5296   -1.5302   29.9014 C.ar    1  UNL1        0.0000
      5 C         -26.6888   -2.2893   30.1810 C.ar    1  UNL1        0.0000
      6 C         -27.8727   -1.9508   29.7373 C.ar    1  UNL1        0.0000
      7 C         -24.5491    0.4100   28.7341 C.ar    1  UNL1        0.0016
      8 C         -23.3309    0.0437   29.0569 C.ar    1  UNL1        0.0210
      9 C         -23.2108   -1.2231   29.7977 C.ar    1  UNL1        0.0016
     10 C         -24.2359   -1.9569   30.2201 C.ar    1  UNL1        0.0000
     11 C         -22.1203    0.7684   28.7313 C.2     1  UNL1        0.1221
     12 N         -22.1821    1.9694   28.1671 N.2     1  UNL1       -0.1464
@<TRIPOS>BOND
     1     8    11    1
     2    11    12    2
     3     1     2   ar
     4     2     3   ar
     5     4     5   ar
     6     5     6   ar
     7     6     1   ar
     8     3     4   ar
     9     4    10   ar
    10    10     9   ar
    11     9     8   ar
    12     8     7   ar
    13     7     3   ar
