@<TRIPOS>MOLECULE
outputs/IAG933/test6/raw/output_2849_IAG933_linker_design_.xyz
 44 49 0 0 0
SMALL
GASTEIGER

@<TRIPOS>ATOM
      1 C         -24.8550   -1.0120   30.1430 C.3     1  UNL1        0.0387
      2 C         -24.9730   -2.5050   29.7880 C.2     1  UNL1       -0.0211
      3 C         -23.9060   -3.1730   29.1460 C.2     1  UNL1       -0.0042
      4 C         -23.9890   -4.5490   28.8530 C.2     1  UNL1       -0.0003
      5 C         -25.1370   -5.2800   29.2050 C.2     1  UNL1       -0.0000
      6 C         -26.2320   -4.6110   29.7840 C.2     1  UNL1       -0.0003
      7 C         -26.1550   -3.2320   30.0650 C.2     1  UNL1       -0.0042
      8 C         -25.3870   -0.6790   31.5710 C.3     1  UNL1        0.0768
      9 C         -25.1890    0.7730   32.0280 C.3     1  UNL1        0.0192
     10 C         -25.3360    0.6840   33.5440 C.3     1  UNL1        0.0202
     11 C         -24.8290   -0.7150   33.9050 C.3     1  UNL1        0.0887
     12 N         -24.7580   -1.4810   32.6460 N.3     1  UNL1       -0.2191
     13 C         -25.6880    1.6140   26.4610 C.2     1  UNL1        0.0181
     14 C         -26.2500    2.9200   26.3950 C.2     1  UNL1        0.0726
     15 C         -25.6420    4.0930   27.1230 C.2     1  UNL1        0.2661
     16 N         -25.6140    5.2520   26.4490 N.am    1  UNL1       -0.1997
     17 C         -25.0260    6.4790   26.9630 C.3     1  UNL1        0.1388
     18 O         -25.1430    3.9660   28.2430 O.2     1  UNL1       -0.2683
     19 C         -27.4380    3.0910   25.6450 C.2     1  UNL1        0.1064
     20 N         -28.0750    2.0890   25.0030 N.2     1  UNL1       -0.2081
     21 C         -27.5430    0.8490   25.0790 C.2     1  UNL1        0.2530
     22 O         -28.1930   -0.2080   24.4770 O.2     1  UNL1       -0.4558
     23 C         -29.4600    0.0050   23.8660 C.3     1  UNL1        0.2426
     24 C         -30.0650   -1.3770   23.5730 C.3     1  UNL1        0.2292
     25 O         -30.7290   -1.8780   24.7210 O.3     1  UNL1       -0.2162
     26 C         -26.3540    0.5760   25.7770 C.2     1  UNL1        0.1892
     27 F         -25.8600   -0.6810   25.7950 F       1  UNL1       -0.1996
     28 O         -22.3825    0.1343   30.0382 O.3     1  UNL1       -0.2204
     29 O         -21.2328    1.9363   27.0158 O.3     1  UNL1       -0.3241
     30 C         -25.3725    0.0550   29.1680 C.3     1  UNL1        0.0127
     31 C         -23.3054    1.2667   26.8314 C.3     1  UNL1        0.1516
     32 C         -24.1304    0.2585   28.3651 C.3     1  UNL1        0.0402
     33 C         -27.0349    2.5349   30.4665 C.2     1  UNL1       -0.0043
     34 C         -29.7704    2.1319   30.1110 C.2     1  UNL1       -0.0003
     35 C         -22.8921    0.7247   28.9731 C.3     1  UNL1        0.1818
     36 C         -21.6229    2.0665   25.6412 C.3     1  UNL1        0.2941
     37 C         -29.3196    2.9429   31.1406 C.2     1  UNL1       -0.0000
     38 C         -26.6775    0.4794   28.8947 C.3     1  UNL1        0.0268
     39 C         -27.5157    1.5438   29.6053 C.2     1  UNL1       -0.0222
     40 C         -24.4716    1.3623   27.2576 C.3     1  UNL1        0.0572
     41 C         -28.8656    1.4519   29.3182 C.2     1  UNL1       -0.0043
     42 C         -27.9528    3.1788   31.2856 C.2     1  UNL1       -0.0003
     43 C         -22.4034    1.8750   27.8654 C.3     1  UNL1        0.1754
     44 O         -23.0266    2.0947   25.7081 O.3     1  UNL1       -0.3263
@<TRIPOS>BOND
     1     1    30    1
     2     2     7    1
     3     2     1    1
     4     3     2    2
     5     4     3    1
     6     4     5    2
     7     5     6    1
     8     6     7    2
     9     8     1    1
    10     8     9    1
    11     8    12    1
    12     9    10    1
    13    10    11    1
    14    12    11    1
    15    14    13    1
    16    14    15    1
    17    15    18    2
    18    16    17    1
    19    16    15    1
    20    19    14    2
    21    20    21    2
    22    20    19    1
    23    21    26    1
    24    22    21    1
    25    23    22    1
    26    24    23    1
    27    24    25    1
    28    26    27    1
    29    26    13    2
    30    30    38    1
    31    31    44    1
    32    31    40    1
    33    31    43    1
    34    32    35    1
    35    32    30    1
    36    33    42    1
    37    34    37    1
    38    35    28    1
    39    36    44    1
    40    36    29    1
    41    37    42    2
    42    38    39    1
    43    39    33    2
    44    40    13    1
    45    40    32    1
    46    41    39    1
    47    41    34    2
    48    43    29    1
    49    43    35    1
