@<TRIPOS>MOLECULE
No_285-gen_results/8p0m/2024-11-27-11-27-31/
 14 14 0 0 0
SMALL
GASTEIGER

@<TRIPOS>ATOM
      1 C         -28.0162   -0.8135   28.8779 C.ar    1  UNL1        0.0294
      2 C         -28.4690   -0.7850   29.8287 C.ar    1  UNL1        0.1401
      3 C         -26.5455   -0.8762   28.8500 C.ar    1  UNL1       -0.0005
      4 C         -25.8041   -1.0324   30.0571 C.ar    1  UNL1       -0.0032
      5 C         -27.9437   -0.9869   31.2075 C.ar    1  UNL1        0.0294
      6 C         -26.5825   -1.0386   31.2231 C.ar    1  UNL1       -0.0005
      7 F         -29.9086   -0.7397   29.8642 F       1  UNL1       -0.2042
      8 C         -24.3893   -0.9826   29.8745 C.3     1  UNL1        0.1240
      9 CL        -23.5505   -2.1365   30.4348 Cl      1  UNL1       -0.1053
     10 C         -23.7159    0.1552   29.3331 C.2     1  UNL1       -0.0059
     11 C         -22.5043    0.0299   28.7404 C.2     1  UNL1       -0.0034
     12 C         -21.9090    1.1677   28.0765 C.2     1  UNL1       -0.0049
     13 C         -22.7652    2.2487   27.7222 C.2     1  UNL1       -0.0258
     14 C         -24.0358    2.2887   28.2798 C.3     1  UNL1        0.0307
@<TRIPOS>BOND
     1     2     7    1
     2     4     8    1
     3     8     9    1
     4     8    10    1
     5    10    11    2
     6    11    12    1
     7    12    13    2
     8    13    14    1
     9     1     2   ar
    10     2     5   ar
    11     5     6   ar
    12     6     4   ar
    13     4     3   ar
    14     3     1   ar
