@<TRIPOS>MOLECULE
outputs/IAG933/test6/raw/output_2852_IAG933_linker_design_.xyz
 41 44 0 0 0
SMALL
GASTEIGER

@<TRIPOS>ATOM
      1 C         -24.8550   -1.0120   30.1430 C.3     1  UNL1        0.1154
      2 C         -24.9730   -2.5050   29.7880 C.2     1  UNL1       -0.0029
      3 C         -23.9060   -3.1730   29.1460 C.2     1  UNL1       -0.0026
      4 C         -23.9890   -4.5490   28.8530 C.2     1  UNL1       -0.0003
      5 C         -25.1370   -5.2800   29.2050 C.2     1  UNL1       -0.0000
      6 C         -26.2320   -4.6110   29.7840 C.2     1  UNL1       -0.0003
      7 C         -26.1550   -3.2320   30.0650 C.2     1  UNL1       -0.0026
      8 C         -25.3870   -0.6790   31.5710 C.3     1  UNL1        0.0952
      9 C         -25.1890    0.7730   32.0280 C.3     1  UNL1        0.0209
     10 C         -25.3360    0.6840   33.5440 C.3     1  UNL1        0.0203
     11 C         -24.8290   -0.7150   33.9050 C.3     1  UNL1        0.0888
     12 N         -24.7580   -1.4810   32.6460 N.3     1  UNL1       -0.2174
     13 C         -25.6880    1.6140   26.4610 C.3     1  UNL1        0.0785
     14 C         -26.2500    2.9200   26.3950 C.2     1  UNL1        0.0551
     15 C         -25.6420    4.0930   27.1230 C.2     1  UNL1        0.2624
     16 N         -25.6140    5.2520   26.4490 N.am    1  UNL1       -0.2000
     17 C         -25.0260    6.4790   26.9630 C.3     1  UNL1        0.1388
     18 O         -25.1430    3.9660   28.2430 O.2     1  UNL1       -0.2687
     19 C         -27.4380    3.0910   25.6450 C.2     1  UNL1        0.1021
     20 N         -28.0750    2.0890   25.0030 N.2     1  UNL1       -0.2119
     21 C         -27.5430    0.8490   25.0790 C.2     1  UNL1        0.2341
     22 O         -28.1930   -0.2080   24.4770 O.2     1  UNL1       -0.4585
     23 C         -29.4600    0.0050   23.8660 C.3     1  UNL1        0.2423
     24 C         -30.0650   -1.3770   23.5730 C.3     1  UNL1        0.2292
     25 O         -30.7290   -1.8780   24.7210 O.3     1  UNL1       -0.2162
     26 C         -26.3540    0.5760   25.7770 C.3     1  UNL1        0.2403
     27 F         -25.8600   -0.6810   25.7950 F       1  UNL1       -0.2269
     28 F         -23.6374    0.9775   24.6435 F       1  UNL1       -0.1884
     29 C         -24.3365    1.4772   26.7660 C.3     1  UNL1        0.1069
     30 O         -27.5386   -0.6048   28.4455 O.2     1  UNL1       -0.2508
     31 C         -26.8059    0.1510   28.9766 C.2     1  UNL1        0.3236
     32 C         -21.8932    1.5461   27.5227 C.2     1  UNL1        0.3764
     33 C         -23.3465    1.3457   25.8645 C.3     1  UNL1        0.3321
     34 C         -28.0013    2.2666   29.8080 C.3     1  UNL1        0.1402
     35 N         -22.7609    1.4808   28.4533 N.2     1  UNL1       -0.2115
     36 N         -25.5060   -0.0598   29.2214 N.am    1  UNL1       -0.2574
     37 O         -22.1272    1.4565   26.2250 O.2     1  UNL1       -0.4113
     38 C         -24.7793    0.9059   28.7041 C.3     1  UNL1        0.1199
     39 N         -27.1789    1.3340   29.2274 N.am    1  UNL1       -0.1865
     40 C         -23.9784    1.3013   28.0121 C.3     1  UNL1        0.1352
     41 F         -20.6794    1.6398   27.8369 F       1  UNL1       -0.1433
@<TRIPOS>BOND
     1     1    36    1
     2     2     7    1
     3     2     1    1
     4     3     2    2
     5     4     3    1
     6     4     5    2
     7     5     6    1
     8     6     7    2
     9     8     1    1
    10     8     9    1
    11     8    12    1
    12     9    10    1
    13    10    11    1
    14    12    11    1
    15    13    14    1
    16    14    15    1
    17    15    18    2
    18    16    17    1
    19    16    15    1
    20    19    14    2
    21    20    21    2
    22    20    19    1
    23    21    26    1
    24    22    21    1
    25    23    22    1
    26    24    23    1
    27    24    25    1
    28    26    27    1
    29    26    13    1
    30    29    13    1
    31    29    40    1
    32    30    31    2
    33    31    36   am
    34    31    39    1
    35    32    41    1
    36    32    35    2
    37    33    28    1
    38    33    37    1
    39    33    29    1
    40    37    32    1
    41    38    36    1
    42    39    34    1
    43    40    35    1
    44    40    38    1
