@<TRIPOS>MOLECULE
No_2857-gen_results/8p0m/2024-11-27-11-27-31/
 10 11 0 0 0
SMALL
GASTEIGER

@<TRIPOS>ATOM
      1 C         -28.0162   -0.8135   28.8779 C.ar    1  UNL1        0.0988
      2 C         -27.0636   -0.1190   28.6079 C.ar    1  UNL1        0.0192
      3 C         -27.0010    0.6913   27.4910 C.ar    1  UNL1        0.0015
      4 C         -25.8548    1.4825   27.0830 C.ar    1  UNL1        0.0000
      5 C         -24.6901    1.4526   27.8807 C.ar    1  UNL1        0.0000
      6 C         -24.7379    0.6010   29.0416 C.ar    1  UNL1        0.0001
      7 C         -25.8234   -0.1688   29.3887 C.ar    1  UNL1        0.0030
      8 N         -27.9524   -1.6294   30.0643 N.ar    1  UNL1       -0.2423
      9 C         -26.7857   -1.8628   30.7160 C.ar    1  UNL1        0.0989
     10 C         -25.6854   -1.0794   30.4242 C.ar    1  UNL1        0.0207
@<TRIPOS>BOND
     1     2     3   ar
     2     3     4   ar
     3     4     5   ar
     4     5     6   ar
     5     6     7   ar
     6     1     2   ar
     7     2     7   ar
     8     7    10   ar
     9    10     9   ar
    10     9     8   ar
    11     8     1   ar
