@<TRIPOS>MOLECULE
No_286-gen_results/8p0m/2024-11-27-11-27-31/
 17 18 0 0 0
SMALL
GASTEIGER

@<TRIPOS>ATOM
      1 C         -28.0162   -0.8135   28.8779 C.ar    1  UNL1        0.0347
      2 C         -27.0636   -0.1190   28.6079 C.ar    1  UNL1        0.1357
      3 N         -25.8176   -0.3427   29.0488 N.ar    1  UNL1       -0.2288
      4 C         -25.6067   -1.4414   29.8929 C.ar    1  UNL1        0.1003
      5 C         -26.6760   -2.2193   30.2363 C.ar    1  UNL1        0.0208
      6 C         -27.8635   -1.9317   29.7671 C.ar    1  UNL1        0.0045
      7 N         -27.1286    1.0356   27.8135 N.pl3   1  UNL1       -0.2667
      8 C         -26.1342    1.9036   27.7281 C.ar    1  UNL1        0.0530
      9 C         -25.9502    2.9937   27.8825 C.ar    1  UNL1        0.0149
     10 C         -24.7699    3.8628   27.6310 C.ar    1  UNL1        0.0013
     11 C         -23.6799    3.1502   27.1430 C.ar    1  UNL1        0.0001
     12 C         -24.8141    1.3638   27.0327 C.ar    1  UNL1        0.0149
     13 C         -23.7524    1.9521   26.7982 C.ar    1  UNL1        0.0013
     14 C         -28.3188    1.3325   27.1010 C.3     1  UNL1        0.1432
     15 C         -29.2716    2.1185   27.7530 C.3     1  UNL1        0.0304
     16 C         -28.5095    0.9021   25.8229 C.2     1  UNL1        0.2272
     17 O         -27.5089    0.4641   25.1373 O.2     1  UNL1       -0.2865
@<TRIPOS>BOND
     1     2     7    1
     2     7     8    1
     3     7    14    1
     4    14    15    1
     5    14    16    1
     6    16    17    2
     7     1     2   ar
     8     2     3   ar
     9     3     4   ar
    10     4     5   ar
    11     5     6   ar
    12     6     1   ar
    13     8     9   ar
    14     9    10   ar
    15    10    11   ar
    16    11    13   ar
    17    13    12   ar
    18    12     8   ar
