@<TRIPOS>MOLECULE
No_2860-gen_results/8p0m/2024-11-27-11-27-31/
 11 11 0 0 0
SMALL
GASTEIGER

@<TRIPOS>ATOM
      1 O         -28.1229   -1.3353   28.4874 O.2     1  UNL1       -0.2557
      2 C         -28.5208   -0.4363   29.0779 C.2     1  UNL1        0.3469
      3 C         -28.5893    0.5916   28.9464 C.3     1  UNL1        0.2731
      4 F         -29.0845   -0.9257   30.3785 F       1  UNL1       -0.1602
      5 F         -29.1316    1.4403   29.7107 F       1  UNL1       -0.2213
      6 C         -28.0145    1.2504   27.7037 C.ar    1  UNL1        0.0199
      7 C         -27.0632    1.3654   27.0856 C.ar    1  UNL1       -0.0011
      8 C         -26.7984    1.7388   25.7713 C.ar    1  UNL1       -0.0002
      9 C         -28.9293    2.3026   27.0604 C.ar    1  UNL1       -0.0011
     10 C         -28.8019    2.8951   25.8535 C.ar    1  UNL1       -0.0002
     11 C         -27.6151    2.6952   25.2030 C.ar    1  UNL1       -0.0000
@<TRIPOS>BOND
     1     1     2    2
     2     2     3    1
     3     2     4    1
     4     3     5    1
     5     3     6    1
     6     6     7   ar
     7     7     8   ar
     8     8    11   ar
     9    11    10   ar
    10    10     9   ar
    11     9     6   ar
