@<TRIPOS>MOLECULE
outputs/IAG933/test6/raw/output_2862_IAG933_linker_design_.xyz
 40 44 0 0 0
SMALL
GASTEIGER

@<TRIPOS>ATOM
      1 C         -24.8550   -1.0120   30.1430 C.3     1  UNL1        0.0587
      2 C         -24.9730   -2.5050   29.7880 C.2     1  UNL1       -0.0195
      3 C         -23.9060   -3.1730   29.1460 C.2     1  UNL1       -0.0042
      4 C         -23.9890   -4.5490   28.8530 C.2     1  UNL1       -0.0003
      5 C         -25.1370   -5.2800   29.2050 C.2     1  UNL1       -0.0000
      6 C         -26.2320   -4.6110   29.7840 C.2     1  UNL1       -0.0003
      7 C         -26.1550   -3.2320   30.0650 C.2     1  UNL1       -0.0042
      8 C         -25.3870   -0.6790   31.5710 C.3     1  UNL1        0.0822
      9 C         -25.1890    0.7730   32.0280 C.3     1  UNL1        0.0621
     10 C         -25.3360    0.6840   33.5440 C.3     1  UNL1        0.0241
     11 C         -24.8290   -0.7150   33.9050 C.3     1  UNL1        0.0888
     12 N         -24.7580   -1.4810   32.6460 N.3     1  UNL1       -0.2189
     13 C         -25.6880    1.6140   26.4610 C.3     1  UNL1        0.0950
     14 C         -26.2500    2.9200   26.3950 C.2     1  UNL1        0.0590
     15 C         -25.6420    4.0930   27.1230 C.2     1  UNL1        0.2628
     16 N         -25.6140    5.2520   26.4490 N.am    1  UNL1       -0.2000
     17 C         -25.0260    6.4790   26.9630 C.3     1  UNL1        0.1388
     18 O         -25.1430    3.9660   28.2430 O.2     1  UNL1       -0.2686
     19 C         -27.4380    3.0910   25.6450 C.2     1  UNL1        0.1025
     20 N         -28.0750    2.0890   25.0030 N.2     1  UNL1       -0.2118
     21 C         -27.5430    0.8490   25.0790 C.2     1  UNL1        0.2344
     22 O         -28.1930   -0.2080   24.4770 O.2     1  UNL1       -0.4585
     23 C         -29.4600    0.0050   23.8660 C.3     1  UNL1        0.2423
     24 C         -30.0650   -1.3770   23.5730 C.3     1  UNL1        0.2292
     25 O         -30.7290   -1.8780   24.7210 O.3     1  UNL1       -0.2162
     26 C         -26.3540    0.5760   25.7770 C.3     1  UNL1        0.2441
     27 F         -25.8600   -0.6810   25.7950 F       1  UNL1       -0.2265
     28 C         -21.4221    1.2880   27.7101 C.2     1  UNL1        0.0028
     29 C         -24.7782    0.0024   29.0130 C.3     1  UNL1        0.1025
     30 C         -24.2349    1.3125   26.8663 C.2     1  UNL1        0.0163
     31 C         -23.8184    0.6617   28.1196 C.2     1  UNL1       -0.0067
     32 O         -24.2625    2.6833   31.1445 O.3     1  UNL1       -0.3369
     33 C         -24.8813    3.5516   32.1835 C.3     1  UNL1        0.1758
     34 O         -23.3415    1.9828   24.6585 O.2     1  UNL1       -0.4717
     35 C         -25.3425    1.6977   30.8122 C.3     1  UNL1        0.1908
     36 C         -22.4479    0.7582   28.5620 C.2     1  UNL1       -0.0030
     37 C         -23.1237    1.6549   25.9724 C.2     1  UNL1        0.1348
     38 C         -21.7664    1.7280   26.4275 C.2     1  UNL1        0.0366
     39 N         -25.4665    1.1631   29.4483 N.3     1  UNL1       -0.1885
     40 C         -23.0033    1.0190   23.6736 C.3     1  UNL1        0.2525
@<TRIPOS>BOND
     1     1     2    1
     2     1     8    1
     3     2     7    1
     4     3     2    2
     5     4     3    1
     6     4     5    2
     7     5     6    1
     8     6     7    2
     9     8     9    1
    10     8    12    1
    11     9    10    1
    12    10    11    1
    13    12    11    1
    14    13    30    1
    15    14    13    1
    16    14    15    1
    17    15    18    2
    18    16    17    1
    19    16    15    1
    20    19    14    2
    21    20    21    2
    22    20    19    1
    23    21    26    1
    24    22    21    1
    25    23    22    1
    26    24    23    1
    27    24    25    1
    28    26    27    1
    29    26    13    1
    30    28    36    1
    31    29    31    1
    32    29    39    1
    33    29     1    1
    34    30    31    1
    35    31    36    2
    36    32    33    1
    37    34    37    1
    38    35    32    1
    39    35     9    1
    40    37    38    1
    41    37    30    2
    42    38    28    2
    43    39    35    1
    44    40    34    1
