@<TRIPOS>MOLECULE
No_2863-gen_results/8p0m/2024-11-27-11-27-31/
 16 17 0 0 0
SMALL
GASTEIGER

@<TRIPOS>ATOM
      1 C         -28.0162   -0.8135   28.8779 C.ar    1  UNL1        0.0151
      2 C         -28.4690   -0.7850   29.8287 C.ar    1  UNL1        0.0556
      3 C         -26.5455   -0.8762   28.8500 C.ar    1  UNL1        0.0013
      4 C         -25.8041   -1.0324   30.0571 C.ar    1  UNL1        0.0001
      5 C         -27.9437   -0.9869   31.2075 C.ar    1  UNL1        0.0151
      6 C         -26.5825   -1.0386   31.2231 C.ar    1  UNL1        0.0013
      7 N         -29.9436   -0.6830   29.6853 N.pl3   1  UNL1       -0.2647
      8 C         -30.7883   -1.3979   30.2794 C.ar    1  UNL1        0.0556
      9 C         -31.4987   -2.0978   29.9573 C.ar    1  UNL1        0.0151
     10 C         -32.4278   -2.9932   30.7206 C.ar    1  UNL1        0.0013
     11 C         -32.3227   -2.8391   32.1054 C.ar    1  UNL1        0.0001
     12 C         -31.4186   -2.0196   32.6514 C.ar    1  UNL1        0.0013
     13 C         -30.5679   -1.2870   31.8654 C.ar    1  UNL1        0.0151
     14 C         -30.4106    0.2588   28.7720 C.2     1  UNL1        0.0649
     15 C         -30.6107   -0.0900   27.5222 C.2     1  UNL1       -0.0094
     16 C         -31.1123    0.8285   26.6204 C.3     1  UNL1        0.0321
@<TRIPOS>BOND
     1     2     7    1
     2     7     8    1
     3     7    14    1
     4    14    15    2
     5    15    16    1
     6     8     9   ar
     7     9    10   ar
     8    10    11   ar
     9    11    12   ar
    10    12    13   ar
    11    13     8   ar
    12     1     2   ar
    13     2     5   ar
    14     5     6   ar
    15     6     4   ar
    16     4     3   ar
    17     3     1   ar
