@<TRIPOS>MOLECULE
No_2864-gen_results/8p0m/2024-11-27-11-27-31/
 10 10 0 0 0
SMALL
GASTEIGER

@<TRIPOS>ATOM
      1 C         -28.0162   -0.8135   28.8779 C.2     1  UNL1       -0.0431
      2 C         -28.4690   -0.7850   29.8287 C.2     1  UNL1        0.0364
      3 C         -28.1960    0.3478   28.0550 C.3     1  UNL1        0.0219
      4 C         -27.4421    0.5100   26.7946 C.3     1  UNL1        0.0043
      5 C         -26.1689   -0.0794   26.6787 C.3     1  UNL1        0.0007
      6 C         -25.7312   -0.9607   27.6875 C.3     1  UNL1        0.0043
      7 C         -26.5043   -1.2222   28.7582 C.3     1  UNL1        0.0219
      8 C         -29.5802   -0.2435   30.2170 C.3     1  UNL1        0.3402
      9 F         -30.0142    0.6301   29.3373 F       1  UNL1       -0.1933
     10 F         -29.5126    0.4422   31.4300 F       1  UNL1       -0.1933
@<TRIPOS>BOND
     1     1     2    2
     2     1     3    1
     3     3     4    1
     4     4     5    1
     5     5     6    1
     6     1     7    1
     7     6     7    1
     8     2     8    1
     9     8     9    1
    10     8    10    1
