@<TRIPOS>MOLECULE
No_2865-gen_results/8p0m/2024-11-27-11-27-31/
 26 29 0 0 0
SMALL
GASTEIGER

@<TRIPOS>ATOM
      1 C         -28.0162   -0.8135   28.8779 C.ar    1  UNL1       -0.0000
      2 C         -28.4690   -0.7850   29.8287 C.ar    1  UNL1       -0.0000
      3 C         -27.1356    0.2359   28.5352 C.ar    1  UNL1       -0.0003
      4 C         -26.8745    1.2825   29.3982 C.ar    1  UNL1       -0.0000
      5 C         -28.3613    0.1987   30.9244 C.ar    1  UNL1       -0.0000
      6 C         -27.5277    1.2234   30.6356 C.ar    1  UNL1       -0.0000
      7 C         -26.3987    0.2949   27.2279 C.ar    1  UNL1       -0.0040
      8 C         -26.9022    0.7280   26.2134 C.ar    1  UNL1       -0.0222
      9 C         -26.1747    0.6364   24.9259 C.ar    1  UNL1       -0.0043
     10 C         -25.0769   -0.2068   27.2393 C.ar    1  UNL1       -0.0003
     11 C         -24.4662   -0.6746   28.5690 C.ar    1  UNL1       -0.0000
     12 C         -24.8102    0.2419   24.9847 C.ar    1  UNL1       -0.0003
     13 C         -24.2910   -0.1013   26.1508 C.ar    1  UNL1       -0.0000
     14 C         -24.0778   -1.5859   29.1453 C.ar    1  UNL1       -0.0000
     15 C         -23.4398   -1.6085   30.4007 C.ar    1  UNL1       -0.0000
     16 C         -23.5240   -0.3712   31.1366 C.ar    1  UNL1        0.0000
     17 C         -24.2698    0.6931   29.4571 C.ar    1  UNL1       -0.0000
     18 C         -23.7437    0.7128   30.6232 C.ar    1  UNL1       -0.0000
     19 C         -28.3333    1.1444   25.9786 C.3     1  UNL1        0.0271
     20 C         -28.5826    2.4574   26.2404 C.3     1  UNL1        0.0051
     21 C         -29.3406    0.2088   25.7881 C.3     1  UNL1        0.0373
     22 C         -30.6874    0.5098   26.1047 C.2     1  UNL1        0.0307
     23 C         -31.6207   -0.3663   25.8815 C.1     1  UNL1        0.1246
     24 C         -31.0207    1.7418   26.8159 C.3     1  UNL1        0.0330
     25 C         -29.9741    2.7826   26.7971 C.3     1  UNL1        0.0054
     26 O         -32.5062   -0.1253   25.1339 O.2     1  UNL1       -0.2318
@<TRIPOS>BOND
     1     3     7    1
     2    10    11    1
     3     8    19    1
     4    19    20    1
     5    19    21    1
     6    21    22    1
     7    22    23    2
     8    22    24    1
     9    20    25    1
    10    24    25    1
    11    23    26    2
    12    11    14   ar
    13    14    15   ar
    14    15    16   ar
    15    16    18   ar
    16    18    17   ar
    17    17    11   ar
    18     7     8   ar
    19     8     9   ar
    20     9    12   ar
    21    12    13   ar
    22    13    10   ar
    23    10     7   ar
    24     1     2   ar
    25     2     5   ar
    26     5     6   ar
    27     6     4   ar
    28     4     3   ar
    29     3     1   ar
