@<TRIPOS>MOLECULE
No_2866-gen_results/8p0m/2024-11-27-11-27-31/
 14 15 0 0 0
SMALL
GASTEIGER

@<TRIPOS>ATOM
      1 C         -28.0162   -0.8135   28.8779 C.ar    1  UNL1        0.0489
      2 C         -28.4690   -0.7850   29.8287 C.ar    1  UNL1        0.1046
      3 C         -27.1356    0.2359   28.5352 C.ar    1  UNL1        0.1416
      4 C         -26.8745    1.2825   29.3982 C.ar    1  UNL1        0.0310
      5 C         -28.3613    0.1987   30.9244 C.ar    1  UNL1        0.0649
      6 C         -27.5277    1.2234   30.6356 C.ar    1  UNL1        0.0182
      7 F         -26.4877    0.2566   27.3533 F       1  UNL1       -0.2041
      8 N         -29.0285    0.0927   32.1420 N.pl3   1  UNL1       -0.3064
      9 C         -30.1060    0.1834   32.4379 C.3     1  UNL1        0.0908
     10 C         -30.5639    0.0099   33.7883 C.3     1  UNL1        0.0215
     11 C         -28.1245   -0.2998   33.3072 C.3     1  UNL1        0.0908
     12 C         -28.4610   -0.4606   34.5713 C.3     1  UNL1        0.0215
     13 C         -29.7919   -0.2644   34.8297 C.3     1  UNL1        0.0035
     14 N         -29.3468   -1.8217   30.5541 N.pl3   1  UNL1       -0.1267
@<TRIPOS>BOND
     1     3     7    1
     2     5     8    1
     3     8     9    1
     4     8    11    1
     5    10    13    1
     6    12    13    1
     7     2    14    1
     8     9    10    1
     9    12    11    1
    10     1     2   ar
    11     2     5   ar
    12     5     6   ar
    13     6     4   ar
    14     4     3   ar
    15     3     1   ar
