@<TRIPOS>MOLECULE
outputs/IAG933/test6/raw/output_2867_IAG933_linker_design_.xyz
 40 44 0 0 0
SMALL
GASTEIGER

@<TRIPOS>ATOM
      1 C         -24.8550   -1.0120   30.1430 C.3     1  UNL1        0.0452
      2 C         -24.9730   -2.5050   29.7880 C.2     1  UNL1       -0.0207
      3 C         -23.9060   -3.1730   29.1460 C.2     1  UNL1       -0.0042
      4 C         -23.9890   -4.5490   28.8530 C.2     1  UNL1       -0.0003
      5 C         -25.1370   -5.2800   29.2050 C.2     1  UNL1       -0.0000
      6 C         -26.2320   -4.6110   29.7840 C.2     1  UNL1       -0.0003
      7 C         -26.1550   -3.2320   30.0650 C.2     1  UNL1       -0.0042
      8 C         -25.3870   -0.6790   31.5710 C.3     1  UNL1        0.0941
      9 C         -25.1890    0.7730   32.0280 C.3     1  UNL1        0.1044
     10 C         -25.3360    0.6840   33.5440 C.3     1  UNL1        0.0387
     11 C         -24.8290   -0.7150   33.9050 C.3     1  UNL1        0.0902
     12 N         -24.7580   -1.4810   32.6460 N.3     1  UNL1       -0.2176
     13 C         -25.6880    1.6140   26.4610 C.2     1  UNL1        0.0458
     14 C         -26.2500    2.9200   26.3950 C.2     1  UNL1        0.0749
     15 C         -25.6420    4.0930   27.1230 C.2     1  UNL1        0.2662
     16 N         -25.6140    5.2520   26.4490 N.am    1  UNL1       -0.1997
     17 C         -25.0260    6.4790   26.9630 C.3     1  UNL1        0.1388
     18 O         -25.1430    3.9660   28.2430 O.2     1  UNL1       -0.2683
     19 C         -27.4380    3.0910   25.6450 C.2     1  UNL1        0.1065
     20 N         -28.0750    2.0890   25.0030 N.2     1  UNL1       -0.2081
     21 C         -27.5430    0.8490   25.0790 C.2     1  UNL1        0.2530
     22 O         -28.1930   -0.2080   24.4770 O.2     1  UNL1       -0.4558
     23 C         -29.4600    0.0050   23.8660 C.3     1  UNL1        0.2426
     24 C         -30.0650   -1.3770   23.5730 C.3     1  UNL1        0.2292
     25 O         -30.7290   -1.8780   24.7210 O.3     1  UNL1       -0.2162
     26 C         -26.3540    0.5760   25.7770 C.2     1  UNL1        0.1915
     27 F         -25.8600   -0.6810   25.7950 F       1  UNL1       -0.1995
     28 C         -22.1135    1.2843   27.3925 C.3     1  UNL1        0.1802
     29 F         -20.8719    1.7738   26.9581 F       1  UNL1       -0.2358
     30 C         -24.5253    3.9798   32.4507 C.3     1  UNL1        0.1146
     31 C         -22.7272    1.9204   28.6586 C.3     1  UNL1        0.0580
     32 C         -23.2734    1.5488   26.3574 C.3     1  UNL1        0.1455
     33 N         -24.6264    2.3867   30.1017 N.3     1  UNL1       -0.1405
     34 O         -24.0693    0.0735   27.6499 O.3     1  UNL1       -0.2183
     35 S         -25.3195    3.1781   31.0431 S.3     1  UNL1        0.0588
     36 N         -25.6526    1.9043   31.3072 N.3     1  UNL1       -0.1419
     37 C         -24.2497    1.9257   28.6138 C.3     1  UNL1        0.1226
     38 CL        -22.9303    1.9832   24.7473 Cl      1  UNL1       -0.1091
     39 O         -26.0874    4.2208   30.5098 O.3     1  UNL1       -0.1397
     40 C         -24.5473    1.2713   27.2476 C.3     1  UNL1        0.1797
@<TRIPOS>BOND
     1     2     7    1
     2     2     1    1
     3     3     2    2
     4     4     3    1
     5     4     5    2
     6     5     6    1
     7     6     7    2
     8     8     1    1
     9     8     9    1
    10     8    12    1
    11     9    10    1
    12    10    11    1
    13    12    11    1
    14    13    40    1
    15    14    13    1
    16    14    15    1
    17    15    18    2
    18    16    17    1
    19    16    15    1
    20    19    14    2
    21    20    21    2
    22    20    19    1
    23    21    26    1
    24    22    21    1
    25    23    22    1
    26    24    23    1
    27    24    25    1
    28    26    27    1
    29    26    13    2
    30    28    29    1
    31    28    31    1
    32    32    38    1
    33    32    40    1
    34    32    28    1
    35    33    37    1
    36    33    35    1
    37    33    36    1
    38    35    36    1
    39    35    30    1
    40    36     9    1
    41    37    31    1
    42    39    35    1
    43    40    34    1
    44    40    37    1
