@<TRIPOS>MOLECULE
outputs/IAG933/test6/raw/output_2868_IAG933_linker_design_.xyz
 48 53 0 0 0
SMALL
GASTEIGER

@<TRIPOS>ATOM
      1 C         -24.8550   -1.0120   30.1430 C.3     1  UNL1        0.0437
      2 C         -24.9730   -2.5050   29.7880 C.2     1  UNL1       -0.0208
      3 C         -23.9060   -3.1730   29.1460 C.2     1  UNL1       -0.0042
      4 C         -23.9890   -4.5490   28.8530 C.2     1  UNL1       -0.0003
      5 C         -25.1370   -5.2800   29.2050 C.2     1  UNL1       -0.0000
      6 C         -26.2320   -4.6110   29.7840 C.2     1  UNL1       -0.0003
      7 C         -26.1550   -3.2320   30.0650 C.2     1  UNL1       -0.0042
      8 C         -25.3870   -0.6790   31.5710 C.3     1  UNL1        0.0775
      9 C         -25.1890    0.7730   32.0280 C.3     1  UNL1        0.0232
     10 C         -25.3360    0.6840   33.5440 C.3     1  UNL1        0.0206
     11 C         -24.8290   -0.7150   33.9050 C.3     1  UNL1        0.0887
     12 N         -24.7580   -1.4810   32.6460 N.3     1  UNL1       -0.2191
     13 C         -25.6880    1.6140   26.4610 C.2     1  UNL1        0.0407
     14 C         -26.2500    2.9200   26.3950 C.2     1  UNL1        0.0744
     15 C         -25.6420    4.0930   27.1230 C.2     1  UNL1        0.2231
     16 N         -25.6140    5.2520   26.4490 N.2     1  UNL1       -0.2356
     17 C         -25.0260    6.4790   26.9630 C.3     1  UNL1        0.1550
     18 O         -25.1430    3.9660   28.2430 O.2     1  UNL1       -0.4464
     19 C         -27.4380    3.0910   25.6450 C.2     1  UNL1        0.1068
     20 N         -28.0750    2.0890   25.0030 N.2     1  UNL1       -0.2081
     21 C         -27.5430    0.8490   25.0790 C.2     1  UNL1        0.2533
     22 O         -28.1930   -0.2080   24.4770 O.2     1  UNL1       -0.4558
     23 C         -29.4600    0.0050   23.8660 C.3     1  UNL1        0.2426
     24 C         -30.0650   -1.3770   23.5730 C.3     1  UNL1        0.2292
     25 O         -30.7290   -1.8780   24.7210 O.3     1  UNL1       -0.2162
     26 C         -26.3540    0.5760   25.7770 C.2     1  UNL1        0.1931
     27 F         -25.8600   -0.6810   25.7950 F       1  UNL1       -0.1992
     28 C         -22.8710    1.7160   26.9768 C.3     1  UNL1        0.0233
     29 N         -26.5908    3.7139   32.2449 N.3     1  UNL1       -0.1841
     30 C         -26.7878    3.8962   30.4050 C.3     1  UNL1        0.1349
     31 C         -25.1973    1.9411   31.1987 C.3     1  UNL1        0.0407
     32 C         -24.3912    1.7453   30.0156 C.2     1  UNL1       -0.0282
     33 N         -26.7125    5.1719   30.2886 N.3     1  UNL1       -0.2142
     34 N         -21.1964    1.0800   28.4411 N.3     1  UNL1       -0.2151
     35 F         -26.4482    5.0424   34.0165 F       1  UNL1       -0.2143
     36 C         -20.6611    2.1401   27.5878 C.3     1  UNL1        0.0891
     37 C         -26.0616    3.1298   31.3201 C.3     1  UNL1        0.0993
     38 N         -25.9003    7.1298   31.9440 N.pl3   1  UNL1       -0.1611
     39 C         -21.5832    2.0939   26.3958 C.3     1  UNL1        0.0206
     40 C         -26.0779    5.7506   31.5518 C.3     1  UNL1        0.2078
     41 C         -22.5240    1.2288   28.2845 C.3     1  UNL1        0.0944
     42 N         -25.5847    8.0839   34.0605 N.2     1  UNL1       -0.0981
     43 N         -26.8036    8.0081   31.2976 N.3     1  UNL1       -0.0117
     44 C         -25.1782    7.2911   33.1739 C.2     1  UNL1        0.3141
     45 C         -26.3538    4.7901   29.3319 C.3     1  UNL1        0.2474
     46 F         -24.0880    6.6209   33.4958 F       1  UNL1       -0.1629
     47 C         -22.9810    2.0029   29.5719 C.2     1  UNL1       -0.0137
     48 C         -26.4474    4.9521   32.7497 C.3     1  UNL1        0.2702
@<TRIPOS>BOND
     1     2     7    1
     2     2     1    1
     3     3     2    2
     4     4     3    1
     5     4     5    2
     6     5     6    1
     7     6     7    2
     8     8     1    1
     9     8     9    1
    10     8    12    1
    11     9    31    1
    12     9    10    1
    13    10    11    1
    14    12    11    1
    15    14    13    1
    16    14    15    1
    17    15    18    1
    18    16    17    1
    19    16    15    2
    20    18    45    1
    21    19    14    2
    22    20    21    2
    23    20    19    1
    24    21    26    1
    25    22    21    1
    26    23    22    1
    27    24    23    1
    28    24    25    1
    29    26    27    1
    30    26    13    2
    31    28    41    1
    32    29    48    1
    33    30    37    1
    34    31    37    1
    35    32    31    1
    36    33    30    1
    37    33    40    1
    38    36    34    1
    39    37    29    1
    40    38    44    1
    41    39    28    1
    42    39    36    1
    43    40    38    1
    44    40    48    1
    45    41    34    1
    46    41    47    1
    47    43    38    1
    48    44    46    1
    49    44    42    2
    50    45    33    1
    51    45    30    1
    52    47    32    2
    53    48    35    1
