@<TRIPOS>MOLECULE
No_287-gen_results/8p0m/2024-11-27-11-27-31/
 10 10 0 0 0
SMALL
GASTEIGER

@<TRIPOS>ATOM
      1 C         -28.0162   -0.8135   28.8779 C.ar    1  UNL1        0.0312
      2 C         -27.0636   -0.1189   28.6079 C.ar    1  UNL1        0.1402
      3 C         -26.8756    1.1325   28.9134 C.ar    1  UNL1        0.0312
      4 C         -27.9014    1.8066   29.6436 C.ar    1  UNL1        0.0214
      5 C         -29.0458   -0.2316   29.7181 C.ar    1  UNL1        0.0214
      6 C         -28.9402    1.0517   30.0597 C.ar    1  UNL1        0.0811
      7 F         -26.0208   -0.6774   27.8774 F       1  UNL1       -0.2042
      8 N         -29.9608    1.6335   30.8241 N.2     1  UNL1       -0.2485
      9 C         -30.9296    1.3237   31.1641 C.2     1  UNL1        0.0728
     10 C         -31.8836    2.1358   32.0063 C.3     1  UNL1        0.0534
@<TRIPOS>BOND
     1     2     7    1
     2     6     8    1
     3     8     9    2
     4     9    10    1
     5     1     2   ar
     6     2     3   ar
     7     3     4   ar
     8     4     6   ar
     9     6     5   ar
    10     5     1   ar
