@<TRIPOS>MOLECULE
No_2870-gen_results/8p0m/2024-11-27-11-27-31/
 35 38 0 0 0
SMALL
GASTEIGER

@<TRIPOS>ATOM
      1 C         -28.0162   -0.8135   28.8779 C.ar    1  UNL1        0.0000
      2 C         -27.0636   -0.1190   28.6079 C.ar    1  UNL1        0.0002
      3 C         -26.9287    1.1713   29.0083 C.ar    1  UNL1        0.0064
      4 C         -25.7702    2.0341   28.6884 C.ar    1  UNL1        0.0048
      5 C         -24.7141    1.4431   27.9188 C.ar    1  UNL1        0.0554
      6 C         -24.8590    0.0783   27.5836 C.ar    1  UNL1        0.0046
      7 C         -25.9647   -0.6606   27.9164 C.ar    1  UNL1        0.0001
      8 C         -29.2431   -0.1966   29.1279 C.ar    1  UNL1        0.0002
      9 C         -29.2984    1.0857   29.4305 C.ar    1  UNL1        0.0064
     10 C         -28.1405    1.8773   29.2637 C.ar    1  UNL1        0.0756
     11 C         -23.4432    2.0945   27.6730 C.2     1  UNL1        0.2703
     12 N         -22.2644    2.0424   27.9251 N.am    1  UNL1       -0.1548
     13 O         -23.7250    3.1820   26.7947 O.2     1  UNL1       -0.2680
     14 C         -21.7890    0.9539   28.7492 C.ar    1  UNL1        0.1786
     15 C         -20.7407    0.1046   28.2343 C.ar    1  UNL1        0.1584
     16 N         -22.5112    0.5443   29.7907 N.ar    1  UNL1       -0.1924
     17 C         -22.2226   -0.5973   30.4503 C.ar    1  UNL1        0.2609
     18 N         -20.4402   -1.0059   28.9093 N.ar    1  UNL1       -0.1406
     19 N         -21.1789   -1.3158   30.0409 N.ar    1  UNL1       -0.1104
     20 N         -22.9368   -0.9321   31.5004 N.pl3   1  UNL1       -0.1751
     21 C         -24.2715   -0.5996   31.7238 C.2     1  UNL1        0.0889
     22 C         -24.6093    0.0088   32.9831 C.2     1  UNL1        0.0179
     23 C         -26.0063    0.5294   33.1333 C.ar    1  UNL1        0.0014
     24 C         -26.4042    1.2962   34.1142 C.ar    1  UNL1        0.0009
     25 C         -27.2302    1.9502   34.5239 C.ar    1  UNL1        0.0114
     26 C         -28.4521    1.9595   33.6898 C.ar    1  UNL1        0.0577
     27 C         -28.3214    1.1245   32.5298 C.ar    1  UNL1        0.0114
     28 C         -27.0429    0.4224   32.1978 C.ar    1  UNL1        0.0009
     29 C         -28.1587    3.3502   29.5909 C.2     1  UNL1        0.3412
     30 O         -29.2167    3.7990   29.9422 O.2     1  UNL1       -0.2449
     31 O         -27.0494    3.9914   29.5301 O.3     1  UNL1       -0.4440
     32 CL        -29.9229    2.7373   33.9179 Cl      1  UNL1       -0.0822
     33 C         -26.8762    5.0852   29.9652 C.3     1  UNL1        0.2262
     34 C         -25.7327    5.7901   29.4761 C.3     1  UNL1        0.1422
     35 CL        -26.0099    7.1316   28.5948 Cl      1  UNL1       -0.1096
@<TRIPOS>BOND
     1     5    11    1
     2    11    12   am
     3    11    13    2
     4    12    14    1
     5    17    20    1
     6    20    21    1
     7    21    22    2
     8    22    23    1
     9    10    29    1
    10    29    30    2
    11    29    31    1
    12    26    32    1
    13    31    33    1
    14    33    34    1
    15    34    35    1
    16     3     4   ar
    17     4     5   ar
    18     5     6   ar
    19     6     7   ar
    20     7     2   ar
    21    14    15   ar
    22    15    18   ar
    23    18    19   ar
    24    19    17   ar
    25    17    16   ar
    26    16    14   ar
    27     1     2   ar
    28     2     3   ar
    29     3    10   ar
    30    10     9   ar
    31     9     8   ar
    32     8     1   ar
    33    23    24   ar
    34    24    25   ar
    35    25    26   ar
    36    26    27   ar
    37    27    28   ar
    38    28    23   ar
