@<TRIPOS>MOLECULE
outputs/IAG933/test6/raw/output_2873_IAG933_linker_design_.xyz
 41 45 0 0 0
SMALL
GASTEIGER

@<TRIPOS>ATOM
      1 C         -24.8550   -1.0120   30.1430 C.3     1  UNL1        0.0970
      2 C         -24.9730   -2.5050   29.7880 C.2     1  UNL1       -0.0064
      3 C         -23.9060   -3.1730   29.1460 C.2     1  UNL1       -0.0029
      4 C         -23.9890   -4.5490   28.8530 C.2     1  UNL1       -0.0003
      5 C         -25.1370   -5.2800   29.2050 C.2     1  UNL1       -0.0000
      6 C         -26.2320   -4.6110   29.7840 C.2     1  UNL1       -0.0003
      7 C         -26.1550   -3.2320   30.0650 C.2     1  UNL1       -0.0029
      8 C         -25.3870   -0.6790   31.5710 C.3     1  UNL1        0.0916
      9 C         -25.1890    0.7730   32.0280 C.3     1  UNL1        0.0206
     10 C         -25.3360    0.6840   33.5440 C.3     1  UNL1        0.0203
     11 C         -24.8290   -0.7150   33.9050 C.3     1  UNL1        0.0888
     12 N         -24.7580   -1.4810   32.6460 N.3     1  UNL1       -0.2178
     13 C         -25.6880    1.6140   26.4610 C.2     1  UNL1        0.0321
     14 C         -26.2500    2.9200   26.3950 C.2     1  UNL1        0.0739
     15 C         -25.6420    4.0930   27.1230 C.2     1  UNL1        0.2662
     16 N         -25.6140    5.2520   26.4490 N.am    1  UNL1       -0.1997
     17 C         -25.0260    6.4790   26.9630 C.3     1  UNL1        0.1388
     18 O         -25.1430    3.9660   28.2430 O.2     1  UNL1       -0.2683
     19 C         -27.4380    3.0910   25.6450 C.2     1  UNL1        0.1065
     20 N         -28.0750    2.0890   25.0030 N.2     1  UNL1       -0.2081
     21 C         -27.5430    0.8490   25.0790 C.2     1  UNL1        0.2530
     22 O         -28.1930   -0.2080   24.4770 O.2     1  UNL1       -0.4558
     23 C         -29.4600    0.0050   23.8660 C.3     1  UNL1        0.2426
     24 C         -30.0650   -1.3770   23.5730 C.3     1  UNL1        0.2292
     25 O         -30.7290   -1.8780   24.7210 O.3     1  UNL1       -0.2162
     26 C         -26.3540    0.5760   25.7770 C.2     1  UNL1        0.1904
     27 F         -25.8600   -0.6810   25.7950 F       1  UNL1       -0.1995
     28 C         -24.4021    1.3292   27.1969 C.3     1  UNL1        0.1069
     29 O         -29.2855    0.5378   29.0231 O.co2   1  UNL1       -0.2441
     30 C         -26.9433   -0.3226   28.4908 C.3     1  UNL1        0.1883
     31 C         -28.0832    0.4028   29.4167 C.2     1  UNL1        0.3809
     32 N         -23.4384    1.7546   27.0089 N.3     1  UNL1       -0.2361
     33 C         -23.0196    0.3618   28.4738 C.2     1  UNL1        0.1835
     34 C         -21.0701    2.0835   27.1035 C.3     1  UNL1        0.1674
     35 O         -22.3949   -0.2610   29.3564 O.2     1  UNL1       -0.2931
     36 O         -21.5503    2.7086   25.8009 O.3     1  UNL1       -0.3354
     37 C         -22.3923    1.4116   27.5276 C.3     1  UNL1        0.1491
     38 N         -25.4566   -0.2164   28.9227 N.3     1  UNL1       -0.2533
     39 C         -23.0083    2.6262   25.7297 C.3     1  UNL1        0.2206
     40 C         -24.3403    0.3984   28.1906 C.3     1  UNL1        0.1369
     41 O         -27.6812    0.8374   30.4811 O.co2   1  UNL1       -0.2441
@<TRIPOS>BOND
     1     1    38    1
     2     2     7    1
     3     2     1    1
     4     3     2    2
     5     4     3    1
     6     4     5    2
     7     5     6    1
     8     6     7    2
     9     8     1    1
    10     8     9    1
    11     8    12    1
    12     9    10    1
    13    10    11    1
    14    12    11    1
    15    14    13    1
    16    14    15    1
    17    15    18    2
    18    16    17    1
    19    16    15    1
    20    19    14    2
    21    20    21    2
    22    20    19    1
    23    21    26    1
    24    22    21    1
    25    23    22    1
    26    24    23    1
    27    24    25    1
    28    26    27    1
    29    26    13    2
    30    28    13    1
    31    28    40    1
    32    29    31   ar
    33    30    38    1
    34    30    31    1
    35    31    41   ar
    36    32    39    1
    37    32    28    1
    38    32    37    1
    39    33    35    2
    40    36    34    1
    41    37    34    1
    42    37    33    1
    43    39    36    1
    44    40    33    1
    45    40    38    1
