@<TRIPOS>MOLECULE
outputs/IAG933/test6/raw/output_2874_IAG933_linker_design_.xyz
 42 45 0 0 0
SMALL
GASTEIGER

@<TRIPOS>ATOM
      1 C         -24.8550   -1.0120   30.1430 C.3     1  UNL1        0.1197
      2 C         -24.9730   -2.5050   29.7880 C.2     1  UNL1       -0.0025
      3 C         -23.9060   -3.1730   29.1460 C.2     1  UNL1       -0.0026
      4 C         -23.9890   -4.5490   28.8530 C.2     1  UNL1       -0.0003
      5 C         -25.1370   -5.2800   29.2050 C.2     1  UNL1       -0.0000
      6 C         -26.2320   -4.6110   29.7840 C.2     1  UNL1       -0.0003
      7 C         -26.1550   -3.2320   30.0650 C.2     1  UNL1       -0.0026
      8 C         -25.3870   -0.6790   31.5710 C.3     1  UNL1        0.0955
      9 C         -25.1890    0.7730   32.0280 C.3     1  UNL1        0.0209
     10 C         -25.3360    0.6840   33.5440 C.3     1  UNL1        0.0203
     11 C         -24.8290   -0.7150   33.9050 C.3     1  UNL1        0.0888
     12 N         -24.7580   -1.4810   32.6460 N.3     1  UNL1       -0.2174
     13 C         -25.6880    1.6140   26.4610 C.2     1  UNL1        0.0424
     14 C         -26.2500    2.9200   26.3950 C.2     1  UNL1        0.0767
     15 C         -25.6420    4.0930   27.1230 C.2     1  UNL1        0.2664
     16 N         -25.6140    5.2520   26.4490 N.am    1  UNL1       -0.1997
     17 C         -25.0260    6.4790   26.9630 C.3     1  UNL1        0.1388
     18 O         -25.1430    3.9660   28.2430 O.2     1  UNL1       -0.2683
     19 C         -27.4380    3.0910   25.6450 C.2     1  UNL1        0.1067
     20 N         -28.0750    2.0890   25.0030 N.2     1  UNL1       -0.2081
     21 C         -27.5430    0.8490   25.0790 C.2     1  UNL1        0.2533
     22 O         -28.1930   -0.2080   24.4770 O.2     1  UNL1       -0.4558
     23 C         -29.4600    0.0050   23.8660 C.3     1  UNL1        0.2426
     24 C         -30.0650   -1.3770   23.5730 C.3     1  UNL1        0.2292
     25 O         -30.7290   -1.8780   24.7210 O.3     1  UNL1       -0.2162
     26 C         -26.3540    0.5760   25.7770 C.2     1  UNL1        0.1932
     27 F         -25.8600   -0.6810   25.7950 F       1  UNL1       -0.1992
     28 C         -24.3513    1.2749   27.1044 C.2     1  UNL1        0.0570
     29 N         -25.2534   -0.0295   29.1525 N.am    1  UNL1       -0.2354
     30 C         -26.6686    0.1456   29.0648 C.2     1  UNL1        0.3470
     31 C         -23.0242    1.6640   26.5331 C.2     1  UNL1        0.2038
     32 F         -21.4842    2.1029   24.9279 F       1  UNL1       -0.1687
     33 O         -21.8609    1.6021   27.2465 O.2     1  UNL1       -0.4310
     34 C         -22.8501    0.0318   28.7229 C.2     1  UNL1        0.1549
     35 N         -22.4829   -0.9001   29.5778 N.pl3   1  UNL1       -0.1220
     36 C         -21.7279    0.6397   28.1681 C.2     1  UNL1        0.2528
     37 O         -27.3991   -0.7861   28.7792 O.2     1  UNL1       -0.2487
     38 F         -23.5919    1.8343   24.3837 F       1  UNL1       -0.1687
     39 N         -20.4746    0.1539   28.5030 N.pl3   1  UNL1       -0.0862
     40 N         -27.1327    1.2914   29.2318 N.am    1  UNL1       -0.0689
     41 C         -24.2409    0.4474   28.2877 C.2     1  UNL1        0.0799
     42 C         -22.6865    1.9126   25.3875 C.2     1  UNL1        0.3129
@<TRIPOS>BOND
     1     1    29    1
     2     2     7    1
     3     2     1    1
     4     3     2    2
     5     4     3    1
     6     4     5    2
     7     5     6    1
     8     6     7    2
     9     8     1    1
    10     8     9    1
    11     8    12    1
    12     9    10    1
    13    10    11    1
    14    12    11    1
    15    13    28    1
    16    14    13    1
    17    14    15    1
    18    15    18    2
    19    16    17    1
    20    16    15    1
    21    19    14    2
    22    20    21    2
    23    20    19    1
    24    21    26    1
    25    22    21    1
    26    23    22    1
    27    24    23    1
    28    24    25    1
    29    26    27    1
    30    26    13    2
    31    28    41    2
    32    30    29   am
    33    30    40    1
    34    31    28    1
    35    31    33    1
    36    32    42    1
    37    33    36    1
    38    34    35    1
    39    36    39    1
    40    36    34    2
    41    37    30    2
    42    38    42    1
    43    41    34    1
    44    41    29    1
    45    42    31    2
