@<TRIPOS>MOLECULE
No_2876-gen_results/8p0m/2024-11-27-11-27-31/
 35 38 0 0 0
SMALL
GASTEIGER

@<TRIPOS>ATOM
      1 C         -28.0162   -0.8135   28.8779 C.ar    1  UNL1        0.0002
      2 C         -27.0636   -0.1189   28.6079 C.ar    1  UNL1        0.0039
      3 C         -25.7923   -0.4302   29.0761 C.ar    1  UNL1        0.0716
      4 C         -24.5456    0.3494   28.8225 C.ar    1  UNL1        0.0087
      5 C         -24.6586    1.4196   27.8878 C.ar    1  UNL1        0.0593
      6 C         -25.9471    1.6811   27.3792 C.ar    1  UNL1        0.0048
      7 C         -27.0439    0.9739   27.6871 C.ar    1  UNL1        0.0003
      8 C         -29.2364   -0.0611   29.2668 C.ar    1  UNL1        0.0064
      9 C         -29.4997    0.9915   28.3427 C.ar    1  UNL1        0.0760
     10 C         -28.3797    1.6784   27.7428 C.ar    1  UNL1        0.0064
     11 C         -23.4262    2.0917   27.5017 C.2     1  UNL1        0.2967
     12 N         -23.4990    3.0622   26.6535 N.2     1  UNL1       -0.1025
     13 O         -22.2844    1.8385   27.9893 O.2     1  UNL1       -0.2636
     14 C         -30.7040    1.4438   27.9313 C.2     1  UNL1        0.3457
     15 O         -31.0625    2.2457   27.3169 O.2     1  UNL1       -0.2445
     16 O         -31.6966    0.8668   28.7543 O.3     1  UNL1       -0.4195
     17 C         -25.4459   -1.6360   29.9033 C.3     1  UNL1        0.4186
     18 F         -25.6841   -1.4870   31.0752 F       1  UNL1       -0.1659
     19 F         -26.3603   -2.5995   29.4045 F       1  UNL1       -0.1659
     20 F         -24.2577   -2.1212   29.7316 F       1  UNL1       -0.1659
     21 C         -32.9975    0.6602   28.2614 C.2     1  UNL1        0.1663
     22 C         -33.7325    1.3414   27.8216 C.2     1  UNL1        0.0392
     23 C         -33.4823    2.7427   28.0089 C.ar    1  UNL1        0.0031
     24 C         -33.0022    3.3294   28.6614 C.ar    1  UNL1        0.0001
     25 C         -32.8423    4.8500   28.6919 C.ar    1  UNL1        0.0000
     26 C         -33.4076    5.5081   27.5959 C.ar    1  UNL1        0.0000
     27 C         -34.0611    4.7746   26.6072 C.ar    1  UNL1        0.0000
     28 C         -34.1465    3.4777   26.7052 C.ar    1  UNL1        0.0001
     29 C         -33.2785   -0.8726   28.5138 C.ar    1  UNL1        0.1190
     30 N         -34.0082   -1.4395   27.8964 N.ar    1  UNL1       -0.2405
     31 C         -34.2739   -2.6840   27.8958 C.ar    1  UNL1        0.1022
     32 C         -33.4427   -3.5572   27.8908 C.ar    1  UNL1        0.0627
     33 C         -32.1586   -3.1340   28.6641 C.ar    1  UNL1        0.1989
     34 C         -32.0446   -1.7637   28.9017 C.ar    1  UNL1        0.0643
     35 O         -31.2222   -4.0103   28.9575 O.3     1  UNL1       -0.2865
@<TRIPOS>BOND
     1     5    11    1
     2    11    12    2
     3    11    13    1
     4     9    14    1
     5    14    15    2
     6    14    16    1
     7     3    17    1
     8    17    18    1
     9    17    19    1
    10    17    20    1
    11    16    21    1
    12    21    22    2
    13    22    23    1
    14    21    29    1
    15    33    35    1
    16    29    30   ar
    17    30    31   ar
    18    31    32   ar
    19    32    33   ar
    20    33    34   ar
    21    34    29   ar
    22     2     3   ar
    23     3     4   ar
    24     4     5   ar
    25     5     6   ar
    26     6     7   ar
    27    23    24   ar
    28    24    25   ar
    29    25    26   ar
    30    26    27   ar
    31    27    28   ar
    32    28    23   ar
    33     1     2   ar
    34     2     7   ar
    35     7    10   ar
    36    10     9   ar
    37     9     8   ar
    38     8     1   ar
