@<TRIPOS>MOLECULE
No_2878-gen_results/8p0m/2024-11-27-11-27-31/
 35 39 0 0 0
SMALL
GASTEIGER

@<TRIPOS>ATOM
      1 O         -28.1229   -1.3353   28.4874 O.2     1  UNL1       -0.2445
      2 C         -27.0637   -0.8242   28.8687 C.2     1  UNL1        0.3466
      3 C         -26.9592    0.0926   29.7582 C.ar    1  UNL1        0.0723
      4 O         -25.8802   -1.1117   28.1591 O.3     1  UNL1       -0.4047
      5 C         -26.1463    0.9981   29.8682 C.ar    1  UNL1       -0.0104
      6 C         -26.0041    2.0723   30.8442 C.ar    1  UNL1        0.0006
      7 C         -27.0226    2.0232   31.8501 C.ar    1  UNL1        0.0533
      8 C         -27.9346    1.0186   31.8131 C.ar    1  UNL1        0.0047
      9 C         -27.9506    0.0540   30.8818 C.ar    1  UNL1        0.0063
     10 C         -26.9447    3.1011   32.8815 C.2     1  UNL1        0.2491
     11 N         -27.2974    2.8933   34.0156 N.am    1  UNL1       -0.2726
     12 O         -26.8783    4.3239   32.4688 O.2     1  UNL1       -0.2699
     13 C         -27.3284    3.9599   35.0910 C.3     1  UNL1        0.1152
     14 C         -27.2526    1.5745   34.6680 C.3     1  UNL1        0.1152
     15 C         -24.6079   -0.8998   28.5884 C.ar    1  UNL1        0.2149
     16 C         -23.6662   -1.8202   28.2396 C.ar    1  UNL1        0.0580
     17 C         -23.0786   -2.0502   29.3893 C.ar    1  UNL1        0.0235
     18 C         -22.7809   -0.9558   30.2837 C.ar    1  UNL1        0.0783
     19 N         -24.2212   -0.0889   29.6825 N.ar    1  UNL1       -0.2969
     20 C         -23.6129    1.2075   29.7470 C.3     1  UNL1        0.1172
     21 C         -25.0321    1.3541   28.8069 C.3     1  UNL1        0.0895
     22 C         -25.0050    2.9538   28.5947 C.3     1  UNL1        0.1936
     23 C         -25.8930    3.2916   27.4410 C.2     1  UNL1        0.0134
     24 C         -26.1822    4.5327   27.3383 C.2     1  UNL1        0.0019
     25 C         -25.4641    5.6347   27.9923 C.ar    1  UNL1        0.0338
     26 C         -25.7928    6.9794   27.8421 C.ar    1  UNL1        0.0030
     27 C         -25.0055    8.0129   28.4933 C.ar    1  UNL1        0.0002
     28 C         -24.5375    7.7304   29.7313 C.ar    1  UNL1        0.0031
     29 C         -24.6652    6.3581   30.2082 C.ar    1  UNL1        0.0369
     30 C         -25.0779    5.3535   29.4036 C.ar    1  UNL1        0.1388
     31 O         -24.7605    3.8470   29.4997 O.3     1  UNL1       -0.4744
     32 C         -26.3411    2.3068   26.5606 C.2     1  UNL1       -0.0267
     33 C         -25.5288    2.1347   25.3513 C.2     1  UNL1       -0.0302
     34 C         -25.1754    0.8004   25.1586 C.3     1  UNL1        0.0303
     35 C         -27.7662    2.4477   26.2016 C.3     1  UNL1        0.0305
@<TRIPOS>BOND
     1     1     2    2
     2     2     3    1
     3     2     4    1
     4     7    10    1
     5    10    11   am
     6    10    12    2
     7    11    13    1
     8    11    14    1
     9     4    15    1
    10    15    16   ar
    11    16    17   ar
    12    17    18   ar
    13    15    19   ar
    14    18    19   ar
    15    19    20    1
    16     5    21    1
    17    20    21    1
    18    21    22    1
    19    22    23    1
    20    23    24    2
    21    24    25    1
    22    22    31    1
    23    30    31    1
    24    23    32    1
    25    32    33    2
    26    33    34    1
    27    32    35    1
    28     3     5   ar
    29     5     6   ar
    30     6     7   ar
    31     7     8   ar
    32     8     9   ar
    33     9     3   ar
    34    25    26   ar
    35    26    27   ar
    36    27    28   ar
    37    28    29   ar
    38    29    30   ar
    39    30    25   ar
