@<TRIPOS>MOLECULE
outputs/IAG933/test6/raw/output_2879_IAG933_linker_design_.xyz
 44 49 0 0 0
SMALL
GASTEIGER

@<TRIPOS>ATOM
      1 C         -24.8550   -1.0120   30.1430 C.3     1  UNL1        0.1133
      2 C         -24.9730   -2.5050   29.7880 C.2     1  UNL1       -0.0050
      3 C         -23.9060   -3.1730   29.1460 C.2     1  UNL1       -0.0029
      4 C         -23.9890   -4.5490   28.8530 C.2     1  UNL1       -0.0003
      5 C         -25.1370   -5.2800   29.2050 C.2     1  UNL1       -0.0000
      6 C         -26.2320   -4.6110   29.7840 C.2     1  UNL1       -0.0003
      7 C         -26.1550   -3.2320   30.0650 C.2     1  UNL1       -0.0029
      8 C         -25.3870   -0.6790   31.5710 C.3     1  UNL1        0.0930
      9 C         -25.1890    0.7730   32.0280 C.3     1  UNL1        0.0206
     10 C         -25.3360    0.6840   33.5440 C.3     1  UNL1        0.0203
     11 C         -24.8290   -0.7150   33.9050 C.3     1  UNL1        0.0888
     12 N         -24.7580   -1.4810   32.6460 N.3     1  UNL1       -0.2177
     13 C         -25.6880    1.6140   26.4610 C.2     1  UNL1        0.0159
     14 C         -26.2500    2.9200   26.3950 C.2     1  UNL1        0.0704
     15 C         -25.6420    4.0930   27.1230 C.2     1  UNL1        0.2215
     16 N         -25.6140    5.2520   26.4490 N.2     1  UNL1       -0.2357
     17 C         -25.0260    6.4790   26.9630 C.3     1  UNL1        0.1550
     18 O         -25.1430    3.9660   28.2430 O.2     1  UNL1       -0.4636
     19 C         -27.4380    3.0910   25.6450 C.2     1  UNL1        0.1065
     20 N         -28.0750    2.0890   25.0030 N.2     1  UNL1       -0.2081
     21 C         -27.5430    0.8490   25.0790 C.2     1  UNL1        0.2530
     22 O         -28.1930   -0.2080   24.4770 O.2     1  UNL1       -0.4558
     23 C         -29.4600    0.0050   23.8660 C.3     1  UNL1        0.2426
     24 C         -30.0650   -1.3770   23.5730 C.3     1  UNL1        0.2292
     25 O         -30.7290   -1.8780   24.7210 O.3     1  UNL1       -0.2162
     26 C         -26.3540    0.5760   25.7770 C.2     1  UNL1        0.1891
     27 F         -25.8600   -0.6810   25.7950 F       1  UNL1       -0.1996
     28 C         -28.4645    4.4708   30.7054 C.2     1  UNL1        0.0600
     29 N         -23.7846   -0.0473   29.8089 N.3     1  UNL1       -0.1873
     30 C         -28.5948    4.2219   32.0265 C.2     1  UNL1        0.0261
     31 C         -27.4897    3.7886   32.6777 C.2     1  UNL1        0.0598
     32 C         -24.5391    1.3337   26.8869 C.3     1  UNL1        0.0347
     33 C         -27.2288    4.2585   30.0587 C.2     1  UNL1        0.0262
     34 C         -23.0536    1.1030   28.7784 C.3     1  UNL1        0.1932
     35 CL        -29.9906    5.0890   29.8070 Cl      1  UNL1       -0.0822
     36 C         -26.1266    3.7610   30.7989 C.2     1  UNL1        0.0631
     37 C         -27.5771    3.6114   34.1785 C.3     1  UNL1        0.0521
     38 C         -23.5889    1.5410   25.7119 C.3     1  UNL1        0.0368
     39 C         -24.1456    1.9297   28.1812 C.3     1  UNL1        0.0889
     40 O         -22.0808    1.4520   27.5776 O.3     1  UNL1       -0.3395
     41 N         -26.3348    3.5988   32.0693 N.2     1  UNL1       -0.2538
     42 C         -24.2823    3.1709   28.7762 C.3     1  UNL1        0.1774
     43 C         -22.2386    2.1007   26.4026 C.3     1  UNL1        0.1441
     44 C         -24.5703    3.3793   30.2803 C.3     1  UNL1        0.0894
@<TRIPOS>BOND
     1     1    29    1
     2     2     7    1
     3     2     1    1
     4     3     2    2
     5     4     3    1
     6     4     5    2
     7     5     6    1
     8     6     7    2
     9     8     1    1
    10     8     9    1
    11     8    12    1
    12     9    10    1
    13    10    11    1
    14    12    11    1
    15    13    32    1
    16    14    13    1
    17    14    15    1
    18    15    18    1
    19    16    17    1
    20    16    15    2
    21    18    42    1
    22    19    14    2
    23    20    21    2
    24    20    19    1
    25    21    26    1
    26    22    21    1
    27    23    22    1
    28    24    23    1
    29    24    25    1
    30    26    27    1
    31    26    13    2
    32    28    30    1
    33    30    31    2
    34    31    37    1
    35    32    38    1
    36    32    39    1
    37    33    28    2
    38    33    36    1
    39    34    29    1
    40    35    28    1
    41    36    41    2
    42    38    43    1
    43    39    42    1
    44    39    34    1
    45    40    34    1
    46    41    31    1
    47    42    44    1
    48    43    40    1
    49    44    36    1
