@<TRIPOS>MOLECULE
outputs/IAG933/test6/raw/output_288_IAG933_linker_design_.xyz
 42 46 0 0 0
SMALL
GASTEIGER

@<TRIPOS>ATOM
      1 C         -24.8550   -1.0120   30.1430 C.3     1  UNL1        0.0565
      2 C         -24.9730   -2.5050   29.7880 C.2     1  UNL1       -0.0195
      3 C         -23.9060   -3.1730   29.1460 C.2     1  UNL1       -0.0042
      4 C         -23.9890   -4.5490   28.8530 C.2     1  UNL1       -0.0003
      5 C         -25.1370   -5.2800   29.2050 C.2     1  UNL1       -0.0000
      6 C         -26.2320   -4.6110   29.7840 C.2     1  UNL1       -0.0003
      7 C         -26.1550   -3.2320   30.0650 C.2     1  UNL1       -0.0042
      8 C         -25.3870   -0.6790   31.5710 C.3     1  UNL1        0.0784
      9 C         -25.1890    0.7730   32.0280 C.3     1  UNL1        0.0192
     10 C         -25.3360    0.6840   33.5440 C.3     1  UNL1        0.0202
     11 C         -24.8290   -0.7150   33.9050 C.3     1  UNL1        0.0887
     12 N         -24.7580   -1.4810   32.6460 N.3     1  UNL1       -0.2191
     13 C         -25.6880    1.6140   26.4610 C.2     1  UNL1        0.0338
     14 C         -26.2500    2.9200   26.3950 C.2     1  UNL1        0.0741
     15 C         -25.6420    4.0930   27.1230 C.2     1  UNL1        0.2662
     16 N         -25.6140    5.2520   26.4490 N.am    1  UNL1       -0.1997
     17 C         -25.0260    6.4790   26.9630 C.3     1  UNL1        0.1388
     18 O         -25.1430    3.9660   28.2430 O.2     1  UNL1       -0.2683
     19 C         -27.4380    3.0910   25.6450 C.2     1  UNL1        0.1065
     20 N         -28.0750    2.0890   25.0030 N.2     1  UNL1       -0.2081
     21 C         -27.5430    0.8490   25.0790 C.2     1  UNL1        0.2530
     22 O         -28.1930   -0.2080   24.4770 O.2     1  UNL1       -0.4558
     23 C         -29.4600    0.0050   23.8660 C.3     1  UNL1        0.2426
     24 C         -30.0650   -1.3770   23.5730 C.3     1  UNL1        0.2292
     25 O         -30.7290   -1.8780   24.7210 O.3     1  UNL1       -0.2162
     26 C         -26.3540    0.5760   25.7770 C.2     1  UNL1        0.1907
     27 F         -25.8600   -0.6810   25.7950 F       1  UNL1       -0.1995
     28 C         -29.6196    0.1919   29.4103 C.2     1  UNL1       -0.0214
     29 C         -28.0960    1.9700   30.3909 C.2     1  UNL1       -0.0202
     30 C         -22.4208    1.6241   28.4769 C.3     1  UNL1        0.1645
     31 C         -22.7955    2.4574   26.0983 C.3     1  UNL1        0.0049
     32 C         -28.5979   -0.5511   28.6821 C.2     1  UNL1       -0.0030
     33 C         -26.7926    1.7684   29.8199 C.2     1  UNL1        0.0103
     34 C         -27.2084   -0.3247   28.5559 C.2     1  UNL1        0.0142
     35 C         -24.5038    1.1642   27.2788 C.3     1  UNL1        0.1003
     36 C         -23.3954    1.8616   27.3681 C.3     1  UNL1        0.0551
     37 C         -22.6273    0.3125   29.2317 C.3     1  UNL1        0.0554
     38 F         -21.1425    1.6210   27.9416 F       1  UNL1       -0.2372
     39 C         -26.3564    0.7530   28.9837 C.2     1  UNL1        0.0477
     40 C         -24.0484   -0.1170   29.2736 C.3     1  UNL1        0.0811
     41 N         -24.9751    0.7110   28.5387 N.pl3   1  UNL1       -0.3064
     42 C         -29.3298    1.2790   30.2582 C.3     1  UNL1        0.0520
@<TRIPOS>BOND
     1     1     2    1
     2     2     7    1
     3     3     2    2
     4     4     3    1
     5     4     5    2
     6     5     6    1
     7     6     7    2
     8     8     1    1
     9     8     9    1
    10     8    12    1
    11     9    10    1
    12    10    11    1
    13    12    11    1
    14    14    13    1
    15    14    15    1
    16    15    18    2
    17    16    17    1
    18    16    15    1
    19    19    14    2
    20    20    21    2
    21    20    19    1
    22    21    26    1
    23    22    21    1
    24    23    22    1
    25    24    23    1
    26    24    25    1
    27    26    27    1
    28    26    13    2
    29    28    42    1
    30    30    38    1
    31    30    37    1
    32    32    28    2
    33    33    29    2
    34    34    32    1
    35    34    39    2
    36    35    13    1
    37    35    36    1
    38    35    41    1
    39    36    31    1
    40    36    30    1
    41    37    40    1
    42    39    33    1
    43    40     1    1
    44    41    39    1
    45    41    40    1
    46    42    29    1
