@<TRIPOS>MOLECULE
No_2880-gen_results/8p0m/2024-11-27-11-27-31/
 14 15 0 0 0
SMALL
GASTEIGER

@<TRIPOS>ATOM
      1 C         -28.0162   -0.8135   28.8779 C.ar    1  UNL1        0.0369
      2 C         -28.4690   -0.7850   29.8287 C.ar    1  UNL1        0.1391
      3 C         -26.5455   -0.8762   28.8500 C.ar    1  UNL1        0.0031
      4 C         -25.8041   -1.0324   30.0571 C.ar    1  UNL1        0.0002
      5 C         -27.9437   -0.9869   31.2075 C.ar    1  UNL1        0.0369
      6 C         -26.5825   -1.0386   31.2231 C.ar    1  UNL1        0.0031
      7 O         -29.9267   -0.7257   29.8772 O.3     1  UNL1       -0.4706
      8 C         -30.5256    0.4218   30.2407 C.3     1  UNL1        0.2320
      9 C         -31.6092    0.5419   29.9850 C.ar    1  UNL1        0.0212
     10 C         -32.4441   -0.4513   29.3258 C.ar    1  UNL1       -0.0007
     11 C         -33.7457   -0.2592   28.9844 C.ar    1  UNL1       -0.0002
     12 C         -34.3339    0.9878   29.2996 C.ar    1  UNL1       -0.0000
     13 C         -33.6907    1.9813   29.8970 C.ar    1  UNL1       -0.0002
     14 C         -32.3338    1.8161   30.2468 C.ar    1  UNL1       -0.0007
@<TRIPOS>BOND
     1     2     7    1
     2     7     8    1
     3     8     9    1
     4     9    10   ar
     5    10    11   ar
     6    11    12   ar
     7    12    13   ar
     8    13    14   ar
     9    14     9   ar
    10     1     2   ar
    11     2     5   ar
    12     5     6   ar
    13     6     4   ar
    14     4     3   ar
    15     3     1   ar
