@<TRIPOS>MOLECULE
outputs/IAG933/test6/raw/output_2881_IAG933_linker_design_.xyz
 40 43 0 0 0
SMALL
GASTEIGER

@<TRIPOS>ATOM
      1 C         -24.8550   -1.0120   30.1430 C.3     1  UNL1        0.0639
      2 C         -24.9730   -2.5050   29.7880 C.2     1  UNL1       -0.0191
      3 C         -23.9060   -3.1730   29.1460 C.2     1  UNL1       -0.0042
      4 C         -23.9890   -4.5490   28.8530 C.2     1  UNL1       -0.0003
      5 C         -25.1370   -5.2800   29.2050 C.2     1  UNL1       -0.0000
      6 C         -26.2320   -4.6110   29.7840 C.2     1  UNL1       -0.0003
      7 C         -26.1550   -3.2320   30.0650 C.2     1  UNL1       -0.0042
      8 C         -25.3870   -0.6790   31.5710 C.3     1  UNL1        0.0788
      9 C         -25.1890    0.7730   32.0280 C.3     1  UNL1        0.0193
     10 C         -25.3360    0.6840   33.5440 C.3     1  UNL1        0.0202
     11 C         -24.8290   -0.7150   33.9050 C.3     1  UNL1        0.0887
     12 N         -24.7580   -1.4810   32.6460 N.3     1  UNL1       -0.2191
     13 C         -25.6880    1.6140   26.4610 C.2     1  UNL1        0.0452
     14 C         -26.2500    2.9200   26.3950 C.2     1  UNL1        0.0771
     15 C         -25.6420    4.0930   27.1230 C.2     1  UNL1        0.2664
     16 N         -25.6140    5.2520   26.4490 N.am    1  UNL1       -0.1997
     17 C         -25.0260    6.4790   26.9630 C.3     1  UNL1        0.1388
     18 O         -25.1430    3.9660   28.2430 O.2     1  UNL1       -0.2683
     19 C         -27.4380    3.0910   25.6450 C.2     1  UNL1        0.1067
     20 N         -28.0750    2.0890   25.0030 N.2     1  UNL1       -0.2081
     21 C         -27.5430    0.8490   25.0790 C.2     1  UNL1        0.2533
     22 O         -28.1930   -0.2080   24.4770 O.2     1  UNL1       -0.4558
     23 C         -29.4600    0.0050   23.8660 C.3     1  UNL1        0.2426
     24 C         -30.0650   -1.3770   23.5730 C.3     1  UNL1        0.2292
     25 O         -30.7290   -1.8780   24.7210 O.3     1  UNL1       -0.2162
     26 C         -26.3540    0.5760   25.7770 C.2     1  UNL1        0.1936
     27 F         -25.8600   -0.6810   25.7950 F       1  UNL1       -0.1992
     28 N         -20.8437    1.8483   27.7758 N.2     1  UNL1       -0.1224
     29 C         -28.9128    2.3172   29.3658 C.3     1  UNL1        0.0513
     30 O         -28.1701   -1.4280   29.3075 O.2     1  UNL1       -0.2246
     31 C         -27.8237   -0.4892   28.6574 C.2     1  UNL1        0.4214
     32 O         -28.7608    0.3425   28.0237 O.3     1  UNL1       -0.4335
     33 N         -26.5237   -0.2207   28.3468 N.am    1  UNL1       -0.1642
     34 N         -22.7821    0.4548   28.5187 N.pl3   1  UNL1       -0.1893
     35 C         -24.4098    1.2995   27.0182 C.2     1  UNL1        0.0475
     36 C         -29.6185    1.0117   28.9743 C.3     1  UNL1        0.2103
     37 S         -22.9968    1.9856   26.3624 S.3     1  UNL1       -0.0485
     38 C         -24.1484    0.5589   28.2082 C.2     1  UNL1        0.0767
     39 C         -25.2964    0.0269   29.0571 C.3     1  UNL1        0.1419
     40 C         -22.0745    1.3853   27.7134 C.2     1  UNL1        0.2041
@<TRIPOS>BOND
     1     1    39    1
     2     2     7    1
     3     2     1    1
     4     3     2    2
     5     4     3    1
     6     4     5    2
     7     5     6    1
     8     6     7    2
     9     8     1    1
    10     8     9    1
    11     8    12    1
    12     9    10    1
    13    10    11    1
    14    12    11    1
    15    13    35    1
    16    14    13    1
    17    14    15    1
    18    15    18    2
    19    16    17    1
    20    16    15    1
    21    19    14    2
    22    20    21    2
    23    20    19    1
    24    21    26    1
    25    22    21    1
    26    23    22    1
    27    24    23    1
    28    24    25    1
    29    26    27    1
    30    26    13    2
    31    31    30    2
    32    32    31    1
    33    32    36    1
    34    33    31    1
    35    35    38    2
    36    36    29    1
    37    37    35    1
    38    37    40    1
    39    38    34    1
    40    38    39    1
    41    39    33    1
    42    40    28    2
    43    40    34    1
