@<TRIPOS>MOLECULE
outputs/IAG933/test6/raw/output_2882_IAG933_linker_design_.xyz
 43 47 0 0 0
SMALL
GASTEIGER

@<TRIPOS>ATOM
      1 C         -24.8550   -1.0120   30.1430 C.3     1  UNL1        0.1163
      2 C         -24.9730   -2.5050   29.7880 C.2     1  UNL1       -0.0028
      3 C         -23.9060   -3.1730   29.1460 C.2     1  UNL1       -0.0026
      4 C         -23.9890   -4.5490   28.8530 C.2     1  UNL1       -0.0003
      5 C         -25.1370   -5.2800   29.2050 C.2     1  UNL1       -0.0000
      6 C         -26.2320   -4.6110   29.7840 C.2     1  UNL1       -0.0003
      7 C         -26.1550   -3.2320   30.0650 C.2     1  UNL1       -0.0026
      8 C         -25.3870   -0.6790   31.5710 C.3     1  UNL1        0.0952
      9 C         -25.1890    0.7730   32.0280 C.3     1  UNL1        0.0209
     10 C         -25.3360    0.6840   33.5440 C.3     1  UNL1        0.0203
     11 C         -24.8290   -0.7150   33.9050 C.3     1  UNL1        0.0888
     12 N         -24.7580   -1.4810   32.6460 N.3     1  UNL1       -0.2174
     13 C         -25.6880    1.6140   26.4610 C.2     1  UNL1        0.0070
     14 C         -26.2500    2.9200   26.3950 C.2     1  UNL1        0.0527
     15 C         -25.6420    4.0930   27.1230 C.2     1  UNL1        0.2622
     16 N         -25.6140    5.2520   26.4490 N.am    1  UNL1       -0.2000
     17 C         -25.0260    6.4790   26.9630 C.3     1  UNL1        0.1388
     18 O         -25.1430    3.9660   28.2430 O.2     1  UNL1       -0.2687
     19 C         -27.4380    3.0910   25.6450 C.3     1  UNL1        0.1588
     20 N         -28.0750    2.0890   25.0030 N.2     1  UNL1       -0.2341
     21 C         -27.5430    0.8490   25.0790 C.2     1  UNL1        0.2338
     22 O         -28.1930   -0.2080   24.4770 O.2     1  UNL1       -0.4585
     23 C         -29.4600    0.0050   23.8660 C.3     1  UNL1        0.2423
     24 C         -30.0650   -1.3770   23.5730 C.3     1  UNL1        0.2292
     25 O         -30.7290   -1.8780   24.7210 O.3     1  UNL1       -0.2162
     26 C         -26.3540    0.5760   25.7770 C.3     1  UNL1        0.2543
     27 F         -25.8600   -0.6810   25.7950 F       1  UNL1       -0.2227
     28 O         -21.4380    1.5306   27.3200 O.2     1  UNL1       -0.2986
     29 O         -21.3019    2.2698   26.1552 O.3     1  UNL1        0.0285
     30 C         -27.7541    2.2708   30.8933 C.3     1  UNL1        0.1448
     31 C         -24.7820    1.3059   27.3945 C.3     1  UNL1        0.0935
     32 C         -23.4689    1.7199   26.9597 C.2     1  UNL1        0.0277
     33 C         -22.9707    0.5027   28.9886 C.2     1  UNL1        0.2887
     34 C         -28.8421    0.3666   28.8280 C.3     1  UNL1        0.0615
     35 C         -29.7966    1.3015   29.5805 C.3     1  UNL1        0.0078
     36 O         -26.3862   -0.0726   28.5682 O.3     1  UNL1       -0.3130
     37 C         -22.6267    1.2443   27.7838 C.2     1  UNL1        0.2352
     38 O         -22.0604    0.3191   29.7880 O.2     1  UNL1       -0.2664
     39 N         -24.3184   -0.0140   29.2547 N.am    1  UNL1       -0.2473
     40 C         -27.3890    0.7242   29.1365 C.3     1  UNL1        0.2364
     41 O         -27.0577    1.8764   29.6679 O.3     1  UNL1       -0.3305
     42 C         -25.2550    0.5976   28.4602 C.3     1  UNL1        0.2051
     43 C         -29.2347    1.6387   30.9709 C.3     1  UNL1        0.0323
@<TRIPOS>BOND
     1     1     2    1
     2     2     7    1
     3     3     2    2
     4     4     3    1
     5     4     5    2
     6     5     6    1
     7     6     7    2
     8     8     1    1
     9     8     9    1
    10     8    12    1
    11     9    10    1
    12    10    11    1
    13    12    11    1
    14    14    13    2
    15    14    15    1
    16    15    18    2
    17    16    17    1
    18    16    15    1
    19    19    14    1
    20    20    21    2
    21    20    19    1
    22    21    26    1
    23    22    21    1
    24    23    22    1
    25    24    23    1
    26    24    25    1
    27    26    27    1
    28    26    13    1
    29    28    37    1
    30    29    28    1
    31    30    43    1
    32    31    13    1
    33    31    42    1
    34    32    31    1
    35    32    37    2
    36    33    39   am
    37    33    38    2
    38    34    40    1
    39    34    35    1
    40    35    43    1
    41    37    33    1
    42    39     1    1
    43    40    36    1
    44    40    41    1
    45    41    30    1
    46    42    36    1
    47    42    39    1
