@<TRIPOS>MOLECULE
outputs/IAG933/test6/raw/output_2883_IAG933_linker_design_.xyz
 45 48 0 0 0
SMALL
GASTEIGER

@<TRIPOS>ATOM
      1 C         -24.8550   -1.0120   30.1430 C.3     1  UNL1        0.0462
      2 C         -24.9730   -2.5050   29.7880 C.2     1  UNL1       -0.0207
      3 C         -23.9060   -3.1730   29.1460 C.2     1  UNL1       -0.0042
      4 C         -23.9890   -4.5490   28.8530 C.2     1  UNL1       -0.0003
      5 C         -25.1370   -5.2800   29.2050 C.2     1  UNL1       -0.0000
      6 C         -26.2320   -4.6110   29.7840 C.2     1  UNL1       -0.0003
      7 C         -26.1550   -3.2320   30.0650 C.2     1  UNL1       -0.0042
      8 C         -25.3870   -0.6790   31.5710 C.3     1  UNL1        0.1042
      9 C         -25.1890    0.7730   32.0280 C.3     1  UNL1        0.1331
     10 C         -25.3360    0.6840   33.5440 C.3     1  UNL1        0.0498
     11 C         -24.8290   -0.7150   33.9050 C.3     1  UNL1        0.0913
     12 N         -24.7580   -1.4810   32.6460 N.3     1  UNL1       -0.2166
     13 C         -25.6880    1.6140   26.4610 C.2     1  UNL1        0.0407
     14 C         -26.2500    2.9200   26.3950 C.2     1  UNL1        0.0744
     15 C         -25.6420    4.0930   27.1230 C.2     1  UNL1        0.2232
     16 N         -25.6140    5.2520   26.4490 N.2     1  UNL1       -0.2356
     17 C         -25.0260    6.4790   26.9630 C.3     1  UNL1        0.1550
     18 O         -25.1430    3.9660   28.2430 O.2     1  UNL1       -0.4440
     19 C         -27.4380    3.0910   25.6450 C.2     1  UNL1        0.1068
     20 N         -28.0750    2.0890   25.0030 N.2     1  UNL1       -0.2081
     21 C         -27.5430    0.8490   25.0790 C.2     1  UNL1        0.2533
     22 O         -28.1930   -0.2080   24.4770 O.2     1  UNL1       -0.4558
     23 C         -29.4600    0.0050   23.8660 C.3     1  UNL1        0.2426
     24 C         -30.0650   -1.3770   23.5730 C.3     1  UNL1        0.2292
     25 O         -30.7290   -1.8780   24.7210 O.3     1  UNL1       -0.2162
     26 C         -26.3540    0.5760   25.7770 C.2     1  UNL1        0.1931
     27 F         -25.8600   -0.6810   25.7950 F       1  UNL1       -0.1992
     28 O         -25.2258    2.0289   31.4556 O.3     1  UNL1       -0.3494
     29 C         -25.6283    3.5079   29.5779 C.3     1  UNL1        0.2728
     30 F         -20.8880    1.6352   27.9873 F       1  UNL1       -0.0560
     31 C         -27.3957    7.2243   32.8163 C.2     1  UNL1        0.0534
     32 C         -26.1173    5.6191   30.4950 C.3     1  UNL1        0.1202
     33 O         -23.2854    2.2060   28.3738 O.3     1  UNL1       -0.2145
     34 C         -26.4024    6.4514   32.2764 C.2     1  UNL1        0.0069
     35 N         -28.8234    6.5939   30.9356 N.2     1  UNL1       -0.2421
     36 O         -22.3840    1.9530   26.1645 O.3     1  UNL1       -0.0407
     37 C         -28.5350    7.3807   31.9847 C.2     1  UNL1        0.1055
     38 O         -22.5522    0.0423   27.6680 O.3     1  UNL1       -0.0407
     39 C         -27.9086    5.6762   30.5179 C.2     1  UNL1        0.0960
     40 BR        -27.2419    7.8302   34.5629 Br      1  UNL1       -0.0474
     41 S         -22.2218    1.4483   27.5040 S.3     1  UNL1        0.1423
     42 C         -26.7422    5.7498   31.0669 C.2     1  UNL1        0.0150
     43 C         -24.1953    1.4799   29.2191 C.3     1  UNL1        0.2097
     44 C         -24.6937    2.4788   30.2391 C.3     1  UNL1        0.2044
     45 N         -25.6212    4.5100   30.6775 N.3     1  UNL1       -0.1731
@<TRIPOS>BOND
     1     2     7    1
     2     2     1    1
     3     3     2    2
     4     4     3    1
     5     4     5    2
     6     5     6    1
     7     6     7    2
     8     8     1    1
     9     8     9    1
    10     8    12    1
    11     9    28    1
    12     9    10    1
    13    10    11    1
    14    12    11    1
    15    14    13    1
    16    14    15    1
    17    15    18    1
    18    16    17    1
    19    16    15    2
    20    19    14    2
    21    20    21    2
    22    20    19    1
    23    21    26    1
    24    22    21    1
    25    23    22    1
    26    24    23    1
    27    24    25    1
    28    26    27    1
    29    26    13    2
    30    29    18    1
    31    29    44    1
    32    29    45    1
    33    31    40    1
    34    32    45    1
    35    32    42    1
    36    33    43    1
    37    34    31    1
    38    35    37    1
    39    36    41    1
    40    37    31    2
    41    39    35    2
    42    39    42    1
    43    41    38    1
    44    41    30    1
    45    41    33    1
    46    42    34    2
    47    44    43    1
    48    44    28    1
