@<TRIPOS>MOLECULE
outputs/IAG933/test6/raw/output_2884_IAG933_linker_design_.xyz
 47 52 0 0 0
SMALL
GASTEIGER

@<TRIPOS>ATOM
      1 C         -24.8550   -1.0120   30.1430 C.3     1  UNL1        0.0960
      2 C         -24.9730   -2.5050   29.7880 C.2     1  UNL1       -0.0140
      3 C         -23.9060   -3.1730   29.1460 C.2     1  UNL1       -0.0038
      4 C         -23.9890   -4.5490   28.8530 C.2     1  UNL1       -0.0003
      5 C         -25.1370   -5.2800   29.2050 C.2     1  UNL1       -0.0000
      6 C         -26.2320   -4.6110   29.7840 C.2     1  UNL1       -0.0003
      7 C         -26.1550   -3.2320   30.0650 C.2     1  UNL1       -0.0038
      8 C         -25.3870   -0.6790   31.5710 C.3     1  UNL1        0.0840
      9 C         -25.1890    0.7730   32.0280 C.3     1  UNL1        0.0196
     10 C         -25.3360    0.6840   33.5440 C.3     1  UNL1        0.0203
     11 C         -24.8290   -0.7150   33.9050 C.3     1  UNL1        0.0887
     12 N         -24.7580   -1.4810   32.6460 N.3     1  UNL1       -0.2187
     13 C         -25.6880    1.6140   26.4610 C.3     1  UNL1        0.0790
     14 C         -26.2500    2.9200   26.3950 C.2     1  UNL1        0.0553
     15 C         -25.6420    4.0930   27.1230 C.2     1  UNL1        0.2625
     16 N         -25.6140    5.2520   26.4490 N.am    1  UNL1       -0.2000
     17 C         -25.0260    6.4790   26.9630 C.3     1  UNL1        0.1388
     18 O         -25.1430    3.9660   28.2430 O.2     1  UNL1       -0.2687
     19 C         -27.4380    3.0910   25.6450 C.2     1  UNL1        0.1022
     20 N         -28.0750    2.0890   25.0030 N.2     1  UNL1       -0.2119
     21 C         -27.5430    0.8490   25.0790 C.2     1  UNL1        0.2341
     22 O         -28.1930   -0.2080   24.4770 O.2     1  UNL1       -0.4585
     23 C         -29.4600    0.0050   23.8660 C.3     1  UNL1        0.2423
     24 C         -30.0650   -1.3770   23.5730 C.3     1  UNL1        0.2292
     25 O         -30.7290   -1.8780   24.7210 O.3     1  UNL1       -0.2162
     26 C         -26.3540    0.5760   25.7770 C.3     1  UNL1        0.2405
     27 F         -25.8600   -0.6810   25.7950 F       1  UNL1       -0.2269
     28 O         -31.0875    2.4684   29.4201 O.3     1  UNL1       -0.2179
     29 C         -21.7799    1.5667   27.6574 C.3     1  UNL1        0.0440
     30 O         -27.1325    3.3545   30.6561 O.3     1  UNL1       -0.4415
     31 O         -23.2047    0.0796   28.7818 O.2     1  UNL1       -0.4851
     32 C         -23.2218    1.1686   27.5875 C.3     1  UNL1        0.1383
     33 C         -29.9389    1.9652   28.9237 C.3     1  UNL1        0.1842
     34 C         -27.1185    4.5681   31.4015 C.3     1  UNL1        0.2559
     35 C         -22.7175    1.9293   26.2827 C.3     1  UNL1        0.0440
     36 C         -24.7592    1.1856   27.6445 C.3     1  UNL1        0.0844
     37 C         -24.4149   -0.0737   29.2451 C.2     1  UNL1        0.1318
     38 C         -28.9626    0.0441   27.8188 C.3     1  UNL1        0.0486
     39 C         -27.9904    0.6711   28.8736 C.2     1  UNL1        0.0527
     40 C         -28.7118    1.7392   29.5666 C.2     1  UNL1        0.0945
     41 C         -28.3706    2.6526   30.7737 C.2     1  UNL1        0.3407
     42 O         -31.9451   -0.0107   28.5462 O.3     1  UNL1       -0.2203
     43 N         -26.7004    0.2817   29.0180 N.pl3   1  UNL1       -0.2183
     44 C         -30.0679    1.0641   27.6653 C.3     1  UNL1        0.0736
     45 C         -31.4188    0.3931   27.3602 C.3     1  UNL1        0.1853
     46 O         -29.0835    2.6015   31.7409 O.2     1  UNL1       -0.2451
     47 C         -25.4772    0.6008   28.6665 C.2     1  UNL1        0.0812
@<TRIPOS>BOND
     1     1    37    1
     2     2     7    1
     3     2     1    1
     4     3     2    2
     5     4     3    1
     6     4     5    2
     7     5     6    1
     8     6     7    2
     9     8     1    1
    10     8     9    1
    11     8    12    1
    12     9    10    1
    13    10    11    1
    14    12    11    1
    15    13    14    1
    16    13    36    1
    17    14    15    1
    18    15    18    2
    19    16    17    1
    20    16    15    1
    21    19    14    2
    22    20    21    2
    23    20    19    1
    24    21    26    1
    25    22    21    1
    26    23    22    1
    27    24    23    1
    28    24    25    1
    29    26    27    1
    30    26    13    1
    31    30    41    1
    32    30    34    1
    33    31    37    1
    34    32    36    1
    35    32    29    1
    36    32    31    1
    37    33    28    1
    38    33    40    1
    39    35    32    1
    40    35    29    1
    41    36    47    1
    42    38    39    1
    43    39    43    1
    44    39    40    2
    45    40    41    1
    46    41    46    2
    47    44    45    1
    48    44    38    1
    49    44    33    1
    50    45    42    1
    51    47    43    1
    52    47    37    2
