@<TRIPOS>MOLECULE
outputs/IAG933/test6/raw/output_289_IAG933_linker_design_.xyz
 41 44 0 0 0
SMALL
GASTEIGER

@<TRIPOS>ATOM
      1 C         -24.8550   -1.0120   30.1430 C.3     1  UNL1        0.0975
      2 C         -24.9730   -2.5050   29.7880 C.2     1  UNL1       -0.0064
      3 C         -23.9060   -3.1730   29.1460 C.2     1  UNL1       -0.0029
      4 C         -23.9890   -4.5490   28.8530 C.2     1  UNL1       -0.0003
      5 C         -25.1370   -5.2800   29.2050 C.2     1  UNL1       -0.0000
      6 C         -26.2320   -4.6110   29.7840 C.2     1  UNL1       -0.0003
      7 C         -26.1550   -3.2320   30.0650 C.2     1  UNL1       -0.0029
      8 C         -25.3870   -0.6790   31.5710 C.3     1  UNL1        0.0916
      9 C         -25.1890    0.7730   32.0280 C.3     1  UNL1        0.0206
     10 C         -25.3360    0.6840   33.5440 C.3     1  UNL1        0.0203
     11 C         -24.8290   -0.7150   33.9050 C.3     1  UNL1        0.0888
     12 N         -24.7580   -1.4810   32.6460 N.3     1  UNL1       -0.2178
     13 C         -25.6880    1.6140   26.4610 C.2     1  UNL1        0.0889
     14 C         -26.2500    2.9200   26.3950 C.2     1  UNL1        0.0900
     15 C         -25.6420    4.0930   27.1230 C.2     1  UNL1        0.2676
     16 N         -25.6140    5.2520   26.4490 N.am    1  UNL1       -0.1997
     17 C         -25.0260    6.4790   26.9630 C.3     1  UNL1        0.1388
     18 O         -25.1430    3.9660   28.2430 O.2     1  UNL1       -0.2683
     19 C         -27.4380    3.0910   25.6450 C.2     1  UNL1        0.1080
     20 N         -28.0750    2.0890   25.0030 N.2     1  UNL1       -0.2080
     21 C         -27.5430    0.8490   25.0790 C.2     1  UNL1        0.2546
     22 O         -28.1930   -0.2080   24.4770 O.2     1  UNL1       -0.4558
     23 C         -29.4600    0.0050   23.8660 C.3     1  UNL1        0.2426
     24 C         -30.0650   -1.3770   23.5730 C.3     1  UNL1        0.2292
     25 O         -30.7290   -1.8780   24.7210 O.3     1  UNL1       -0.2162
     26 C         -26.3540    0.5760   25.7770 C.2     1  UNL1        0.2063
     27 F         -25.8600   -0.6810   25.7950 F       1  UNL1       -0.1979
     28 C         -26.7929   -0.6046   28.5729 C.3     1  UNL1        0.1074
     29 C         -31.6388    0.7363   29.5216 C.3     1  UNL1        0.1082
     30 S         -30.4401   -0.4420   29.4657 S.3     1  UNL1        0.0285
     31 N         -25.3091   -0.2869   28.9011 N.3     1  UNL1       -0.2521
     32 C         -30.8658   -1.4717   30.7737 C.3     1  UNL1        0.1082
     33 N         -24.4099    1.3122   26.9205 N.pl3   1  UNL1       -0.2686
     34 C         -23.3179    1.5442   25.7026 C.3     1  UNL1        0.2414
     35 O         -28.9817    0.0241   29.6779 O.3     1  UNL1       -0.2927
     36 C         -22.0864    2.0404   27.9034 C.3     1  UNL1        0.1474
     37 O         -30.5190   -1.1273   28.1533 O.3     1  UNL1       -0.1455
     38 C         -28.0459   -0.8283   29.4152 C.3     1  UNL1        0.1760
     39 C         -22.7467    0.8087   28.4485 C.3     1  UNL1        0.0689
     40 O         -22.2370    2.1399   26.2918 O.3     1  UNL1       -0.3342
     41 C         -24.3105    0.6008   28.3680 C.3     1  UNL1        0.1389
@<TRIPOS>BOND
     1     1    31    1
     2     2     7    1
     3     2     1    1
     4     3     2    2
     5     4     3    1
     6     4     5    2
     7     5     6    1
     8     6     7    2
     9     8     1    1
    10     8     9    1
    11     8    12    1
    12     9    10    1
    13    10    11    1
    14    12    11    1
    15    13    33    1
    16    14    13    1
    17    14    15    1
    18    15    18    2
    19    16    17    1
    20    16    15    1
    21    19    14    2
    22    20    21    2
    23    20    19    1
    24    21    26    1
    25    22    21    1
    26    23    22    1
    27    24    23    1
    28    24    25    1
    29    26    27    1
    30    26    13    2
    31    28    31    1
    32    28    38    1
    33    30    29    1
    34    30    35    1
    35    30    32    1
    36    33    41    1
    37    34    40    1
    38    34    33    1
    39    36    39    1
    40    37    30    1
    41    38    35    1
    42    40    36    1
    43    41    39    1
    44    41    31    1
