@<TRIPOS>MOLECULE
outputs/IAG933/test6/raw/output_2890_IAG933_linker_design_.xyz
 46 50 0 0 0
SMALL
GASTEIGER

@<TRIPOS>ATOM
      1 C         -24.8550   -1.0120   30.1430 C.3     1  UNL1        0.0786
      2 C         -24.9730   -2.5050   29.7880 C.2     1  UNL1       -0.0176
      3 C         -23.9060   -3.1730   29.1460 C.2     1  UNL1       -0.0041
      4 C         -23.9890   -4.5490   28.8530 C.2     1  UNL1       -0.0003
      5 C         -25.1370   -5.2800   29.2050 C.2     1  UNL1       -0.0000
      6 C         -26.2320   -4.6110   29.7840 C.2     1  UNL1       -0.0003
      7 C         -26.1550   -3.2320   30.0650 C.2     1  UNL1       -0.0041
      8 C         -25.3870   -0.6790   31.5710 C.3     1  UNL1        0.0803
      9 C         -25.1890    0.7730   32.0280 C.3     1  UNL1        0.0193
     10 C         -25.3360    0.6840   33.5440 C.3     1  UNL1        0.0202
     11 C         -24.8290   -0.7150   33.9050 C.3     1  UNL1        0.0887
     12 N         -24.7580   -1.4810   32.6460 N.3     1  UNL1       -0.2190
     13 C         -25.6880    1.6140   26.4610 C.3     1  UNL1        0.0953
     14 C         -26.2500    2.9200   26.3950 C.2     1  UNL1        0.0590
     15 C         -25.6420    4.0930   27.1230 C.2     1  UNL1        0.2628
     16 N         -25.6140    5.2520   26.4490 N.am    1  UNL1       -0.2000
     17 C         -25.0260    6.4790   26.9630 C.3     1  UNL1        0.1388
     18 O         -25.1430    3.9660   28.2430 O.2     1  UNL1       -0.2686
     19 C         -27.4380    3.0910   25.6450 C.2     1  UNL1        0.1025
     20 N         -28.0750    2.0890   25.0030 N.2     1  UNL1       -0.2118
     21 C         -27.5430    0.8490   25.0790 C.2     1  UNL1        0.2344
     22 O         -28.1930   -0.2080   24.4770 O.2     1  UNL1       -0.4585
     23 C         -29.4600    0.0050   23.8660 C.3     1  UNL1        0.2423
     24 C         -30.0650   -1.3770   23.5730 C.3     1  UNL1        0.2292
     25 O         -30.7290   -1.8780   24.7210 O.3     1  UNL1       -0.2162
     26 C         -26.3540    0.5760   25.7770 C.3     1  UNL1        0.2441
     27 F         -25.8600   -0.6810   25.7950 F       1  UNL1       -0.2265
     28 O         -30.4991   -1.0778   27.5056 O.2     1  UNL1       -0.1686
     29 C         -24.1019    1.6256   26.6838 C.2     1  UNL1        0.0189
     30 C         -29.1885    0.4578   29.1435 C.2     1  UNL1        0.1019
     31 C         -28.1795    2.9724   29.9051 C.2     1  UNL1       -0.0002
     32 C         -23.4584    0.9222   27.6820 C.2     1  UNL1        0.1348
     33 C         -30.0486    1.4798   29.5700 C.2     1  UNL1        0.0180
     34 O         -31.4242   -1.0325   29.3957 O.2     1  UNL1       -0.1686
     35 S         -30.0965   -0.9221   28.9640 S.O2    1  UNL1        0.0102
     36 C         -21.3353    1.7944   26.9803 C.2     1  UNL1        0.0031
     37 C         -27.2652    1.9855   29.4632 C.2     1  UNL1       -0.0029
     38 O         -24.0727   -0.0983   28.1970 O.2     1  UNL1       -0.4787
     39 C         -22.0897    1.1299   27.9601 C.2     1  UNL1        0.0366
     40 C         -23.3409    2.2502   25.7214 C.2     1  UNL1       -0.0009
     41 C         -25.2762   -0.0429   29.0114 C.3     1  UNL1        0.1755
     42 C         -21.9585    2.3504   25.8558 C.2     1  UNL1       -0.0001
     43 C         -27.7492    0.7297   29.0996 C.2     1  UNL1       -0.0015
     44 C         -26.7540   -0.3261   28.7872 C.3     1  UNL1        0.0715
     45 C         -29.5441    2.6832   29.9624 C.2     1  UNL1        0.0013
     46 C         -29.1979   -2.3768   29.3768 C.3     1  UNL1        0.1816
@<TRIPOS>BOND
     1     1    41    1
     2     2     7    1
     3     2     1    1
     4     3     2    2
     5     4     3    1
     6     4     5    2
     7     5     6    1
     8     6     7    2
     9     8     1    1
    10     8     9    1
    11     8    12    1
    12     9    10    1
    13    10    11    1
    14    12    11    1
    15    13    29    1
    16    14    13    1
    17    14    15    1
    18    15    18    2
    19    16    17    1
    20    16    15    1
    21    19    14    2
    22    20    21    2
    23    20    19    1
    24    21    26    1
    25    22    21    1
    26    23    22    1
    27    24    23    1
    28    24    25    1
    29    26    27    1
    30    26    13    1
    31    28    35    2
    32    29    32    1
    33    30    33    1
    34    31    45    1
    35    32    39    2
    36    32    38    1
    37    33    45    2
    38    35    30    1
    39    35    46    1
    40    35    34    2
    41    36    39    1
    42    37    31    2
    43    38    41    1
    44    40    42    1
    45    40    29    2
    46    41    44    1
    47    42    36    2
    48    43    30    2
    49    43    37    1
    50    44    43    1
