@<TRIPOS>MOLECULE
outputs/IAG933/test6/raw/output_2891_IAG933_linker_design_.xyz
 48 52 0 0 0
SMALL
GASTEIGER

@<TRIPOS>ATOM
      1 C         -24.8550   -1.0120   30.1430 C.3     1  UNL1        0.0524
      2 C         -24.9730   -2.5050   29.7880 C.2     1  UNL1       -0.0200
      3 C         -23.9060   -3.1730   29.1460 C.2     1  UNL1       -0.0042
      4 C         -23.9890   -4.5490   28.8530 C.2     1  UNL1       -0.0003
      5 C         -25.1370   -5.2800   29.2050 C.2     1  UNL1       -0.0000
      6 C         -26.2320   -4.6110   29.7840 C.2     1  UNL1       -0.0003
      7 C         -26.1550   -3.2320   30.0650 C.2     1  UNL1       -0.0042
      8 C         -25.3870   -0.6790   31.5710 C.3     1  UNL1        0.0779
      9 C         -25.1890    0.7730   32.0280 C.3     1  UNL1        0.0192
     10 C         -25.3360    0.6840   33.5440 C.3     1  UNL1        0.0202
     11 C         -24.8290   -0.7150   33.9050 C.3     1  UNL1        0.0887
     12 N         -24.7580   -1.4810   32.6460 N.3     1  UNL1       -0.2191
     13 C         -25.6880    1.6140   26.4610 C.2     1  UNL1        0.0408
     14 C         -26.2500    2.9200   26.3950 C.2     1  UNL1        0.0766
     15 C         -25.6420    4.0930   27.1230 C.2     1  UNL1        0.2664
     16 N         -25.6140    5.2520   26.4490 N.am    1  UNL1       -0.1997
     17 C         -25.0260    6.4790   26.9630 C.3     1  UNL1        0.1388
     18 O         -25.1430    3.9660   28.2430 O.2     1  UNL1       -0.2683
     19 C         -27.4380    3.0910   25.6450 C.2     1  UNL1        0.1067
     20 N         -28.0750    2.0890   25.0030 N.2     1  UNL1       -0.2081
     21 C         -27.5430    0.8490   25.0790 C.2     1  UNL1        0.2533
     22 O         -28.1930   -0.2080   24.4770 O.2     1  UNL1       -0.4558
     23 C         -29.4600    0.0050   23.8660 C.3     1  UNL1        0.2426
     24 C         -30.0650   -1.3770   23.5730 C.3     1  UNL1        0.2292
     25 O         -30.7290   -1.8780   24.7210 O.3     1  UNL1       -0.2162
     26 C         -26.3540    0.5760   25.7770 C.2     1  UNL1        0.1931
     27 F         -25.8600   -0.6810   25.7950 F       1  UNL1       -0.1992
     28 C         -25.4015   -0.2322   28.9103 C.3     1  UNL1        0.0752
     29 C         -24.3679    1.2876   27.0003 C.2     1  UNL1        0.0363
     30 N         -20.6768    1.2807   28.3392 N.3     1  UNL1       -0.0818
     31 C         -31.3006   -3.8220   29.8342 C.2     1  UNL1        0.1931
     32 C         -30.3768   -2.7649   31.8671 C.3     1  UNL1        0.1208
     33 O         -22.1870    1.5979   26.6218 O.2     1  UNL1       -0.4540
     34 C         -33.5080   -4.7996   29.9249 C.2     1  UNL1        0.0033
     35 C         -21.9358    1.0957   27.8164 C.3     1  UNL1        0.2803
     36 O         -30.6816   -0.5718   29.8580 O.3     1  UNL1       -0.2027
     37 C         -31.5338   -3.1557   31.0272 C.2     1  UNL1        0.0343
     38 C         -29.4238   -0.8050   30.3612 C.3     1  UNL1        0.2367
     39 C         -32.2242   -4.7880   29.3922 C.2     1  UNL1        0.0417
     40 C         -22.9042    0.4377   28.5293 C.2     1  UNL1        0.0336
     41 C         -23.3385    1.7530   26.2896 C.2     1  UNL1        0.1741
     42 C         -24.2190    0.5623   28.1479 C.2     1  UNL1       -0.0083
     43 O         -30.2195   -3.5246   29.1576 O.2     1  UNL1       -0.2869
     44 N         -29.2772   -1.9378   31.3005 N.3     1  UNL1       -0.1836
     45 C         -28.3262   -0.9962   29.3028 C.3     1  UNL1        0.1091
     46 C         -32.8801   -2.9564   31.3752 C.2     1  UNL1        0.0003
     47 S         -27.1171    0.3140   29.0776 S.3     1  UNL1       -0.1320
     48 C         -33.8512   -3.8176   30.8492 C.2     1  UNL1       -0.0001
@<TRIPOS>BOND
     1     1    28    1
     2     2     7    1
     3     2     1    1
     4     3     2    2
     5     4     3    1
     6     4     5    2
     7     5     6    1
     8     6     7    2
     9     8     1    1
    10     8     9    1
    11     8    12    1
    12     9    10    1
    13    10    11    1
    14    12    11    1
    15    13    29    1
    16    14    13    1
    17    14    15    1
    18    15    18    2
    19    16    17    1
    20    16    15    1
    21    19    14    2
    22    20    21    2
    23    20    19    1
    24    21    26    1
    25    22    21    1
    26    23    22    1
    27    24    23    1
    28    24    25    1
    29    26    27    1
    30    26    13    2
    31    28    47    1
    32    29    42    1
    33    31    37    1
    34    33    35    1
    35    34    48    2
    36    35    30    1
    37    35    40    1
    38    37    46    2
    39    37    32    1
    40    38    36    1
    41    38    44    1
    42    39    31    2
    43    39    34    1
    44    41    33    1
    45    41    29    2
    46    42    40    2
    47    42    28    1
    48    43    31    1
    49    44    32    1
    50    45    38    1
    51    47    45    1
    52    48    46    1
