@<TRIPOS>MOLECULE
outputs/IAG933/test6/raw/output_2897_IAG933_linker_design_.xyz
 41 45 0 0 0
SMALL
GASTEIGER

@<TRIPOS>ATOM
      1 C         -24.8550   -1.0120   30.1430 C.3     1  UNL1        0.1279
      2 C         -24.9730   -2.5050   29.7880 C.2     1  UNL1       -0.0003
      3 C         -23.9060   -3.1730   29.1460 C.2     1  UNL1       -0.0024
      4 C         -23.9890   -4.5490   28.8530 C.2     1  UNL1       -0.0003
      5 C         -25.1370   -5.2800   29.2050 C.2     1  UNL1       -0.0000
      6 C         -26.2320   -4.6110   29.7840 C.2     1  UNL1       -0.0003
      7 C         -26.1550   -3.2320   30.0650 C.2     1  UNL1       -0.0024
      8 C         -25.3870   -0.6790   31.5710 C.3     1  UNL1        0.0978
      9 C         -25.1890    0.7730   32.0280 C.3     1  UNL1        0.0211
     10 C         -25.3360    0.6840   33.5440 C.3     1  UNL1        0.0203
     11 C         -24.8290   -0.7150   33.9050 C.3     1  UNL1        0.0888
     12 N         -24.7580   -1.4810   32.6460 N.3     1  UNL1       -0.2172
     13 C         -25.6880    1.6140   26.4610 C.3     1  UNL1        0.1600
     14 C         -26.2500    2.9200   26.3950 C.2     1  UNL1        0.0758
     15 C         -25.6420    4.0930   27.1230 C.2     1  UNL1        0.2642
     16 N         -25.6140    5.2520   26.4490 N.am    1  UNL1       -0.1999
     17 C         -25.0260    6.4790   26.9630 C.3     1  UNL1        0.1388
     18 O         -25.1430    3.9660   28.2430 O.2     1  UNL1       -0.2686
     19 C         -27.4380    3.0910   25.6450 C.2     1  UNL1        0.1040
     20 N         -28.0750    2.0890   25.0030 N.2     1  UNL1       -0.2117
     21 C         -27.5430    0.8490   25.0790 C.2     1  UNL1        0.2361
     22 O         -28.1930   -0.2080   24.4770 O.2     1  UNL1       -0.4585
     23 C         -29.4600    0.0050   23.8660 C.3     1  UNL1        0.2423
     24 C         -30.0650   -1.3770   23.5730 C.3     1  UNL1        0.2292
     25 O         -30.7290   -1.8780   24.7210 O.3     1  UNL1       -0.2162
     26 C         -26.3540    0.5760   25.7770 C.3     1  UNL1        0.2608
     27 F         -25.8600   -0.6810   25.7950 F       1  UNL1       -0.2248
     28 O         -26.6782   -0.1135   28.6234 O.2     1  UNL1       -0.2463
     29 C         -20.9224   -0.4540   29.2398 C.3     1  UNL1        0.1946
     30 C         -25.4122    0.2030   28.5198 C.ar    1  UNL1        0.3320
     31 N         -24.9275    1.0251   27.5018 N.ar    1  UNL1       -0.2693
     32 C         -21.0554    1.4648   27.6898 C.3     1  UNL1        0.3374
     33 C         -23.7641    1.2063   27.3610 C.ar    1  UNL1        0.1524
     34 O         -21.7304   -0.7886   30.1388 O.3     1  UNL1       -0.2198
     35 O         -21.6632    2.0283   26.6591 O.3     1  UNL1       -0.4155
     36 C         -23.1549    0.4322   28.3954 C.ar    1  UNL1        0.0724
     37 C         -21.6441    0.6042   28.5264 C.3     1  UNL1        0.1480
     38 N         -24.4989   -0.1112   29.1029 N.ar    1  UNL1       -0.2798
     39 F         -19.7532    1.6442   27.8985 F       1  UNL1       -0.1880
     40 C         -22.9578    1.8996   26.4869 C.2     1  UNL1        0.3605
     41 O         -23.5293    2.4182   25.3886 O.2     1  UNL1       -0.2431
@<TRIPOS>BOND
     1     1     2    1
     2     2     7    1
     3     3     2    2
     4     4     3    1
     5     4     5    2
     6     5     6    1
     7     6     7    2
     8     8     1    1
     9     8     9    1
    10     8    12    1
    11     9    10    1
    12    10    11    1
    13    12    11    1
    14    13    31    1
    15    14    13    1
    16    14    15    1
    17    15    18    2
    18    16    17    1
    19    16    15    1
    20    19    14    2
    21    20    21    2
    22    20    19    1
    23    21    26    1
    24    22    21    1
    25    23    22    1
    26    24    23    1
    27    24    25    1
    28    26    27    1
    29    26    13    1
    30    29    34    1
    31    30    28    2
    32    30    38   ar
    33    31    30   ar
    34    32    39    1
    35    32    37    1
    36    33    31   ar
    37    33    36   ar
    38    35    32    1
    39    36    37    1
    40    36    38   ar
    41    37    29    1
    42    38     1    1
    43    40    35    1
    44    40    33    1
    45    41    40    2
