@<TRIPOS>MOLECULE
outputs/IAG933/test6/raw/output_2898_IAG933_linker_design_.xyz
 40 43 0 0 0
SMALL
GASTEIGER

@<TRIPOS>ATOM
      1 C         -24.8550   -1.0120   30.1430 C.3     1  UNL1        0.0984
      2 C         -24.9730   -2.5050   29.7880 C.2     1  UNL1       -0.0064
      3 C         -23.9060   -3.1730   29.1460 C.2     1  UNL1       -0.0029
      4 C         -23.9890   -4.5490   28.8530 C.2     1  UNL1       -0.0003
      5 C         -25.1370   -5.2800   29.2050 C.2     1  UNL1       -0.0000
      6 C         -26.2320   -4.6110   29.7840 C.2     1  UNL1       -0.0003
      7 C         -26.1550   -3.2320   30.0650 C.2     1  UNL1       -0.0029
      8 C         -25.3870   -0.6790   31.5710 C.3     1  UNL1        0.0916
      9 C         -25.1890    0.7730   32.0280 C.3     1  UNL1        0.0206
     10 C         -25.3360    0.6840   33.5440 C.3     1  UNL1        0.0203
     11 C         -24.8290   -0.7150   33.9050 C.3     1  UNL1        0.0888
     12 N         -24.7580   -1.4810   32.6460 N.3     1  UNL1       -0.2178
     13 C         -25.6880    1.6140   26.4610 C.2     1  UNL1        0.0404
     14 C         -26.2500    2.9200   26.3950 C.2     1  UNL1        0.0764
     15 C         -25.6420    4.0930   27.1230 C.2     1  UNL1        0.2664
     16 N         -25.6140    5.2520   26.4490 N.am    1  UNL1       -0.1997
     17 C         -25.0260    6.4790   26.9630 C.3     1  UNL1        0.1388
     18 O         -25.1430    3.9660   28.2430 O.2     1  UNL1       -0.2683
     19 C         -27.4380    3.0910   25.6450 C.2     1  UNL1        0.1067
     20 N         -28.0750    2.0890   25.0030 N.2     1  UNL1       -0.2081
     21 C         -27.5430    0.8490   25.0790 C.2     1  UNL1        0.2533
     22 O         -28.1930   -0.2080   24.4770 O.2     1  UNL1       -0.4558
     23 C         -29.4600    0.0050   23.8660 C.3     1  UNL1        0.2426
     24 C         -30.0650   -1.3770   23.5730 C.3     1  UNL1        0.2292
     25 O         -30.7290   -1.8780   24.7210 O.3     1  UNL1       -0.2162
     26 C         -26.3540    0.5760   25.7770 C.2     1  UNL1        0.1930
     27 F         -25.8600   -0.6810   25.7950 F       1  UNL1       -0.1992
     28 C         -22.8301    2.4301   25.3281 C.2     1  UNL1        0.5564
     29 C         -24.6614    0.7169   28.5958 C.3     1  UNL1        0.2110
     30 C         -22.6218    1.3360   27.1549 C.2     1  UNL1        0.1464
     31 C         -21.8021   -0.0679   29.6792 C.3     1  UNL1        0.0287
     32 C         -23.8624    1.2252   29.6388 C.3     1  UNL1        0.1256
     33 N         -20.4704    1.1695   28.1432 N.3     1  UNL1       -0.1248
     34 O         -23.1930    1.6137   24.5137 O.co2   1  UNL1       -0.1997
     35 C         -24.3281    1.3160   27.1077 C.2     1  UNL1        0.0551
     36 C         -21.7232    0.6111   28.2240 C.3     1  UNL1        0.1487
     37 N         -24.2121   -0.1505   29.1853 N.3     1  UNL1       -0.2391
     38 O         -21.9451    1.8634   26.3080 O.3     1  UNL1       -0.3944
     39 O         -26.1134    0.6683   28.5752 O.3     1  UNL1       -0.2028
     40 O         -22.9172    3.8271   25.2436 O.co2   1  UNL1       -0.1997
@<TRIPOS>BOND
     1     1     2    1
     2     2     7    1
     3     3     2    2
     4     4     3    1
     5     4     5    2
     6     5     6    1
     7     6     7    2
     8     8     1    1
     9     8     9    1
    10     8    12    1
    11     9    10    1
    12    10    11    1
    13    12    11    1
    14    13    35    1
    15    14    13    1
    16    14    15    1
    17    15    18    2
    18    16    17    1
    19    16    15    1
    20    19    14    2
    21    20    21    2
    22    20    19    1
    23    21    26    1
    24    22    21    1
    25    23    22    1
    26    24    23    1
    27    24    25    1
    28    26    27    1
    29    26    13    2
    30    28    38    1
    31    29    39    1
    32    29    37    1
    33    29    32    1
    34    30    36    1
    35    33    36    1
    36    34    28   ar
    37    35    30    2
    38    35    29    1
    39    36    31    1
    40    37    32    1
    41    37     1    1
    42    38    30    1
    43    40    28   ar
