@<TRIPOS>MOLECULE
outputs/IAG933/test6/raw/output_29_IAG933_linker_design_.xyz
 44 47 0 0 0
SMALL
GASTEIGER

@<TRIPOS>ATOM
      1 C         -24.8550   -1.0120   30.1430 C.3     1  UNL1        0.0697
      2 C         -24.9730   -2.5050   29.7880 C.2     1  UNL1       -0.0184
      3 C         -23.9060   -3.1730   29.1460 C.2     1  UNL1       -0.0041
      4 C         -23.9890   -4.5490   28.8530 C.2     1  UNL1       -0.0003
      5 C         -25.1370   -5.2800   29.2050 C.2     1  UNL1       -0.0000
      6 C         -26.2320   -4.6110   29.7840 C.2     1  UNL1       -0.0003
      7 C         -26.1550   -3.2320   30.0650 C.2     1  UNL1       -0.0041
      8 C         -25.3870   -0.6790   31.5710 C.3     1  UNL1        0.0795
      9 C         -25.1890    0.7730   32.0280 C.3     1  UNL1        0.0193
     10 C         -25.3360    0.6840   33.5440 C.3     1  UNL1        0.0202
     11 C         -24.8290   -0.7150   33.9050 C.3     1  UNL1        0.0887
     12 N         -24.7580   -1.4810   32.6460 N.3     1  UNL1       -0.2190
     13 C         -25.6880    1.6140   26.4610 C.2     1  UNL1        0.0384
     14 C         -26.2500    2.9200   26.3950 C.2     1  UNL1        0.0765
     15 C         -25.6420    4.0930   27.1230 C.2     1  UNL1        0.2664
     16 N         -25.6140    5.2520   26.4490 N.am    1  UNL1       -0.1997
     17 C         -25.0260    6.4790   26.9630 C.3     1  UNL1        0.1388
     18 O         -25.1430    3.9660   28.2430 O.2     1  UNL1       -0.2683
     19 C         -27.4380    3.0910   25.6450 C.2     1  UNL1        0.1067
     20 N         -28.0750    2.0890   25.0030 N.2     1  UNL1       -0.2081
     21 C         -27.5430    0.8490   25.0790 C.2     1  UNL1        0.2533
     22 O         -28.1930   -0.2080   24.4770 O.2     1  UNL1       -0.4558
     23 C         -29.4600    0.0050   23.8660 C.3     1  UNL1        0.2426
     24 C         -30.0650   -1.3770   23.5730 C.3     1  UNL1        0.2292
     25 O         -30.7290   -1.8780   24.7210 O.3     1  UNL1       -0.2162
     26 C         -26.3540    0.5760   25.7770 C.2     1  UNL1        0.1931
     27 F         -25.8600   -0.6810   25.7950 F       1  UNL1       -0.1992
     28 C         -23.1823    1.5690   26.7752 C.2     1  UNL1        0.0716
     29 C         -24.5238    1.2568   27.1619 C.2     1  UNL1        0.0101
     30 O         -29.6013   -1.1913   30.2057 O.2     1  UNL1       -0.2706
     31 C         -24.3682    0.4707   28.3901 C.2     1  UNL1        0.0043
     32 CL        -22.7794    2.3592   25.3807 Cl      1  UNL1       -0.0838
     33 C         -29.0794   -0.4539   29.3674 C.2     1  UNL1        0.2721
     34 C         -31.6446   -0.0779   27.6558 C.2     1  UNL1        0.3865
     35 N         -29.6464    0.6612   28.8956 N.am    1  UNL1       -0.1910
     36 O         -31.7420   -1.2494   27.8765 O.co2   1  UNL1       -0.2437
     37 O         -31.6567    0.4928   26.5872 O.co2   1  UNL1       -0.2437
     38 C         -31.1284    0.7116   28.8683 C.3     1  UNL1        0.2285
     39 F         -20.8792    1.2542   27.6329 F       1  UNL1       -0.2266
     40 C         -22.1859    1.0472   27.7439 C.3     1  UNL1        0.2155
     41 C         -22.9682    0.2616   28.6907 C.2     1  UNL1        0.0120
     42 C         -25.4447   -0.0797   29.1449 C.3     1  UNL1        0.1431
     43 C         -27.8905   -0.6281   28.6748 C.3     1  UNL1        0.2289
     44 O         -26.7998    0.0375   28.5018 O.3     1  UNL1       -0.3420
@<TRIPOS>BOND
     1     1    42    1
     2     2     7    1
     3     2     1    1
     4     3     2    2
     5     4     3    1
     6     4     5    2
     7     5     6    1
     8     6     7    2
     9     8     1    1
    10     8     9    1
    11     8    12    1
    12     9    10    1
    13    10    11    1
    14    12    11    1
    15    13    29    1
    16    14    13    1
    17    14    15    1
    18    15    18    2
    19    16    17    1
    20    16    15    1
    21    19    14    2
    22    20    21    2
    23    20    19    1
    24    21    26    1
    25    22    21    1
    26    23    22    1
    27    24    23    1
    28    24    25    1
    29    26    27    1
    30    26    13    2
    31    28    29    2
    32    28    40    1
    33    29    31    1
    34    31    41    2
    35    31    42    1
    36    32    28    1
    37    33    30    2
    38    34    36   ar
    39    34    38    1
    40    35    33    1
    41    37    34   ar
    42    38    35    1
    43    40    39    1
    44    40    41    1
    45    42    44    1
    46    43    33    1
    47    44    43    1
