@<TRIPOS>MOLECULE
No_2901-gen_results/8p0m/2024-11-27-11-27-31/
 13 13 0 0 0
SMALL
GASTEIGER

@<TRIPOS>ATOM
      1 C         -28.0162   -0.8135   28.8779 C.ar    1  UNL1        0.0046
      2 C         -28.4690   -0.7850   29.8287 C.ar    1  UNL1        0.0001
      3 C         -27.1356    0.2359   28.5352 C.ar    1  UNL1        0.0554
      4 C         -26.8745    1.2825   29.3982 C.ar    1  UNL1        0.0046
      5 C         -28.3613    0.1987   30.9244 C.ar    1  UNL1        0.0000
      6 C         -27.5277    1.2234   30.6356 C.ar    1  UNL1        0.0001
      7 C         -26.3879    0.2914   27.2334 C.2     1  UNL1        0.2690
      8 N         -25.3397    0.0456   27.1370 N.am    1  UNL1       -0.1745
      9 O         -27.1078    0.5721   26.1727 O.2     1  UNL1       -0.2680
     10 C         -24.3207    0.5932   26.8848 C.2     1  UNL1        0.0844
     11 C         -23.1894    0.8717   27.8336 C.2     1  UNL1       -0.0082
     12 C         -22.0883    1.6623   27.4739 C.3     1  UNL1        0.0274
     13 C         -21.0808    1.7679   28.4773 C.3     1  UNL1        0.0051
@<TRIPOS>BOND
     1     3     7    1
     2     7     8   am
     3     7     9    2
     4     8    10    1
     5    10    11    2
     6    11    12    1
     7    12    13    1
     8     1     2   ar
     9     2     5   ar
    10     5     6   ar
    11     6     4   ar
    12     4     3   ar
    13     3     1   ar
