@<TRIPOS>MOLECULE
No_2903-gen_results/8p0m/2024-11-27-11-27-31/
 13 13 0 0 0
SMALL
GASTEIGER

@<TRIPOS>ATOM
      1 C         -28.0162   -0.8135   28.8779 C.ar    1  UNL1        0.0104
      2 C         -28.4690   -0.7850   29.8287 C.ar    1  UNL1        0.0797
      3 C         -26.5042   -0.7777   28.8766 C.ar    1  UNL1        0.0716
      4 C         -25.6540   -0.6597   27.7191 C.3     1  UNL1        0.4186
      5 C         -27.9180   -0.9374   31.1824 C.ar    1  UNL1        0.0066
      6 C         -26.5424   -0.9399   31.2606 C.ar    1  UNL1        0.0002
      7 C         -25.7832   -0.8935   30.1201 C.ar    1  UNL1        0.0039
      8 F         -26.1510   -0.9708   26.7104 F       1  UNL1       -0.1659
      9 F         -25.1535    0.6953   27.5918 F       1  UNL1       -0.1659
     10 F         -24.3743   -1.3477   27.8941 F       1  UNL1       -0.1659
     11 C         -30.0510   -0.8068   29.8822 C.2     1  UNL1        0.3877
     12 O         -30.6630   -0.0092   30.7225 O.co2   1  UNL1       -0.2406
     13 O         -30.6615   -1.4466   29.0494 O.co2   1  UNL1       -0.2406
@<TRIPOS>BOND
     1     3     4    1
     2     4     8    1
     3     4     9    1
     4     4    10    1
     5     2    11    1
     6    11    12   ar
     7    11    13   ar
     8     1     2   ar
     9     2     5   ar
    10     5     6   ar
    11     6     7   ar
    12     7     3   ar
    13     3     1   ar
