@<TRIPOS>MOLECULE
outputs/IAG933/test6/raw/output_2906_IAG933_linker_design_.xyz
 46 50 0 0 0
SMALL
GASTEIGER

@<TRIPOS>ATOM
      1 C         -24.8550   -1.0120   30.1430 C.3     1  UNL1        0.0787
      2 C         -24.9730   -2.5050   29.7880 C.2     1  UNL1       -0.0155
      3 C         -23.9060   -3.1730   29.1460 C.2     1  UNL1       -0.0039
      4 C         -23.9890   -4.5490   28.8530 C.2     1  UNL1       -0.0003
      5 C         -25.1370   -5.2800   29.2050 C.2     1  UNL1       -0.0000
      6 C         -26.2320   -4.6110   29.7840 C.2     1  UNL1       -0.0003
      7 C         -26.1550   -3.2320   30.0650 C.2     1  UNL1       -0.0039
      8 C         -25.3870   -0.6790   31.5710 C.3     1  UNL1        0.0824
      9 C         -25.1890    0.7730   32.0280 C.3     1  UNL1        0.0196
     10 C         -25.3360    0.6840   33.5440 C.3     1  UNL1        0.0203
     11 C         -24.8290   -0.7150   33.9050 C.3     1  UNL1        0.0887
     12 N         -24.7580   -1.4810   32.6460 N.3     1  UNL1       -0.2187
     13 C         -25.6880    1.6140   26.4610 C.3     1  UNL1        0.1080
     14 C         -26.2500    2.9200   26.3950 C.2     1  UNL1        0.0603
     15 C         -25.6420    4.0930   27.1230 C.2     1  UNL1        0.2628
     16 N         -25.6140    5.2520   26.4490 N.am    1  UNL1       -0.2000
     17 C         -25.0260    6.4790   26.9630 C.3     1  UNL1        0.1388
     18 O         -25.1430    3.9660   28.2430 O.2     1  UNL1       -0.2686
     19 C         -27.4380    3.0910   25.6450 C.2     1  UNL1        0.1025
     20 N         -28.0750    2.0890   25.0030 N.2     1  UNL1       -0.2118
     21 C         -27.5430    0.8490   25.0790 C.2     1  UNL1        0.2345
     22 O         -28.1930   -0.2080   24.4770 O.2     1  UNL1       -0.4585
     23 C         -29.4600    0.0050   23.8660 C.3     1  UNL1        0.2423
     24 C         -30.0650   -1.3770   23.5730 C.3     1  UNL1        0.2292
     25 O         -30.7290   -1.8780   24.7210 O.3     1  UNL1       -0.2162
     26 C         -26.3540    0.5760   25.7770 C.3     1  UNL1        0.2454
     27 F         -25.8600   -0.6810   25.7950 F       1  UNL1       -0.2265
     28 C         -23.2270    0.2397   28.9865 C.ar    1  UNL1        0.1503
     29 C         -29.0514    1.6816   30.2073 C.3     1  UNL1        0.0465
     30 N         -25.4793    0.4156   28.5479 N.ar    1  UNL1       -0.3277
     31 C         -23.3543    1.1314   27.6704 C.ar    1  UNL1        0.0348
     32 C         -30.6182   -1.4260   29.3167 C.3     1  UNL1        0.1344
     33 C         -28.5308   -1.8291   30.3243 C.3     1  UNL1        0.0989
     34 C         -24.8235    1.1261   27.4949 C.ar    1  UNL1        0.0436
     35 N         -30.1325   -0.2698   28.9150 N.pl3   1  UNL1       -0.2982
     36 N         -29.8452   -2.1292   30.1525 N.3     1  UNL1       -0.2532
     37 C         -29.0684    0.3052   29.5630 C.2     1  UNL1        0.0213
     38 C         -26.8193   -0.1630   28.8602 C.3     1  UNL1        0.1302
     39 CL        -22.6789    2.2157   25.9553 Cl      1  UNL1       -0.1084
     40 C         -30.5371    0.2616   27.6489 C.3     1  UNL1        0.1130
     41 C         -30.4690   -3.2265   30.9429 C.3     1  UNL1        0.0912
     42 C         -28.0519   -0.6182   29.7114 C.2     1  UNL1        0.0035
     43 C         -21.9650    1.5520   27.3042 C.3     1  UNL1        0.1245
     44 F         -22.2316    0.1619   29.7025 F       1  UNL1       -0.2032
     45 C         -24.5672    0.0100   29.1618 C.ar    1  UNL1        0.0695
     46 C         -31.9535   -1.8911   28.7916 C.3     1  UNL1        0.0399
@<TRIPOS>BOND
     1     1    45    1
     2     2     7    1
     3     2     1    1
     4     3     2    2
     5     4     3    1
     6     4     5    2
     7     5     6    1
     8     6     7    2
     9     8     1    1
    10     8     9    1
    11     8    12    1
    12     9    10    1
    13    10    11    1
    14    12    11    1
    15    13    34    1
    16    14    13    1
    17    14    15    1
    18    15    18    2
    19    16    17    1
    20    16    15    1
    21    19    14    2
    22    20    21    2
    23    20    19    1
    24    21    26    1
    25    22    21    1
    26    23    22    1
    27    24    23    1
    28    24    25    1
    29    26    27    1
    30    26    13    1
    31    28    45   ar
    32    28    44    1
    33    30    38    1
    34    30    45   ar
    35    31    28   ar
    36    32    46    1
    37    32    36    1
    38    34    31   ar
    39    34    30   ar
    40    35    32    1
    41    35    37    1
    42    36    33    1
    43    36    41    1
    44    37    42    2
    45    37    29    1
    46    38    42    1
    47    39    43    1
    48    40    35    1
    49    42    33    1
    50    43    31    1
