@<TRIPOS>MOLECULE
outputs/IAG933/test6/raw/output_2907_IAG933_linker_design_.xyz
 46 50 0 0 0
SMALL
GASTEIGER

@<TRIPOS>ATOM
      1 C         -24.8550   -1.0120   30.1430 C.3     1  UNL1        0.0696
      2 C         -24.9730   -2.5050   29.7880 C.2     1  UNL1       -0.0185
      3 C         -23.9060   -3.1730   29.1460 C.2     1  UNL1       -0.0041
      4 C         -23.9890   -4.5490   28.8530 C.2     1  UNL1       -0.0003
      5 C         -25.1370   -5.2800   29.2050 C.2     1  UNL1       -0.0000
      6 C         -26.2320   -4.6110   29.7840 C.2     1  UNL1       -0.0003
      7 C         -26.1550   -3.2320   30.0650 C.2     1  UNL1       -0.0041
      8 C         -25.3870   -0.6790   31.5710 C.3     1  UNL1        0.0795
      9 C         -25.1890    0.7730   32.0280 C.3     1  UNL1        0.0193
     10 C         -25.3360    0.6840   33.5440 C.3     1  UNL1        0.0202
     11 C         -24.8290   -0.7150   33.9050 C.3     1  UNL1        0.0887
     12 N         -24.7580   -1.4810   32.6460 N.3     1  UNL1       -0.2190
     13 C         -25.6880    1.6140   26.4610 C.2     1  UNL1        0.0386
     14 C         -26.2500    2.9200   26.3950 C.2     1  UNL1        0.0766
     15 C         -25.6420    4.0930   27.1230 C.2     1  UNL1        0.2664
     16 N         -25.6140    5.2520   26.4490 N.am    1  UNL1       -0.1997
     17 C         -25.0260    6.4790   26.9630 C.3     1  UNL1        0.1388
     18 O         -25.1430    3.9660   28.2430 O.2     1  UNL1       -0.2683
     19 C         -27.4380    3.0910   25.6450 C.2     1  UNL1        0.1067
     20 N         -28.0750    2.0890   25.0030 N.2     1  UNL1       -0.2081
     21 C         -27.5430    0.8490   25.0790 C.2     1  UNL1        0.2533
     22 O         -28.1930   -0.2080   24.4770 O.2     1  UNL1       -0.4558
     23 C         -29.4600    0.0050   23.8660 C.3     1  UNL1        0.2426
     24 C         -30.0650   -1.3770   23.5730 C.3     1  UNL1        0.2292
     25 O         -30.7290   -1.8780   24.7210 O.3     1  UNL1       -0.2162
     26 C         -26.3540    0.5760   25.7770 C.2     1  UNL1        0.1931
     27 F         -25.8600   -0.6810   25.7950 F       1  UNL1       -0.1992
     28 C         -24.0049    0.4529   28.2925 C.2     1  UNL1        0.0420
     29 C         -22.6544    0.2601   28.7625 C.3     1  UNL1        0.2791
     30 O         -21.7373    0.8001   28.1508 O.2     1  UNL1       -0.4533
     31 O         -26.2875    0.5941   29.0125 O.3     1  UNL1       -0.3321
     32 C         -24.2967    1.2553   27.1026 C.2     1  UNL1        0.0153
     33 C         -29.8101    3.7329   29.5961 C.3     1  UNL1        0.0023
     34 C         -28.6950    3.0412   30.4407 C.3     1  UNL1        0.0216
     35 C         -21.8601    1.5930   27.1974 C.2     1  UNL1        0.1856
     36 N         -28.1630    1.4284   28.8388 N.am    1  UNL1       -0.2542
     37 C         -23.0524    1.8114   26.5364 C.2     1  UNL1        0.0943
     38 C         -27.5206    2.6750   29.5475 C.3     1  UNL1        0.0957
     39 C         -25.1758   -0.2484   28.8377 C.3     1  UNL1        0.1456
     40 C         -30.5691    1.7291   28.1505 C.3     1  UNL1        0.0853
     41 CL        -22.8816    2.5589   24.9823 Cl      1  UNL1       -0.0790
     42 C         -27.5833    0.3172   29.5643 C.3     1  UNL1        0.2427
     43 O         -29.3276   -0.2226   27.7810 O.2     1  UNL1       -0.2748
     44 C         -30.2624    3.2360   28.2037 C.3     1  UNL1        0.0096
     45 N         -22.2712   -0.5345   29.8069 N.3     1  UNL1       -0.0820
     46 C         -29.3367    0.9330   28.1681 C.2     1  UNL1        0.2274
@<TRIPOS>BOND
     1     1    39    1
     2     2     7    1
     3     2     1    1
     4     3     2    2
     5     4     3    1
     6     4     5    2
     7     5     6    1
     8     6     7    2
     9     8     1    1
    10     8     9    1
    11     8    12    1
    12     9    10    1
    13    10    11    1
    14    12    11    1
    15    13    32    1
    16    14    13    1
    17    14    15    1
    18    15    18    2
    19    16    17    1
    20    16    15    1
    21    19    14    2
    22    20    21    2
    23    20    19    1
    24    21    26    1
    25    22    21    1
    26    23    22    1
    27    24    23    1
    28    24    25    1
    29    26    27    1
    30    26    13    2
    31    28    29    1
    32    28    39    1
    33    29    45    1
    34    30    29    1
    35    31    42    1
    36    32    28    2
    37    33    34    1
    38    35    30    1
    39    36    38    1
    40    36    42    1
    41    37    32    1
    42    37    35    2
    43    38    34    1
    44    39    31    1
    45    40    46    1
    46    40    44    1
    47    41    37    1
    48    43    46    2
    49    44    33    1
    50    46    36   am
