@<TRIPOS>MOLECULE
No_2911-gen_results/8p0m/2024-11-27-11-27-31/
 10 10 0 0 0
SMALL
GASTEIGER

@<TRIPOS>ATOM
      1 C         -28.0162   -0.8135   28.8779 C.3     1  UNL1        0.1356
      2 C         -27.0636   -0.1190   28.6079 C.ar    1  UNL1       -0.0032
      3 C         -26.9716    0.7139   27.5060 C.ar    1  UNL1       -0.0028
      4 C         -25.8205    1.4909   27.1160 C.ar    1  UNL1        0.0013
      5 C         -24.6562    1.4242   27.9180 C.ar    1  UNL1        0.0209
      6 C         -24.6847    0.5901   29.0659 C.ar    1  UNL1        0.0013
      7 C         -25.8099   -0.1266   29.3338 C.ar    1  UNL1       -0.0028
      8 N         -28.7097   -0.5805   30.0246 N.3     1  UNL1       -0.1262
      9 C         -23.4637    2.1746   27.6094 C.2     1  UNL1        0.1221
     10 N         -22.5061    2.2027   28.5118 N.2     1  UNL1       -0.1464
@<TRIPOS>BOND
     1     1     8    1
     2     5     9    1
     3     9    10    2
     4     1     2    1
     5     2     3   ar
     6     3     4   ar
     7     4     5   ar
     8     5     6   ar
     9     6     7   ar
    10     7     2   ar
