@<TRIPOS>MOLECULE
No_2912-gen_results/8p0m/2024-11-27-11-27-31/
 20 20 0 0 0
SMALL
GASTEIGER

@<TRIPOS>ATOM
      1 C         -28.0162   -0.8135   28.8779 C.ar    1  UNL1        0.0084
      2 C         -28.4690   -0.7850   29.8287 C.ar    1  UNL1        0.0539
      3 C         -27.0871    0.2903   28.6377 C.ar    1  UNL1        0.0716
      4 C         -26.2516    0.4114   27.4223 C.3     1  UNL1        0.4186
      5 C         -28.3913    0.1041   30.9805 C.ar    1  UNL1        0.0045
      6 C         -27.5332    1.1666   30.7866 C.ar    1  UNL1        0.0001
      7 C         -26.8281    1.2557   29.6454 C.ar    1  UNL1        0.0039
      8 F         -26.2893   -0.3208   26.7008 F       1  UNL1       -0.1659
      9 F         -26.4501    1.7036   26.8785 F       1  UNL1       -0.1659
     10 F         -24.8206    0.5393   27.7856 F       1  UNL1       -0.1659
     11 C         -29.4616   -2.0181   30.2134 C.2     1  UNL1        0.2528
     12 O         -29.0571   -3.1828   30.3946 O.2     1  UNL1       -0.2696
     13 N         -30.7605   -1.7890   30.3323 N.am    1  UNL1       -0.2525
     14 C         -31.6978   -2.8201   30.5853 C.3     1  UNL1        0.1204
     15 C         -31.3116   -0.4413   30.1366 C.2     1  UNL1        0.0636
     16 C         -32.3206   -0.5050   29.1926 C.2     1  UNL1       -0.0053
     17 C         -32.1551   -0.4218   27.9929 C.3     1  UNL1        0.0530
     18 C         -33.1685   -0.4951   26.9824 C.2     1  UNL1       -0.0259
     19 C         -34.4227   -0.6423   27.4282 C.2     1  UNL1       -0.0300
     20 C         -34.6739   -0.7019   28.7906 C.3     1  UNL1        0.0304
@<TRIPOS>BOND
     1     3     4    1
     2     4     8    1
     3     4     9    1
     4     4    10    1
     5     2    11    1
     6    11    12    2
     7    11    13   am
     8    13    14    1
     9    13    15    1
    10    15    16    2
    11    16    17    1
    12    17    18    1
    13    18    19    2
    14    19    20    1
    15     1     2   ar
    16     2     5   ar
    17     5     6   ar
    18     6     7   ar
    19     7     3   ar
    20     3     1   ar
