@<TRIPOS>MOLECULE
No_2913-gen_results/8p0m/2024-11-27-11-27-31/
 21 23 0 0 0
SMALL
GASTEIGER

@<TRIPOS>ATOM
      1 C         -28.0162   -0.8135   28.8779 C.3     1  UNL1        0.0014
      2 C         -28.4690   -0.7850   29.8287 C.3     1  UNL1        0.0160
      3 C         -26.5042   -0.7777   28.8766 C.3     1  UNL1        0.0001
      4 C         -25.8305   -1.6807   29.6849 C.3     1  UNL1        0.0013
      5 C         -28.1490   -1.8854   30.9031 C.3     1  UNL1        0.0575
      6 C         -26.6460   -1.9561   31.0330 C.3     1  UNL1        0.0160
      7 N         -28.6859   -1.7556   32.2030 N.3     1  UNL1       -0.2740
      8 C         -28.7026   -0.7372   32.8995 C.3     1  UNL1        0.0720
      9 C         -29.2113   -0.8001   34.1949 C.3     1  UNL1        0.0174
     10 C         -29.5827   -2.9222   32.6162 C.3     1  UNL1        0.0720
     11 C         -30.0532   -2.9487   33.9203 C.3     1  UNL1        0.0174
     12 C         -29.9731   -1.8201   34.6979 C.3     1  UNL1        0.0029
     13 C         -24.4246   -1.3244   29.9909 C.3     1  UNL1        0.0001
     14 C         -24.0951   -0.5957   31.0691 C.3     1  UNL1        0.0025
     15 C         -23.3096    0.5540   30.8578 C.3     1  UNL1        0.0299
     16 C         -24.0094    1.7904   30.8030 C.3     1  UNL1        0.1200
     17 O         -24.5051    2.2530   31.8952 O.3     1  UNL1       -0.3512
     18 C         -25.7639    2.9027   31.9223 C.3     1  UNL1        0.1679
     19 C         -26.3727    2.9605   30.8745 C.2     1  UNL1        0.0012
     20 C         -25.7943    2.6241   29.6402 C.2     1  UNL1       -0.0257
     21 C         -24.4608    2.2465   29.5789 C.3     1  UNL1        0.0553
@<TRIPOS>BOND
     1     1     2    1
     2     1     3    1
     3     3     4    1
     4     2     5    1
     5     4     6    1
     6     5     6    1
     7     5     7    1
     8     7     8    1
     9     7    10    1
    10     9    12    1
    11    11    12    1
    12     4    13    1
    13    13    14    1
    14    14    15    1
    15    15    16    1
    16    16    17    1
    17    17    18    1
    18    18    19    1
    19    19    20    2
    20    16    21    1
    21    20    21    1
    22     8     9    1
    23    11    10    1
