@<TRIPOS>MOLECULE
outputs/IAG933/test6/raw/output_2914_IAG933_linker_design_.xyz
 49 53 0 0 0
SMALL
GASTEIGER

@<TRIPOS>ATOM
      1 C         -24.8550   -1.0120   30.1430 C.3     1  UNL1        0.1365
      2 C         -24.9730   -2.5050   29.7880 C.2     1  UNL1       -0.0011
      3 C         -23.9060   -3.1730   29.1460 C.2     1  UNL1       -0.0026
      4 C         -23.9890   -4.5490   28.8530 C.2     1  UNL1       -0.0003
      5 C         -25.1370   -5.2800   29.2050 C.2     1  UNL1       -0.0000
      6 C         -26.2320   -4.6110   29.7840 C.2     1  UNL1       -0.0003
      7 C         -26.1550   -3.2320   30.0650 C.2     1  UNL1       -0.0026
      8 C         -25.3870   -0.6790   31.5710 C.3     1  UNL1        0.0970
      9 C         -25.1890    0.7730   32.0280 C.3     1  UNL1        0.0210
     10 C         -25.3360    0.6840   33.5440 C.3     1  UNL1        0.0203
     11 C         -24.8290   -0.7150   33.9050 C.3     1  UNL1        0.0888
     12 N         -24.7580   -1.4810   32.6460 N.3     1  UNL1       -0.2174
     13 C         -25.6880    1.6140   26.4610 C.3     1  UNL1        0.0945
     14 C         -26.2500    2.9200   26.3950 C.2     1  UNL1        0.0590
     15 C         -25.6420    4.0930   27.1230 C.2     1  UNL1        0.2628
     16 N         -25.6140    5.2520   26.4490 N.am    1  UNL1       -0.2000
     17 C         -25.0260    6.4790   26.9630 C.3     1  UNL1        0.1388
     18 O         -25.1430    3.9660   28.2430 O.2     1  UNL1       -0.2686
     19 C         -27.4380    3.0910   25.6450 C.2     1  UNL1        0.1025
     20 N         -28.0750    2.0890   25.0030 N.2     1  UNL1       -0.2118
     21 C         -27.5430    0.8490   25.0790 C.2     1  UNL1        0.2344
     22 O         -28.1930   -0.2080   24.4770 O.2     1  UNL1       -0.4585
     23 C         -29.4600    0.0050   23.8660 C.3     1  UNL1        0.2423
     24 C         -30.0650   -1.3770   23.5730 C.3     1  UNL1        0.2292
     25 O         -30.7290   -1.8780   24.7210 O.3     1  UNL1       -0.2162
     26 C         -26.3540    0.5760   25.7770 C.3     1  UNL1        0.2441
     27 F         -25.8600   -0.6810   25.7950 F       1  UNL1       -0.2265
     28 O         -30.5131   -0.2603   27.8683 O.3     1  UNL1       -0.3313
     29 C         -27.0949    0.0623   29.1470 C.2     1  UNL1        0.3303
     30 C         -22.5002    0.6510   28.5313 C.2     1  UNL1        0.1564
     31 C         -29.9361   -4.3288   30.7442 C.2     1  UNL1        0.0001
     32 C         -29.2619   -3.3529   31.5089 C.2     1  UNL1        0.0013
     33 C         -22.8495    1.9997   26.2482 C.2     1  UNL1        0.0555
     34 N         -25.6657   -0.1292   29.1700 N.am    1  UNL1       -0.1700
     35 C         -29.9976   -2.7522   28.8112 C.2     1  UNL1        0.0150
     36 C         -21.3864    1.2143   27.9721 C.2     1  UNL1        0.0319
     37 N         -28.4728   -0.6134   28.9376 N.am    1  UNL1       -0.2155
     38 N         -24.9297    0.7070   28.6617 N.pl3   1  UNL1       -0.1412
     39 C         -21.5665    1.9204   26.7995 C.2     1  UNL1        0.0135
     40 O         -27.3623    1.1490   29.4498 O.2     1  UNL1       -0.2503
     41 CL        -22.9531    2.8227   24.7973 Cl      1  UNL1       -0.0825
     42 C         -24.0678    1.4632   26.8215 C.2     1  UNL1        0.0144
     43 C         -30.4004   -3.9834   29.4498 C.2     1  UNL1        0.0013
     44 C         -29.2250   -1.7811   29.5602 C.2     1  UNL1        0.0576
     45 C         -28.9941   -2.0882   30.9466 C.2     1  UNL1        0.0150
     46 C         -29.2754    0.1272   27.9587 C.3     1  UNL1        0.2479
     47 C         -31.3699    0.6530   27.1877 C.3     1  UNL1        0.1762
     48 C         -23.8230    0.8877   28.0622 C.2     1  UNL1        0.1121
     49 F         -22.2955   -0.1884   29.6297 F       1  UNL1       -0.2028
@<TRIPOS>BOND
     1     1    34    1
     2     2     7    1
     3     2     1    1
     4     3     2    2
     5     4     3    1
     6     4     5    2
     7     5     6    1
     8     6     7    2
     9     8     1    1
    10     8     9    1
    11     8    12    1
    12     9    10    1
    13    10    11    1
    14    12    11    1
    15    13    42    1
    16    14    13    1
    17    14    15    1
    18    15    18    2
    19    16    17    1
    20    16    15    1
    21    19    14    2
    22    20    21    2
    23    20    19    1
    24    21    26    1
    25    22    21    1
    26    23    22    1
    27    24    23    1
    28    24    25    1
    29    26    27    1
    30    26    13    1
    31    28    46    1
    32    29    34   am
    33    29    40    2
    34    30    49    1
    35    31    32    1
    36    33    39    2
    37    33    42    1
    38    35    43    1
    39    35    44    2
    40    36    30    2
    41    37    29   am
    42    37    44    1
    43    38    34    1
    44    39    36    1
    45    41    33    1
    46    42    48    2
    47    43    31    2
    48    44    45    1
    49    45    32    2
    50    46    37    1
    51    47    28    1
    52    48    30    1
    53    48    38    1
