@<TRIPOS>MOLECULE
outputs/IAG933/test6/raw/output_2916_IAG933_linker_design_.xyz
 45 49 0 0 0
SMALL
GASTEIGER

@<TRIPOS>ATOM
      1 C         -24.8550   -1.0120   30.1430 C.3     1  UNL1        0.0437
      2 C         -24.9730   -2.5050   29.7880 C.2     1  UNL1       -0.0208
      3 C         -23.9060   -3.1730   29.1460 C.2     1  UNL1       -0.0042
      4 C         -23.9890   -4.5490   28.8530 C.2     1  UNL1       -0.0003
      5 C         -25.1370   -5.2800   29.2050 C.2     1  UNL1       -0.0000
      6 C         -26.2320   -4.6110   29.7840 C.2     1  UNL1       -0.0003
      7 C         -26.1550   -3.2320   30.0650 C.2     1  UNL1       -0.0042
      8 C         -25.3870   -0.6790   31.5710 C.3     1  UNL1        0.0774
      9 C         -25.1890    0.7730   32.0280 C.3     1  UNL1        0.0219
     10 C         -25.3360    0.6840   33.5440 C.3     1  UNL1        0.0205
     11 C         -24.8290   -0.7150   33.9050 C.3     1  UNL1        0.0887
     12 N         -24.7580   -1.4810   32.6460 N.3     1  UNL1       -0.2191
     13 C         -25.6880    1.6140   26.4610 C.2     1  UNL1        0.0316
     14 C         -26.2500    2.9200   26.3950 C.2     1  UNL1        0.0739
     15 C         -25.6420    4.0930   27.1230 C.2     1  UNL1        0.2662
     16 N         -25.6140    5.2520   26.4490 N.am    1  UNL1       -0.1997
     17 C         -25.0260    6.4790   26.9630 C.3     1  UNL1        0.1388
     18 O         -25.1430    3.9660   28.2430 O.2     1  UNL1       -0.2683
     19 C         -27.4380    3.0910   25.6450 C.2     1  UNL1        0.1065
     20 N         -28.0750    2.0890   25.0030 N.2     1  UNL1       -0.2081
     21 C         -27.5430    0.8490   25.0790 C.2     1  UNL1        0.2530
     22 O         -28.1930   -0.2080   24.4770 O.2     1  UNL1       -0.4558
     23 C         -29.4600    0.0050   23.8660 C.3     1  UNL1        0.2426
     24 C         -30.0650   -1.3770   23.5730 C.3     1  UNL1        0.2292
     25 O         -30.7290   -1.8780   24.7210 O.3     1  UNL1       -0.2162
     26 C         -26.3540    0.5760   25.7770 C.2     1  UNL1        0.1904
     27 F         -25.8600   -0.6810   25.7950 F       1  UNL1       -0.1995
     28 F         -26.8499    6.1186   36.0819 F       1  UNL1       -0.1586
     29 O         -28.4111    6.0438   34.5521 O.2     1  UNL1       -0.2541
     30 N         -24.3866    0.5547   27.7997 N.3     1  UNL1       -0.2136
     31 F         -22.2024    0.3336   29.7728 F       1  UNL1       -0.2358
     32 C         -25.0713    5.3315   34.1881 C.2     1  UNL1        0.0055
     33 C         -24.5229    1.3422   26.8386 C.3     1  UNL1        0.0976
     34 C         -27.3130    5.6593   34.9367 C.2     1  UNL1        0.3334
     35 C         -23.8857    1.3579   28.8007 C.3     1  UNL1        0.1059
     36 C         -25.5043    3.3363   32.1657 C.2     1  UNL1       -0.0222
     37 C         -24.6211    1.9132   29.9434 C.3     1  UNL1        0.0246
     38 C         -23.1803    1.9883   26.4302 C.3     1  UNL1        0.0248
     39 C         -24.3321    4.0503   32.2302 C.2     1  UNL1       -0.0043
     40 C         -25.5617    2.0824   31.2002 C.3     1  UNL1        0.0252
     41 C         -26.3663    4.8349   34.0321 C.2     1  UNL1        0.0675
     42 C         -22.5945    0.8577   28.6624 C.3     1  UNL1        0.1769
     43 C         -22.0189    1.6014   27.4598 C.3     1  UNL1        0.0385
     44 C         -26.5809    3.8212   33.0369 C.2     1  UNL1        0.0013
     45 C         -24.0911    5.0191   33.2257 C.2     1  UNL1       -0.0001
@<TRIPOS>BOND
     1     2     7    1
     2     2     1    1
     3     3     2    2
     4     4     3    1
     5     4     5    2
     6     5     6    1
     7     6     7    2
     8     8     1    1
     9     8     9    1
    10     8    12    1
    11     9    40    1
    12     9    10    1
    13    10    11    1
    14    12    11    1
    15    14    13    1
    16    14    15    1
    17    15    18    2
    18    16    17    1
    19    16    15    1
    20    19    14    2
    21    20    21    2
    22    20    19    1
    23    21    26    1
    24    22    21    1
    25    23    22    1
    26    24    23    1
    27    24    25    1
    28    26    27    1
    29    26    13    2
    30    29    34    2
    31    30    35    1
    32    33    13    1
    33    33    30    1
    34    34    28    1
    35    35    37    1
    36    36    39    2
    37    36    44    1
    38    38    33    1
    39    38    43    1
    40    39    45    1
    41    40    37    1
    42    40    36    1
    43    41    32    1
    44    41    34    1
    45    42    35    1
    46    42    31    1
    47    43    42    1
    48    44    41    2
    49    45    32    2
