@<TRIPOS>MOLECULE
outputs/IAG933/test6/raw/output_2918_IAG933_linker_design_.xyz
 44 48 0 0 0
SMALL
GASTEIGER

@<TRIPOS>ATOM
      1 C         -24.8550   -1.0120   30.1430 C.3     1  UNL1        0.0762
      2 C         -24.9730   -2.5050   29.7880 C.2     1  UNL1       -0.0178
      3 C         -23.9060   -3.1730   29.1460 C.2     1  UNL1       -0.0041
      4 C         -23.9890   -4.5490   28.8530 C.2     1  UNL1       -0.0003
      5 C         -25.1370   -5.2800   29.2050 C.2     1  UNL1       -0.0000
      6 C         -26.2320   -4.6110   29.7840 C.2     1  UNL1       -0.0003
      7 C         -26.1550   -3.2320   30.0650 C.2     1  UNL1       -0.0041
      8 C         -25.3870   -0.6790   31.5710 C.3     1  UNL1        0.0801
      9 C         -25.1890    0.7730   32.0280 C.3     1  UNL1        0.0193
     10 C         -25.3360    0.6840   33.5440 C.3     1  UNL1        0.0202
     11 C         -24.8290   -0.7150   33.9050 C.3     1  UNL1        0.0887
     12 N         -24.7580   -1.4810   32.6460 N.3     1  UNL1       -0.2190
     13 C         -25.6880    1.6140   26.4610 C.2     1  UNL1        0.0515
     14 C         -26.2500    2.9200   26.3950 C.2     1  UNL1        0.0777
     15 C         -25.6420    4.0930   27.1230 C.2     1  UNL1        0.2665
     16 N         -25.6140    5.2520   26.4490 N.am    1  UNL1       -0.1997
     17 C         -25.0260    6.4790   26.9630 C.3     1  UNL1        0.1388
     18 O         -25.1430    3.9660   28.2430 O.2     1  UNL1       -0.2683
     19 C         -27.4380    3.0910   25.6450 C.2     1  UNL1        0.1068
     20 N         -28.0750    2.0890   25.0030 N.2     1  UNL1       -0.2081
     21 C         -27.5430    0.8490   25.0790 C.2     1  UNL1        0.2533
     22 O         -28.1930   -0.2080   24.4770 O.2     1  UNL1       -0.4558
     23 C         -29.4600    0.0050   23.8660 C.3     1  UNL1        0.2426
     24 C         -30.0650   -1.3770   23.5730 C.3     1  UNL1        0.2292
     25 O         -30.7290   -1.8780   24.7210 O.3     1  UNL1       -0.2162
     26 C         -26.3540    0.5760   25.7770 C.2     1  UNL1        0.1942
     27 F         -25.8600   -0.6810   25.7950 F       1  UNL1       -0.1992
     28 C         -22.8679    0.4541   28.8831 C.2     1  UNL1        0.2308
     29 C         -24.2938    1.2584   26.9974 C.2     1  UNL1        0.0535
     30 O         -30.3691   -0.5101   27.6686 O.3     1  UNL1       -0.2226
     31 C         -29.3791    1.6602   28.6724 C.3     1  UNL1        0.1181
     32 C         -27.6848   -0.5211   29.3962 C.3     1  UNL1        0.0974
     33 C         -23.0454    1.8697   26.2599 C.2     1  UNL1       -0.0106
     34 C         -25.3645    0.1137   29.0492 C.3     1  UNL1        0.1634
     35 N         -24.1702    0.6715   28.2456 N.am    1  UNL1       -0.2433
     36 C         -21.5555    0.8286   28.0824 C.3     1  UNL1        0.0904
     37 C         -29.9456    0.2475   28.7966 C.3     1  UNL1        0.1627
     38 N         -26.8121    0.7970   29.4518 N.am    1  UNL1       -0.2641
     39 O         -22.5703    0.0623   30.0570 O.2     1  UNL1       -0.2745
     40 O         -27.5651    2.8034   30.0382 O.2     1  UNL1       -0.2747
     41 C         -28.2364    2.0215   29.4661 C.2     1  UNL1        0.2293
     42 C         -29.6897   -2.0166   30.1844 C.3     1  UNL1        0.0044
     43 C         -21.6284    1.8216   26.9175 C.3     1  UNL1        0.0369
     44 C         -29.2206   -0.6006   29.8686 C.3     1  UNL1        0.0508
@<TRIPOS>BOND
     1     1    34    1
     2     2     7    1
     3     2     1    1
     4     3     2    2
     5     4     3    1
     6     4     5    2
     7     5     6    1
     8     6     7    2
     9     8     1    1
    10     8     9    1
    11     8    12    1
    12     9    10    1
    13    10    11    1
    14    12    11    1
    15    13    29    1
    16    14    13    1
    17    14    15    1
    18    15    18    2
    19    16    17    1
    20    16    15    1
    21    19    14    2
    22    20    21    2
    23    20    19    1
    24    21    26    1
    25    22    21    1
    26    23    22    1
    27    24    23    1
    28    24    25    1
    29    26    27    1
    30    26    13    2
    31    28    39    2
    32    29    35    1
    33    31    37    1
    34    31    41    1
    35    32    38    1
    36    32    44    1
    37    33    43    1
    38    33    29    2
    39    34    35    1
    40    34    38    1
    41    35    28   am
    42    36    28    1
    43    37    30    1
    44    37    44    1
    45    38    41   am
    46    41    40    2
    47    43    36    1
    48    44    42    1
