@<TRIPOS>MOLECULE
No_2919-gen_results/8p0m/2024-11-27-11-27-31/
 15 16 0 0 0
SMALL
GASTEIGER

@<TRIPOS>ATOM
      1 C         -28.0162   -0.8135   28.8779 C.ar    1  UNL1        0.0000
      2 C         -28.4690   -0.7850   29.8287 C.ar    1  UNL1        0.0000
      3 C         -26.5042   -0.7777   28.8766 C.ar    1  UNL1        0.0000
      4 C         -25.7622   -0.0022   27.9705 C.ar    1  UNL1        0.0001
      5 C         -24.3914    0.1198   28.1381 C.ar    1  UNL1        0.0046
      6 C         -23.5447    1.0260   27.3824 C.ar    1  UNL1        0.0567
      7 C         -24.1499    1.6445   26.2196 C.ar    1  UNL1        0.0046
      8 C         -25.5353    1.4131   26.0023 C.ar    1  UNL1        0.0001
      9 C         -26.2929    0.6153   26.8252 C.ar    1  UNL1        0.0000
     10 C         -28.0364   -1.5062   31.0706 C.ar    1  UNL1        0.0000
     11 C         -26.6366   -1.6928   31.0667 C.ar    1  UNL1        0.0000
     12 C         -25.8598   -1.3222   30.0431 C.ar    1  UNL1        0.0000
     13 C         -22.1736    1.2946   27.7445 C.2     1  UNL1        0.2842
     14 N         -21.5235    0.4272   28.4706 N.am    1  UNL1       -0.0837
     15 O         -21.6017    2.3737   27.3588 O.2     1  UNL1       -0.2667
@<TRIPOS>BOND
     1     3     4    1
     2     6    13    1
     3    13    14   am
     4    13    15    2
     5     1     2   ar
     6     2    10   ar
     7    10    11   ar
     8    11    12   ar
     9    12     3   ar
    10     3     1   ar
    11     4     5   ar
    12     5     6   ar
    13     6     7   ar
    14     7     8   ar
    15     8     9   ar
    16     9     4   ar
