@<TRIPOS>MOLECULE
No_292-gen_results/8p0m/2024-11-27-11-27-31/
 17 18 0 0 0
SMALL
GASTEIGER

@<TRIPOS>ATOM
      1 C         -28.0162   -0.8135   28.8779 C.ar    1  UNL1        0.0369
      2 C         -27.0636   -0.1189   28.6079 C.ar    1  UNL1        0.0031
      3 C         -25.7923   -0.4302   29.0761 C.ar    1  UNL1        0.0002
      4 C         -25.5756   -1.5654   29.9363 C.ar    1  UNL1        0.0031
      5 C         -26.7354   -2.3004   30.2173 C.ar    1  UNL1        0.0369
      6 C         -27.9184   -1.9537   29.7629 C.ar    1  UNL1        0.1391
      7 O         -29.0001   -2.7012   30.1151 O.3     1  UNL1       -0.4707
      8 C         -24.5290    0.3490   28.7998 C.ar    1  UNL1        0.0000
      9 C         -24.4808    1.2113   27.7998 C.ar    1  UNL1        0.0000
     10 C         -23.2760    1.8178   27.4206 C.ar    1  UNL1        0.0000
     11 C         -22.0486    1.5250   28.1131 C.ar    1  UNL1        0.0000
     12 C         -23.2966   -0.0161   29.4358 C.ar    1  UNL1        0.0000
     13 C         -22.0768    0.6512   29.1041 C.ar    1  UNL1        0.0000
     14 C         -28.8880   -3.9689   30.5892 C.3     1  UNL1        0.2315
     15 C         -30.0924   -4.5423   31.0768 C.2     1  UNL1        0.0161
     16 C         -30.8570   -3.9812   31.5675 C.2     1  UNL1       -0.0267
     17 C         -30.7288   -2.5719   31.7786 C.3     1  UNL1        0.0305
@<TRIPOS>BOND
     1     6     7    1
     2     3     8    1
     3     7    14    1
     4    14    15    1
     5    15    16    2
     6    16    17    1
     7     1     2   ar
     8     2     3   ar
     9     3     4   ar
    10     4     5   ar
    11     5     6   ar
    12     6     1   ar
    13     8     9   ar
    14     9    10   ar
    15    10    11   ar
    16    11    13   ar
    17    13    12   ar
    18    12     8   ar
