@<TRIPOS>MOLECULE
No_2920-gen_results/8p0m/2024-11-27-11-27-31/
 14 15 0 0 0
SMALL
GASTEIGER

@<TRIPOS>ATOM
      1 C         -28.0162   -0.8135   28.8779 C.ar    1  UNL1       -0.0039
      2 C         -28.4690   -0.7850   29.8287 C.ar    1  UNL1       -0.0003
      3 C         -26.5455   -0.8762   28.8500 C.ar    1  UNL1       -0.0178
      4 C         -25.6825   -0.7773   27.6829 C.3     1  UNL1        0.0523
      5 C         -27.9181   -1.0034   31.1877 C.ar    1  UNL1       -0.0000
      6 C         -26.5308   -1.0794   31.2463 C.ar    1  UNL1       -0.0003
      7 C         -25.7798   -1.0462   30.0905 C.ar    1  UNL1       -0.0039
      8 C         -25.2322    0.5793   27.3292 C.ar    1  UNL1       -0.0217
      9 C         -25.5211    1.0301   26.0784 C.ar    1  UNL1       -0.0255
     10 C         -24.5100    1.3968   28.1842 C.ar    1  UNL1       -0.0042
     11 C         -24.0294    2.6238   27.7425 C.ar    1  UNL1       -0.0003
     12 C         -26.3141    0.2513   25.1475 C.3     1  UNL1        0.0307
     13 C         -24.2760    3.0244   26.4244 C.ar    1  UNL1       -0.0003
     14 C         -25.0375    2.2422   25.5988 C.ar    1  UNL1       -0.0046
@<TRIPOS>BOND
     1     3     4    1
     2     4     8    1
     3     9    12    1
     4     8     9   ar
     5     9    14   ar
     6    14    13   ar
     7    13    11   ar
     8    11    10   ar
     9    10     8   ar
    10     1     2   ar
    11     2     5   ar
    12     5     6   ar
    13     6     7   ar
    14     7     3   ar
    15     3     1   ar
