@<TRIPOS>MOLECULE
outputs/IAG933/test6/raw/output_2922_IAG933_linker_design_.xyz
 45 50 0 0 0
SMALL
GASTEIGER

@<TRIPOS>ATOM
      1 C         -24.8550   -1.0120   30.1430 C.3     1  UNL1        0.1538
      2 C         -24.9730   -2.5050   29.7880 C.2     1  UNL1        0.0059
      3 C         -23.9060   -3.1730   29.1460 C.2     1  UNL1       -0.0019
      4 C         -23.9890   -4.5490   28.8530 C.2     1  UNL1       -0.0002
      5 C         -25.1370   -5.2800   29.2050 C.2     1  UNL1       -0.0000
      6 C         -26.2320   -4.6110   29.7840 C.2     1  UNL1       -0.0002
      7 C         -26.1550   -3.2320   30.0650 C.2     1  UNL1       -0.0019
      8 C         -25.3870   -0.6790   31.5710 C.3     1  UNL1        0.1041
      9 C         -25.1890    0.7730   32.0280 C.3     1  UNL1        0.0217
     10 C         -25.3360    0.6840   33.5440 C.3     1  UNL1        0.0203
     11 C         -24.8290   -0.7150   33.9050 C.3     1  UNL1        0.0888
     12 N         -24.7580   -1.4810   32.6460 N.3     1  UNL1       -0.2166
     13 C         -25.6880    1.6140   26.4610 C.3     1  UNL1        0.0923
     14 C         -26.2500    2.9200   26.3950 C.2     1  UNL1        0.0567
     15 C         -25.6420    4.0930   27.1230 C.2     1  UNL1        0.2186
     16 N         -25.6140    5.2520   26.4490 N.2     1  UNL1       -0.2359
     17 C         -25.0260    6.4790   26.9630 C.3     1  UNL1        0.1550
     18 O         -25.1430    3.9660   28.2430 O.2     1  UNL1       -0.4519
     19 C         -27.4380    3.0910   25.6450 C.2     1  UNL1        0.1025
     20 N         -28.0750    2.0890   25.0030 N.2     1  UNL1       -0.2118
     21 C         -27.5430    0.8490   25.0790 C.2     1  UNL1        0.2344
     22 O         -28.1930   -0.2080   24.4770 O.2     1  UNL1       -0.4585
     23 C         -29.4600    0.0050   23.8660 C.3     1  UNL1        0.2423
     24 C         -30.0650   -1.3770   23.5730 C.3     1  UNL1        0.2292
     25 O         -30.7290   -1.8780   24.7210 O.3     1  UNL1       -0.2162
     26 C         -26.3540    0.5760   25.7770 C.3     1  UNL1        0.2440
     27 F         -25.8600   -0.6810   25.7950 F       1  UNL1       -0.2265
     28 O         -24.9881   -0.1471   29.0019 O.3     1  UNL1       -0.3442
     29 C         -24.5689    1.2592   29.1641 C.3     1  UNL1        0.1895
     30 C         -21.3997    1.2496   27.2751 C.2     1  UNL1        0.0418
     31 C         -28.6772    6.0479   29.7816 C.3     1  UNL1        0.0216
     32 C         -25.7616    3.7358   30.5227 C.2     1  UNL1        0.2688
     33 C         -23.2663    1.7673   25.8277 C.2     1  UNL1       -0.0039
     34 C         -28.2076    3.4435   29.8879 C.3     1  UNL1        0.0935
     35 C         -29.0113    3.8941   28.6482 C.3     1  UNL1        0.0216
     36 O         -21.9404    0.4531   29.5308 O.2     1  UNL1       -0.2868
     37 C         -21.8953    1.6984   26.0332 C.2     1  UNL1        0.0030
     38 C         -28.8586    5.4129   28.4096 C.3     1  UNL1        0.0035
     39 N         -26.9744    4.1945   30.2461 N.am    1  UNL1       -0.2766
     40 C         -27.2877    5.6439   30.2927 C.3     1  UNL1        0.0935
     41 O         -25.3177    3.7829   31.6811 O.2     1  UNL1       -0.2709
     42 C         -23.6900    1.2104   28.0899 C.2     1  UNL1        0.0440
     43 C         -22.3206    0.9546   28.2874 C.2     1  UNL1        0.1938
     44 C         -24.2159    1.5109   26.8558 C.2     1  UNL1       -0.0135
     45 C         -24.8270    3.1088   29.4363 C.3     1  UNL1        0.2738
@<TRIPOS>BOND
     1     1    28    1
     2     2     7    1
     3     2     1    1
     4     3     2    2
     5     4     3    1
     6     4     5    2
     7     5     6    1
     8     6     7    2
     9     8     1    1
    10     8     9    1
    11     8    12    1
    12     9    10    1
    13    10    11    1
    14    12    11    1
    15    13    14    1
    16    13    44    1
    17    14    15    1
    18    15    18    1
    19    16    17    1
    20    16    15    2
    21    18    45    1
    22    19    14    2
    23    20    21    2
    24    20    19    1
    25    21    26    1
    26    22    21    1
    27    23    22    1
    28    24    23    1
    29    24    25    1
    30    26    27    1
    31    26    13    1
    32    29    28    1
    33    29    45    1
    34    30    43    1
    35    31    40    1
    36    32    41    2
    37    33    37    1
    38    33    44    2
    39    34    39    1
    40    35    34    1
    41    37    30    2
    42    38    35    1
    43    38    31    1
    44    39    40    1
    45    39    32   am
    46    42    43    2
    47    42    29    1
    48    43    36    1
    49    44    42    1
    50    45    32    1
