@<TRIPOS>MOLECULE
No_2924-gen_results/8p0m/2024-11-27-11-27-31/
 22 23 0 0 0
SMALL
GASTEIGER

@<TRIPOS>ATOM
      1 C         -28.0162   -0.8135   28.8779 C.ar    1  UNL1        0.0000
      2 C         -28.4690   -0.7850   29.8287 C.ar    1  UNL1        0.0000
      3 C         -27.1356    0.2359   28.5352 C.ar    1  UNL1        0.0002
      4 C         -26.8745    1.2825   29.3982 C.ar    1  UNL1        0.0062
      5 C         -27.5070    1.2380   30.6295 C.ar    1  UNL1        0.0002
      6 C         -28.3293    0.1745   30.9350 C.ar    1  UNL1        0.0000
      7 C         -26.4077    0.3070   27.2259 C.ar    1  UNL1        0.0000
      8 C         -25.7129    1.4905   26.9212 C.ar    1  UNL1        0.0002
      9 C         -25.4301    2.4538   27.8655 C.ar    1  UNL1        0.0064
     10 C         -26.0916    2.4163   29.0923 C.ar    1  UNL1        0.0756
     11 C         -25.8331    3.5594   30.0163 C.2     1  UNL1        0.3413
     12 O         -25.1409    3.3626   30.9850 O.2     1  UNL1       -0.2449
     13 O         -26.6029    4.5799   29.9046 O.3     1  UNL1       -0.4424
     14 C         -26.4116    5.6216   30.7022 C.3     1  UNL1        0.2425
     15 C         -25.9689    6.8547   30.1284 C.3     1  UNL1        0.1809
     16 O         -25.6905    6.7656   28.9588 O.3     1  UNL1       -0.3454
     17 C         -25.6918    5.9889   28.1796 C.3     1  UNL1        0.1746
     18 C         -26.2659    7.8377   30.5554 C.2     1  UNL1        0.0066
     19 C         -27.0735    8.2143   31.6382 C.2     1  UNL1       -0.0024
     20 C         -27.2886    9.4813   32.2181 C.2     1  UNL1       -0.0048
     21 C         -26.6533   10.5486   31.5498 C.2     1  UNL1       -0.0258
     22 C         -25.7925   10.3671   30.4867 C.3     1  UNL1        0.0307
@<TRIPOS>BOND
     1    10    11    1
     2    11    12    2
     3    11    13    1
     4    13    14    1
     5    14    15    1
     6    15    16    1
     7    16    17    1
     8    15    18    1
     9    18    19    2
    10    19    20    1
    11    20    21    2
    12    21    22    1
    13     4    10   ar
    14    10     9   ar
    15     9     8   ar
    16     8     7   ar
    17     7     3   ar
    18     1     2   ar
    19     2     6   ar
    20     6     5   ar
    21     5     4   ar
    22     4     3   ar
    23     3     1   ar
