@<TRIPOS>MOLECULE
No_2925-gen_results/8p0m/2024-11-27-11-27-31/
 17 18 0 0 0
SMALL
GASTEIGER

@<TRIPOS>ATOM
      1 C         -28.0162   -0.8135   28.8779 C.ar    1  UNL1        0.0576
      2 C         -27.0636   -0.1189   28.6079 C.ar    1  UNL1        0.0071
      3 C         -27.0010    0.6913   27.4910 C.ar    1  UNL1       -0.0218
      4 C         -28.1373    0.7363   26.6350 C.ar    1  UNL1        0.0023
      5 C         -29.2360    0.0765   27.0690 C.ar    1  UNL1        0.0803
      6 C         -30.3815    0.2048   26.2662 C.2     1  UNL1        0.3878
      7 C         -29.1803   -0.6422   28.1830 C.ar    1  UNL1        0.0179
      8 O         -31.3192   -0.3841   26.5505 O.co2   1  UNL1       -0.2406
      9 O         -30.2406    0.5846   24.9677 O.co2   1  UNL1       -0.2406
     10 CL        -27.9997   -1.7825   30.3586 Cl      1  UNL1       -0.0823
     11 C         -25.8635    1.5186   26.9863 C.3     1  UNL1        0.0189
     12 C         -24.6291    1.2608   27.5680 C.3     1  UNL1        0.0040
     13 C         -23.9847    2.0327   28.4077 C.3     1  UNL1        0.0003
     14 C         -24.5306    3.1474   28.8856 C.3     1  UNL1        0.0000
     15 C         -25.4969    3.8274   28.0979 C.3     1  UNL1        0.0003
     16 C         -26.1484    3.1664   27.4301 C.3     1  UNL1        0.0040
     17 C         -25.7201    1.4188   25.5088 C.3     1  UNL1        0.0044
@<TRIPOS>BOND
     1     5     6    1
     2     6     8   ar
     3     6     9   ar
     4     1    10    1
     5     3    11    1
     6    11    12    1
     7    13    14    1
     8    11    16    1
     9    15    16    1
    10    11    17    1
    11    12    13    1
    12    14    15    1
    13     1     2   ar
    14     2     3   ar
    15     3     4   ar
    16     4     5   ar
    17     5     7   ar
    18     7     1   ar
