@<TRIPOS>MOLECULE
outputs/IAG933/test6/raw/output_2929_IAG933_linker_design_.xyz
 44 48 0 0 0
SMALL
GASTEIGER

@<TRIPOS>ATOM
      1 C         -24.8550   -1.0120   30.1430 C.3     1  UNL1        0.0383
      2 C         -24.9730   -2.5050   29.7880 C.2     1  UNL1       -0.0212
      3 C         -23.9060   -3.1730   29.1460 C.2     1  UNL1       -0.0042
      4 C         -23.9890   -4.5490   28.8530 C.2     1  UNL1       -0.0003
      5 C         -25.1370   -5.2800   29.2050 C.2     1  UNL1       -0.0000
      6 C         -26.2320   -4.6110   29.7840 C.2     1  UNL1       -0.0003
      7 C         -26.1550   -3.2320   30.0650 C.2     1  UNL1       -0.0042
      8 C         -25.3870   -0.6790   31.5710 C.3     1  UNL1        0.0768
      9 C         -25.1890    0.7730   32.0280 C.3     1  UNL1        0.0192
     10 C         -25.3360    0.6840   33.5440 C.3     1  UNL1        0.0202
     11 C         -24.8290   -0.7150   33.9050 C.3     1  UNL1        0.0887
     12 N         -24.7580   -1.4810   32.6460 N.3     1  UNL1       -0.2191
     13 C         -25.6880    1.6140   26.4610 C.2     1  UNL1        0.0169
     14 C         -26.2500    2.9200   26.3950 C.2     1  UNL1        0.0726
     15 C         -25.6420    4.0930   27.1230 C.2     1  UNL1        0.2661
     16 N         -25.6140    5.2520   26.4490 N.am    1  UNL1       -0.1997
     17 C         -25.0260    6.4790   26.9630 C.3     1  UNL1        0.1388
     18 O         -25.1430    3.9660   28.2430 O.2     1  UNL1       -0.2683
     19 C         -27.4380    3.0910   25.6450 C.2     1  UNL1        0.1064
     20 N         -28.0750    2.0890   25.0030 N.2     1  UNL1       -0.2081
     21 C         -27.5430    0.8490   25.0790 C.2     1  UNL1        0.2530
     22 O         -28.1930   -0.2080   24.4770 O.2     1  UNL1       -0.4558
     23 C         -29.4600    0.0050   23.8660 C.3     1  UNL1        0.2426
     24 C         -30.0650   -1.3770   23.5730 C.3     1  UNL1        0.2292
     25 O         -30.7290   -1.8780   24.7210 O.3     1  UNL1       -0.2162
     26 C         -26.3540    0.5760   25.7770 C.2     1  UNL1        0.1891
     27 F         -25.8600   -0.6810   25.7950 F       1  UNL1       -0.1996
     28 O         -29.1999   -0.6137   27.4802 O.3     1  UNL1       -0.2231
     29 C         -30.3972    1.0943   28.6067 C.3     1  UNL1        0.0634
     30 C         -24.0941    1.2586   28.2733 C.3     1  UNL1        0.0731
     31 C         -25.2691    1.1954   29.0610 C.3     1  UNL1        0.0090
     32 C         -29.4968   -0.1210   28.7866 C.3     1  UNL1        0.1544
     33 O         -22.0925    0.4197   29.4128 O.2     1  UNL1       -0.2845
     34 C         -22.6745    1.0258   28.4969 C.2     1  UNL1        0.1986
     35 C         -23.2062    2.1218   26.1487 C.3     1  UNL1        0.0698
     36 C         -28.2235    0.2714   29.5208 C.3     1  UNL1        0.0305
     37 S         -21.7731    1.6838   27.1300 S.3     1  UNL1       -0.0768
     38 C         -31.6883    1.2141   29.4191 C.3     1  UNL1        0.1846
     39 C         -29.4186    2.2433   28.8983 C.3     1  UNL1        0.0052
     40 C         -28.0509    1.7680   29.4248 C.3     1  UNL1        0.0027
     41 C         -25.6830   -0.1380   29.2411 C.3     1  UNL1        0.0059
     42 C         -27.1066   -0.6247   29.0180 C.3     1  UNL1        0.0029
     43 O         -32.5960    0.1595   29.0101 O.3     1  UNL1       -0.2203
     44 C         -24.3458    1.5473   27.0207 C.3     1  UNL1        0.0439
@<TRIPOS>BOND
     1     1    41    1
     2     2     7    1
     3     2     1    1
     4     3     2    2
     5     4     3    1
     6     4     5    2
     7     5     6    1
     8     6     7    2
     9     8     1    1
    10     8     9    1
    11     8    12    1
    12     9    10    1
    13    10    11    1
    14    12    11    1
    15    14    13    1
    16    14    15    1
    17    15    18    2
    18    16    17    1
    19    16    15    1
    20    19    14    2
    21    20    21    2
    22    20    19    1
    23    21    26    1
    24    22    21    1
    25    23    22    1
    26    24    23    1
    27    24    25    1
    28    26    27    1
    29    26    13    2
    30    29    32    1
    31    29    39    1
    32    29    38    1
    33    30    34    1
    34    30    31    1
    35    31    41    1
    36    32    28    1
    37    32    36    1
    38    34    33    2
    39    35    44    1
    40    35    37    1
    41    36    42    1
    42    37    34    1
    43    39    40    1
    44    40    36    1
    45    41    42    1
    46    43    38    1
    47    44    13    1
    48    44    30    1
