@<TRIPOS>MOLECULE
No_293-gen_results/8p0m/2024-11-27-11-27-31/
 15 16 0 0 0
SMALL
GASTEIGER

@<TRIPOS>ATOM
      1 C         -28.0162   -0.8135   28.8779 C.ar    1  UNL1        0.0066
      2 C         -28.4690   -0.7850   29.8287 C.ar    1  UNL1        0.0798
      3 C         -26.5042   -0.7777   28.8766 C.ar    1  UNL1        0.0002
      4 C         -25.9150   -0.6580   29.9230 C.ar    1  UNL1        0.0000
      5 C         -27.9691   -0.7243   31.2047 C.ar    1  UNL1        0.0066
      6 C         -26.5847   -0.6393   31.2062 C.ar    1  UNL1        0.0002
      7 C         -24.4026   -0.5847   30.0419 C.ar    1  UNL1        0.0000
      8 C         -23.7439   -1.3708   30.5510 C.ar    1  UNL1        0.0000
      9 C         -23.7680    0.5718   29.3937 C.ar    1  UNL1        0.0000
     10 C         -22.3979    0.6096   29.2678 C.ar    1  UNL1        0.0000
     11 C         -22.2827   -1.3635   30.6651 C.ar    1  UNL1        0.0000
     12 C         -21.6705   -0.3834   29.9519 C.ar    1  UNL1        0.0000
     13 C         -30.1071   -0.8419   29.8717 C.2     1  UNL1        0.3878
     14 O         -30.7391   -0.0421   30.5972 O.co2   1  UNL1       -0.2406
     15 O         -30.6253   -1.3960   28.8871 O.co2   1  UNL1       -0.2406
@<TRIPOS>BOND
     1     4     7    1
     2     2    13    1
     3    13    14   ar
     4    13    15   ar
     5     7     8   ar
     6     8    11   ar
     7    11    12   ar
     8    12    10   ar
     9    10     9   ar
    10     9     7   ar
    11     1     2   ar
    12     2     5   ar
    13     5     6   ar
    14     6     4   ar
    15     4     3   ar
    16     3     1   ar
