@<TRIPOS>MOLECULE
outputs/IAG933/test6/raw/output_2930_IAG933_linker_design_.xyz
 45 49 0 0 0
SMALL
GASTEIGER

@<TRIPOS>ATOM
      1 C         -24.8550   -1.0120   30.1430 C.3     1  UNL1        0.0852
      2 C         -24.9730   -2.5050   29.7880 C.2     1  UNL1       -0.0171
      3 C         -23.9060   -3.1730   29.1460 C.2     1  UNL1       -0.0041
      4 C         -23.9890   -4.5490   28.8530 C.2     1  UNL1       -0.0003
      5 C         -25.1370   -5.2800   29.2050 C.2     1  UNL1       -0.0000
      6 C         -26.2320   -4.6110   29.7840 C.2     1  UNL1       -0.0003
      7 C         -26.1550   -3.2320   30.0650 C.2     1  UNL1       -0.0041
      8 C         -25.3870   -0.6790   31.5710 C.3     1  UNL1        0.0808
      9 C         -25.1890    0.7730   32.0280 C.3     1  UNL1        0.0193
     10 C         -25.3360    0.6840   33.5440 C.3     1  UNL1        0.0202
     11 C         -24.8290   -0.7150   33.9050 C.3     1  UNL1        0.0887
     12 N         -24.7580   -1.4810   32.6460 N.3     1  UNL1       -0.2190
     13 C         -25.6880    1.6140   26.4610 C.3     1  UNL1        0.1050
     14 C         -26.2500    2.9200   26.3950 C.2     1  UNL1        0.0593
     15 C         -25.6420    4.0930   27.1230 C.2     1  UNL1        0.2628
     16 N         -25.6140    5.2520   26.4490 N.am    1  UNL1       -0.2000
     17 C         -25.0260    6.4790   26.9630 C.3     1  UNL1        0.1388
     18 O         -25.1430    3.9660   28.2430 O.2     1  UNL1       -0.2686
     19 C         -27.4380    3.0910   25.6450 C.2     1  UNL1        0.1025
     20 N         -28.0750    2.0890   25.0030 N.2     1  UNL1       -0.2118
     21 C         -27.5430    0.8490   25.0790 C.2     1  UNL1        0.2344
     22 O         -28.1930   -0.2080   24.4770 O.2     1  UNL1       -0.4585
     23 C         -29.4600    0.0050   23.8660 C.3     1  UNL1        0.2423
     24 C         -30.0650   -1.3770   23.5730 C.3     1  UNL1        0.2292
     25 O         -30.7290   -1.8780   24.7210 O.3     1  UNL1       -0.2162
     26 C         -26.3540    0.5760   25.7770 C.3     1  UNL1        0.2444
     27 F         -25.8600   -0.6810   25.7950 F       1  UNL1       -0.2265
     28 C         -24.2929    1.6361   26.9272 C.2     1  UNL1        0.1317
     29 C         -29.2193    0.6137   30.6098 C.3     1  UNL1        0.0347
     30 C         -21.0272    1.9976   27.6566 C.3     1  UNL1        0.2201
     31 C         -27.3778   -0.3813   29.3862 C.3     1  UNL1        0.0539
     32 N         -23.2367    1.2617   28.7137 N.am    1  UNL1        0.0296
     33 C         -29.0390    1.4023   31.9017 C.3     1  UNL1        0.1422
     34 C         -23.1742    2.1338   26.2669 C.2     1  UNL1        0.2866
     35 N         -25.3228    0.4056   28.3865 N.pl3   1  UNL1       -0.0371
     36 O         -27.7588    2.0614   31.8243 O.3     1  UNL1       -0.3538
     37 O         -21.8596    2.1945   26.6481 O.2     1  UNL1       -0.4530
     38 C         -22.1699    0.2946   28.7542 C.2     1  UNL1        0.3560
     39 F         -23.2793    2.7650   25.1289 F       1  UNL1       -0.1633
     40 C         -24.2717    1.1366   28.0970 C.2     1  UNL1        0.3561
     41 C         -25.9186   -0.5237   29.0987 C.3     1  UNL1        0.2102
     42 C         -27.3022    2.1100   30.4833 C.3     1  UNL1        0.1423
     43 O         -22.4746   -0.8719   28.9902 O.2     1  UNL1       -0.2427
     44 C         -20.9933    0.7913   28.4983 C.3     1  UNL1        0.1639
     45 C         -28.0192    0.9383   29.7449 C.3     1  UNL1        0.0363
@<TRIPOS>BOND
     1     1    41    1
     2     2     7    1
     3     2     1    1
     4     3     2    2
     5     4     3    1
     6     4     5    2
     7     5     6    1
     8     6     7    2
     9     8     1    1
    10     8     9    1
    11     8    12    1
    12     9    10    1
    13    10    11    1
    14    12    11    1
    15    13    28    1
    16    14    13    1
    17    14    15    1
    18    15    18    2
    19    16    17    1
    20    16    15    1
    21    19    14    2
    22    20    21    2
    23    20    19    1
    24    21    26    1
    25    22    21    1
    26    23    22    1
    27    24    23    1
    28    24    25    1
    29    26    27    1
    30    26    13    1
    31    28    40    1
    32    29    33    1
    33    30    44    1
    34    32    38    1
    35    34    37    1
    36    34    28    2
    37    35    41    1
    38    36    33    1
    39    37    30    1
    40    38    43    2
    41    39    34    1
    42    40    35    1
    43    40    32    2
    44    41    31    1
    45    42    36    1
    46    44    38    1
    47    45    31    1
    48    45    42    1
    49    45    29    1
