@<TRIPOS>MOLECULE
outputs/IAG933/test6/raw/output_2932_IAG933_linker_design_.xyz
 42 45 0 0 0
SMALL
GASTEIGER

@<TRIPOS>ATOM
      1 C         -24.8550   -1.0120   30.1430 C.3     1  UNL1        0.1181
      2 C         -24.9730   -2.5050   29.7880 C.2     1  UNL1       -0.0124
      3 C         -23.9060   -3.1730   29.1460 C.2     1  UNL1       -0.0038
      4 C         -23.9890   -4.5490   28.8530 C.2     1  UNL1       -0.0003
      5 C         -25.1370   -5.2800   29.2050 C.2     1  UNL1       -0.0000
      6 C         -26.2320   -4.6110   29.7840 C.2     1  UNL1       -0.0003
      7 C         -26.1550   -3.2320   30.0650 C.2     1  UNL1       -0.0038
      8 C         -25.3870   -0.6790   31.5710 C.3     1  UNL1        0.1015
      9 C         -25.1890    0.7730   32.0280 C.3     1  UNL1        0.0935
     10 C         -25.3360    0.6840   33.5440 C.3     1  UNL1        0.0377
     11 C         -24.8290   -0.7150   33.9050 C.3     1  UNL1        0.0902
     12 N         -24.7580   -1.4810   32.6460 N.3     1  UNL1       -0.2172
     13 C         -25.6880    1.6140   26.4610 C.3     1  UNL1        0.0968
     14 C         -26.2500    2.9200   26.3950 C.2     1  UNL1        0.0590
     15 C         -25.6420    4.0930   27.1230 C.2     1  UNL1        0.2628
     16 N         -25.6140    5.2520   26.4490 N.am    1  UNL1       -0.2000
     17 C         -25.0260    6.4790   26.9630 C.3     1  UNL1        0.1388
     18 O         -25.1430    3.9660   28.2430 O.2     1  UNL1       -0.2686
     19 C         -27.4380    3.0910   25.6450 C.2     1  UNL1        0.1025
     20 N         -28.0750    2.0890   25.0030 N.2     1  UNL1       -0.2118
     21 C         -27.5430    0.8490   25.0790 C.2     1  UNL1        0.2344
     22 O         -28.1930   -0.2080   24.4770 O.2     1  UNL1       -0.4585
     23 C         -29.4600    0.0050   23.8660 C.3     1  UNL1        0.2423
     24 C         -30.0650   -1.3770   23.5730 C.3     1  UNL1        0.2292
     25 O         -30.7290   -1.8780   24.7210 O.3     1  UNL1       -0.2162
     26 C         -26.3540    0.5760   25.7770 C.3     1  UNL1        0.2441
     27 F         -25.8600   -0.6810   25.7950 F       1  UNL1       -0.2265
     28 C         -25.2866   -0.0163   29.1417 C.2     1  UNL1        0.2507
     29 C         -23.7787    1.0774   27.7882 C.2     1  UNL1        0.1084
     30 C         -25.5459    3.0940   31.0678 C.3     1  UNL1        0.2257
     31 F         -20.3604    1.4269   28.1938 F       1  UNL1       -0.1924
     32 O         -25.3822    3.7292   32.2687 O.3     1  UNL1       -0.2037
     33 C         -22.4214    1.1958   27.3745 C.2     1  UNL1        0.2017
     34 N         -24.4502    0.9868   28.8328 N.am    1  UNL1       -0.1762
     35 C         -21.5752    0.9043   28.1873 C.3     1  UNL1        0.3669
     36 O         -21.8198    0.1374   29.2824 O.3     1  UNL1       -0.1755
     37 C         -27.0570    2.7818   30.9376 C.3     1  UNL1        0.0555
     38 N         -24.7814    1.8411   31.1032 N.3     1  UNL1       -0.1892
     39 C         -24.3401    1.2790   26.7547 C.2     1  UNL1        0.0407
     40 O         -22.0280    1.6467   26.0573 O.2     1  UNL1       -0.4483
     41 O         -26.4096   -0.1002   28.6370 O.2     1  UNL1       -0.2726
     42 C         -23.2986    1.7601   25.6297 C.2     1  UNL1        0.1768
@<TRIPOS>BOND
     1     1    28    1
     2     2     7    1
     3     2     1    1
     4     3     2    2
     5     4     3    1
     6     4     5    2
     7     5     6    1
     8     6     7    2
     9     8     1    1
    10     8     9    1
    11     8    12    1
    12     9    38    1
    13     9    10    1
    14    10    11    1
    15    12    11    1
    16    13    39    1
    17    14    13    1
    18    14    15    1
    19    15    18    2
    20    16    17    1
    21    16    15    1
    22    19    14    2
    23    20    21    2
    24    20    19    1
    25    21    26    1
    26    22    21    1
    27    23    22    1
    28    24    23    1
    29    24    25    1
    30    26    27    1
    31    26    13    1
    32    29    34    1
    33    30    37    1
    34    30    38    1
    35    30    32    1
    36    33    29    2
    37    33    35    1
    38    34    28    1
    39    35    31    1
    40    35    36    1
    41    39    29    1
    42    40    33    1
    43    41    28    2
    44    42    40    1
    45    42    39    2
