@<TRIPOS>MOLECULE
No_2934-gen_results/8p0m/2024-11-27-11-27-31/
 22 23 0 0 0
SMALL
GASTEIGER

@<TRIPOS>ATOM
      1 C         -28.0162   -0.8135   28.8779 C.ar    1  UNL1        0.0376
      2 C         -27.0636   -0.1190   28.6079 C.ar    1  UNL1        0.0070
      3 C         -25.7647   -0.3897   29.0360 C.ar    1  UNL1        0.0716
      4 C         -25.5296   -1.5302   29.9014 C.ar    1  UNL1        0.0070
      5 C         -26.6888   -2.2893   30.1810 C.ar    1  UNL1        0.0376
      6 C         -27.8727   -1.9508   29.7373 C.ar    1  UNL1        0.1488
      7 C         -24.5491    0.4100   28.7341 C.3     1  UNL1        0.4186
      8 F         -24.5413    0.8962   27.5953 F       1  UNL1       -0.1659
      9 F         -23.3814   -0.3846   28.8484 F       1  UNL1       -0.1659
     10 F         -24.3736    1.3916   29.6595 F       1  UNL1       -0.1659
     11 O         -28.9576   -2.6961   30.1093 O.3     1  UNL1       -0.4210
     12 C         -28.7464   -3.9578   30.6325 C.2     1  UNL1        0.3457
     13 C         -29.9496   -4.5827   31.1811 C.ar    1  UNL1        0.0762
     14 C         -29.8208   -5.7313   31.7346 C.ar    1  UNL1        0.0065
     15 C         -30.9774   -6.4179   32.2511 C.ar    1  UNL1        0.0004
     16 C         -32.2341   -5.8061   32.1295 C.ar    1  UNL1        0.0066
     17 C         -32.3133   -4.5934   31.5215 C.ar    1  UNL1        0.0800
     18 C         -31.1823   -3.9526   31.0630 C.ar    1  UNL1        0.0130
     19 O         -27.6879   -4.5681   30.6079 O.2     1  UNL1       -0.2445
     20 C         -33.6527   -3.9231   31.3993 C.2     1  UNL1        0.3878
     21 O         -33.8139   -3.2520   30.5907 O.co2   1  UNL1       -0.2406
     22 O         -34.3290   -3.9364   32.4993 O.co2   1  UNL1       -0.2406
@<TRIPOS>BOND
     1     3     7    1
     2     7     8    1
     3     7     9    1
     4     7    10    1
     5     6    11    1
     6    11    12    1
     7    12    13    1
     8    12    19    2
     9    17    20    1
    10    20    21   ar
    11    20    22   ar
    12     1     2   ar
    13     2     3   ar
    14     3     4   ar
    15     4     5   ar
    16     5     6   ar
    17     6     1   ar
    18    13    14   ar
    19    14    15   ar
    20    15    16   ar
    21    16    17   ar
    22    17    18   ar
    23    18    13   ar
