@<TRIPOS>MOLECULE
outputs/IAG933/test6/raw/output_2938_IAG933_linker_design_.xyz
 48 52 0 0 0
SMALL
GASTEIGER

@<TRIPOS>ATOM
      1 C         -24.8550   -1.0120   30.1430 C.3     1  UNL1        0.1113
      2 C         -24.9730   -2.5050   29.7880 C.2     1  UNL1       -0.0030
      3 C         -23.9060   -3.1730   29.1460 C.2     1  UNL1       -0.0026
      4 C         -23.9890   -4.5490   28.8530 C.2     1  UNL1       -0.0003
      5 C         -25.1370   -5.2800   29.2050 C.2     1  UNL1       -0.0000
      6 C         -26.2320   -4.6110   29.7840 C.2     1  UNL1       -0.0003
      7 C         -26.1550   -3.2320   30.0650 C.2     1  UNL1       -0.0026
      8 C         -25.3870   -0.6790   31.5710 C.3     1  UNL1        0.0950
      9 C         -25.1890    0.7730   32.0280 C.3     1  UNL1        0.0209
     10 C         -25.3360    0.6840   33.5440 C.3     1  UNL1        0.0203
     11 C         -24.8290   -0.7150   33.9050 C.3     1  UNL1        0.0888
     12 N         -24.7580   -1.4810   32.6460 N.3     1  UNL1       -0.2174
     13 C         -25.6880    1.6140   26.4610 C.3     1  UNL1        0.0936
     14 C         -26.2500    2.9200   26.3950 C.2     1  UNL1        0.0589
     15 C         -25.6420    4.0930   27.1230 C.2     1  UNL1        0.2628
     16 N         -25.6140    5.2520   26.4490 N.am    1  UNL1       -0.2000
     17 C         -25.0260    6.4790   26.9630 C.3     1  UNL1        0.1388
     18 O         -25.1430    3.9660   28.2430 O.2     1  UNL1       -0.2686
     19 C         -27.4380    3.0910   25.6450 C.2     1  UNL1        0.1025
     20 N         -28.0750    2.0890   25.0030 N.2     1  UNL1       -0.2118
     21 C         -27.5430    0.8490   25.0790 C.2     1  UNL1        0.2344
     22 O         -28.1930   -0.2080   24.4770 O.2     1  UNL1       -0.4585
     23 C         -29.4600    0.0050   23.8660 C.3     1  UNL1        0.2423
     24 C         -30.0650   -1.3770   23.5730 C.3     1  UNL1        0.2292
     25 O         -30.7290   -1.8780   24.7210 O.3     1  UNL1       -0.2162
     26 C         -26.3540    0.5760   25.7770 C.3     1  UNL1        0.2440
     27 F         -25.8600   -0.6810   25.7950 F       1  UNL1       -0.2265
     28 C         -33.5164    2.3383   24.3977 C.2     1  UNL1        0.0000
     29 C         -24.0157    0.6642   28.2271 C.2     1  UNL1        0.0477
     30 C         -24.3087    1.3681   26.8630 C.2     1  UNL1        0.0015
     31 C         -29.1728    0.1317   29.3515 C.3     1  UNL1        0.0252
     32 C         -32.3452    2.7781   25.0099 C.2     1  UNL1        0.0001
     33 C         -31.8629    2.0412   26.0931 C.2     1  UNL1        0.0046
     34 N         -30.6552   -0.2974   27.4820 N.am    1  UNL1       -0.2017
     35 C         -26.5200   -0.2850   28.6835 C.3     1  UNL1        0.0911
     36 C         -22.5028    0.5513   28.5393 C.2     1  UNL1        0.0549
     37 C         -33.7674    0.5193   25.9922 C.2     1  UNL1        0.0046
     38 C         -22.0699    2.0009   25.6389 C.2     1  UNL1        0.1794
     39 C         -31.9334    0.0285   27.6965 C.2     1  UNL1        0.2648
     40 C         -23.4627    1.5452   25.6810 C.2     1  UNL1        0.0380
     41 C         -21.3894    1.2831   27.9698 C.2     1  UNL1        0.1809
     42 C         -29.9579    0.7593   28.2233 C.3     1  UNL1        0.1155
     43 O         -32.4203   -0.0246   28.8744 O.2     1  UNL1       -0.2684
     44 C         -32.5645    0.8813   26.5758 C.2     1  UNL1        0.0550
     45 C         -34.2161    1.2398   24.8809 C.2     1  UNL1        0.0001
     46 C         -28.0466   -0.6943   28.7890 C.3     1  UNL1        0.0232
     47 N         -25.0589    0.1529   29.1728 N.pl3   1  UNL1       -0.3042
     48 O         -21.2538    2.0406   26.7522 O.2     1  UNL1       -0.4473
@<TRIPOS>BOND
     1     1    47    1
     2     2     7    1
     3     2     1    1
     4     3     2    2
     5     4     3    1
     6     4     5    2
     7     5     6    1
     8     6     7    2
     9     8     1    1
    10     8     9    1
    11     8    12    1
    12     9    10    1
    13    10    11    1
    14    12    11    1
    15    13    30    1
    16    14    13    1
    17    14    15    1
    18    15    18    2
    19    16    17    1
    20    16    15    1
    21    19    14    2
    22    20    21    2
    23    20    19    1
    24    21    26    1
    25    22    21    1
    26    23    22    1
    27    24    23    1
    28    24    25    1
    29    26    27    1
    30    26    13    1
    31    28    45    2
    32    28    32    1
    33    29    36    1
    34    29    47    1
    35    30    29    2
    36    32    33    2
    37    33    44    1
    38    34    39    1
    39    34    42    1
    40    35    46    1
    41    35    47    1
    42    37    44    2
    43    38    40    2
    44    38    48    1
    45    39    43    2
    46    40    30    1
    47    41    36    2
    48    42    31    1
    49    44    39    1
    50    45    37    1
    51    46    31    1
    52    48    41    1
