@<TRIPOS>MOLECULE
outputs/IAG933/test6/raw/output_2939_IAG933_linker_design_.xyz
 50 57 0 0 0
SMALL
GASTEIGER

@<TRIPOS>ATOM
      1 C         -24.8550   -1.0120   30.1430 C.3     1  UNL1        0.0964
      2 C         -24.9730   -2.5050   29.7880 C.2     1  UNL1       -0.0064
      3 C         -23.9060   -3.1730   29.1460 C.2     1  UNL1       -0.0029
      4 C         -23.9890   -4.5490   28.8530 C.2     1  UNL1       -0.0003
      5 C         -25.1370   -5.2800   29.2050 C.2     1  UNL1       -0.0000
      6 C         -26.2320   -4.6110   29.7840 C.2     1  UNL1       -0.0003
      7 C         -26.1550   -3.2320   30.0650 C.2     1  UNL1       -0.0029
      8 C         -25.3870   -0.6790   31.5710 C.3     1  UNL1        0.0916
      9 C         -25.1890    0.7730   32.0280 C.3     1  UNL1        0.0206
     10 C         -25.3360    0.6840   33.5440 C.3     1  UNL1        0.0203
     11 C         -24.8290   -0.7150   33.9050 C.3     1  UNL1        0.0888
     12 N         -24.7580   -1.4810   32.6460 N.3     1  UNL1       -0.2178
     13 C         -25.6880    1.6140   26.4610 C.2     1  UNL1        0.0407
     14 C         -26.2500    2.9200   26.3950 C.2     1  UNL1        0.0744
     15 C         -25.6420    4.0930   27.1230 C.2     1  UNL1        0.2218
     16 N         -25.6140    5.2520   26.4490 N.2     1  UNL1       -0.2357
     17 C         -25.0260    6.4790   26.9630 C.3     1  UNL1        0.1550
     18 O         -25.1430    3.9660   28.2430 O.2     1  UNL1       -0.4640
     19 C         -27.4380    3.0910   25.6450 C.2     1  UNL1        0.1068
     20 N         -28.0750    2.0890   25.0030 N.2     1  UNL1       -0.2081
     21 C         -27.5430    0.8490   25.0790 C.2     1  UNL1        0.2533
     22 O         -28.1930   -0.2080   24.4770 O.2     1  UNL1       -0.4558
     23 C         -29.4600    0.0050   23.8660 C.3     1  UNL1        0.2426
     24 C         -30.0650   -1.3770   23.5730 C.3     1  UNL1        0.2292
     25 O         -30.7290   -1.8780   24.7210 O.3     1  UNL1       -0.2162
     26 C         -26.3540    0.5760   25.7770 C.2     1  UNL1        0.1931
     27 F         -25.8600   -0.6810   25.7950 F       1  UNL1       -0.1992
     28 C         -27.5686    4.3699   29.3833 C.3     1  UNL1        0.0556
     29 N         -28.4676    5.3856   31.4211 N.3     1  UNL1       -0.1731
     30 N         -25.5079    5.2839   32.9881 N.3     1  UNL1       -0.1379
     31 C         -23.6047    1.1735   28.7357 C.3     1  UNL1        0.0914
     32 N         -29.4386    6.3661   31.5817 N.3     1  UNL1       -0.1116
     33 C         -26.4228    4.2215   30.3039 C.3     1  UNL1        0.0868
     34 C         -28.6644    5.0013   30.0917 C.3     1  UNL1        0.1924
     35 C         -22.1166    0.9656   28.5268 C.3     1  UNL1        0.1475
     36 C         -30.1269    6.4030   30.4941 C.3     1  UNL1        0.2521
     37 O         -21.2018    1.2205   27.8053 O.3     1  UNL1       -0.3351
     38 C         -21.8668    1.7024   27.0323 C.3     1  UNL1        0.2524
     39 C         -25.2898    7.0837   31.7047 C.3     1  UNL1        0.3141
     40 C         -24.0247    2.4979   29.6340 C.3     1  UNL1        0.0622
     41 O         -29.8728    5.3729   29.5766 O.3     1  UNL1       -0.3208
     42 O         -25.3625    5.8725   31.1132 O.3     1  UNL1       -0.3124
     43 C         -27.4791    5.0642   32.2273 C.3     1  UNL1        0.1376
     44 C         -25.3623    3.5163   29.4014 C.3     1  UNL1        0.1727
     45 C         -26.0569    4.8205   31.5432 C.3     1  UNL1        0.1839
     46 C         -25.2782    4.6235   33.9770 C.3     1  UNL1        0.1235
     47 N         -23.9860   -0.0958   29.6993 N.3     1  UNL1       -0.2660
     48 O         -25.4647    6.5267   33.0915 O.3     1  UNL1       -0.2467
     49 N         -22.2981    2.2808   25.9913 N.3     1  UNL1       -0.0957
     50 C         -22.6061    0.1205   29.6196 C.3     1  UNL1        0.1025
@<TRIPOS>BOND
     1     1     2    1
     2     2     7    1
     3     3     2    2
     4     4     3    1
     5     4     5    2
     6     5     6    1
     7     6     7    2
     8     8     1    1
     9     8     9    1
    10     8    12    1
    11     9    10    1
    12    10    11    1
    13    12    11    1
    14    14    13    1
    15    14    15    1
    16    15    18    1
    17    16    17    1
    18    16    15    2
    19    18    44    1
    20    19    14    2
    21    20    21    2
    22    20    19    1
    23    21    26    1
    24    22    21    1
    25    23    22    1
    26    24    23    1
    27    24    25    1
    28    26    27    1
    29    26    13    2
    30    28    33    1
    31    29    32    1
    32    29    43    1
    33    30    48    1
    34    30    46    1
    35    31    50    1
    36    31    40    1
    37    31    47    1
    38    33    44    1
    39    33    45    1
    40    34    28    1
    41    34    29    1
    42    35    37    1
    43    35    31    1
    44    35    50    1
    45    36    32    1
    46    38    37    1
    47    39    48    1
    48    41    34    1
    49    41    36    1
    50    42    45    1
    51    42    39    1
    52    44    40    1
    53    45    43    1
    54    45    30    1
    55    47     1    1
    56    49    38    1
    57    50    47    1
