@<TRIPOS>MOLECULE
outputs/IAG933/test6/raw/output_294_IAG933_linker_design_.xyz
 41 44 0 0 0
SMALL
GASTEIGER

@<TRIPOS>ATOM
      1 C         -24.8550   -1.0120   30.1430 C.3     1  UNL1        0.2032
      2 C         -24.9730   -2.5050   29.7880 C.2     1  UNL1        0.0217
      3 C         -23.9060   -3.1730   29.1460 C.2     1  UNL1       -0.0004
      4 C         -23.9890   -4.5490   28.8530 C.2     1  UNL1       -0.0002
      5 C         -25.1370   -5.2800   29.2050 C.2     1  UNL1       -0.0000
      6 C         -26.2320   -4.6110   29.7840 C.2     1  UNL1       -0.0002
      7 C         -26.1550   -3.2320   30.0650 C.2     1  UNL1       -0.0004
      8 C         -25.3870   -0.6790   31.5710 C.3     1  UNL1        0.1201
      9 C         -25.1890    0.7730   32.0280 C.3     1  UNL1        0.0233
     10 C         -25.3360    0.6840   33.5440 C.3     1  UNL1        0.0204
     11 C         -24.8290   -0.7150   33.9050 C.3     1  UNL1        0.0889
     12 N         -24.7580   -1.4810   32.6460 N.3     1  UNL1       -0.2150
     13 C         -25.6880    1.6140   26.4610 C.2     1  UNL1        0.0451
     14 C         -26.2500    2.9200   26.3950 C.2     1  UNL1        0.0768
     15 C         -25.6420    4.0930   27.1230 C.2     1  UNL1        0.2664
     16 N         -25.6140    5.2520   26.4490 N.am    1  UNL1       -0.1997
     17 C         -25.0260    6.4790   26.9630 C.3     1  UNL1        0.1388
     18 O         -25.1430    3.9660   28.2430 O.2     1  UNL1       -0.2683
     19 C         -27.4380    3.0910   25.6450 C.2     1  UNL1        0.1067
     20 N         -28.0750    2.0890   25.0030 N.2     1  UNL1       -0.2081
     21 C         -27.5430    0.8490   25.0790 C.2     1  UNL1        0.2533
     22 O         -28.1930   -0.2080   24.4770 O.2     1  UNL1       -0.4558
     23 C         -29.4600    0.0050   23.8660 C.3     1  UNL1        0.2426
     24 C         -30.0650   -1.3770   23.5730 C.3     1  UNL1        0.2292
     25 O         -30.7290   -1.8780   24.7210 O.3     1  UNL1       -0.2162
     26 C         -26.3540    0.5760   25.7770 C.2     1  UNL1        0.1933
     27 F         -25.8600   -0.6810   25.7950 F       1  UNL1       -0.1992
     28 F         -20.7732    1.3425   28.1471 F       1  UNL1       -0.1980
     29 F         -21.6637    2.1604   25.8233 F       1  UNL1       -0.2017
     30 N         -26.2343    0.7196   28.7606 N.pl3   1  UNL1       -0.0361
     31 C         -24.7375    1.1811   27.1358 C.2     1  UNL1        0.0850
     32 C         -29.5556    2.7184   28.8873 C.3     1  UNL1        0.0001
     33 C         -28.3760    1.9190   29.4867 C.3     1  UNL1        0.0044
     34 C         -28.5766    0.4083   29.2756 C.3     1  UNL1        0.0554
     35 C         -27.2226   -0.2808   29.0920 C.3     1  UNL1        0.2509
     36 C         -22.0380    0.9897   27.9144 C.2     1  UNL1        0.2075
     37 C         -22.7599    0.1772   28.8617 C.2     1  UNL1        0.2081
     38 N         -24.1449   -0.1213   29.1127 N.pl3   1  UNL1       -0.1658
     39 C         -22.4618    1.5625   26.6361 C.2     1  UNL1        0.1712
     40 C         -23.7304    1.5210   26.2654 C.2     1  UNL1        0.0394
     41 C         -24.9973    0.5210   28.3496 C.2     1  UNL1        0.3135
@<TRIPOS>BOND
     1     1     2    1
     2     2     7    1
     3     3     2    2
     4     4     3    1
     5     4     5    2
     6     5     6    1
     7     6     7    2
     8     8     1    1
     9     8     9    1
    10     8    12    1
    11     9    10    1
    12    10    11    1
    13    12    11    1
    14    13    31    1
    15    14    13    1
    16    14    15    1
    17    15    18    2
    18    16    17    1
    19    16    15    1
    20    19    14    2
    21    20    21    2
    22    20    19    1
    23    21    26    1
    24    22    21    1
    25    23    22    1
    26    24    23    1
    27    24    25    1
    28    26    27    1
    29    26    13    2
    30    29    39    1
    31    30    35    1
    32    31    41    2
    33    32    33    1
    34    34    33    1
    35    35    34    1
    36    36    28    1
    37    36    37    2
    38    37    38    1
    39    38     1    1
    40    39    36    1
    41    40    39    2
    42    40    31    1
    43    41    30    1
    44    41    38    1
