@<TRIPOS>MOLECULE
outputs/IAG933/test6/raw/output_2940_IAG933_linker_design_.xyz
 45 48 0 0 0
SMALL
GASTEIGER

@<TRIPOS>ATOM
      1 C         -24.8550   -1.0120   30.1430 C.3     1  UNL1        0.0975
      2 C         -24.9730   -2.5050   29.7880 C.2     1  UNL1       -0.0064
      3 C         -23.9060   -3.1730   29.1460 C.2     1  UNL1       -0.0029
      4 C         -23.9890   -4.5490   28.8530 C.2     1  UNL1       -0.0003
      5 C         -25.1370   -5.2800   29.2050 C.2     1  UNL1       -0.0000
      6 C         -26.2320   -4.6110   29.7840 C.2     1  UNL1       -0.0003
      7 C         -26.1550   -3.2320   30.0650 C.2     1  UNL1       -0.0029
      8 C         -25.3870   -0.6790   31.5710 C.3     1  UNL1        0.0916
      9 C         -25.1890    0.7730   32.0280 C.3     1  UNL1        0.0206
     10 C         -25.3360    0.6840   33.5440 C.3     1  UNL1        0.0203
     11 C         -24.8290   -0.7150   33.9050 C.3     1  UNL1        0.0888
     12 N         -24.7580   -1.4810   32.6460 N.3     1  UNL1       -0.2178
     13 C         -25.6880    1.6140   26.4610 C.2     1  UNL1        0.0874
     14 C         -26.2500    2.9200   26.3950 C.2     1  UNL1        0.0899
     15 C         -25.6420    4.0930   27.1230 C.2     1  UNL1        0.2676
     16 N         -25.6140    5.2520   26.4490 N.am    1  UNL1       -0.1997
     17 C         -25.0260    6.4790   26.9630 C.3     1  UNL1        0.1388
     18 O         -25.1430    3.9660   28.2430 O.2     1  UNL1       -0.2683
     19 C         -27.4380    3.0910   25.6450 C.2     1  UNL1        0.1080
     20 N         -28.0750    2.0890   25.0030 N.2     1  UNL1       -0.2080
     21 C         -27.5430    0.8490   25.0790 C.2     1  UNL1        0.2546
     22 O         -28.1930   -0.2080   24.4770 O.2     1  UNL1       -0.4558
     23 C         -29.4600    0.0050   23.8660 C.3     1  UNL1        0.2426
     24 C         -30.0650   -1.3770   23.5730 C.3     1  UNL1        0.2292
     25 O         -30.7290   -1.8780   24.7210 O.3     1  UNL1       -0.2162
     26 C         -26.3540    0.5760   25.7770 C.2     1  UNL1        0.2063
     27 F         -25.8600   -0.6810   25.7950 F       1  UNL1       -0.1979
     28 N         -25.5155   -0.2937   29.0336 N.3     1  UNL1       -0.2532
     29 O         -21.0334    1.6204   27.3433 O.3     1  UNL1       -0.3304
     30 C         -22.3693    1.8151   26.9157 C.3     1  UNL1        0.2154
     31 C         -33.2152   -0.5353   29.5170 C.3     1  UNL1        0.1760
     32 C         -20.5366    0.6409   28.1919 C.3     1  UNL1        0.2153
     33 C         -23.4899    1.6261   27.8744 C.3     1  UNL1        0.1508
     34 N         -24.6801    1.1033   27.3807 N.pl3   1  UNL1       -0.2881
     35 C         -21.6306   -0.3539   28.5185 C.2     1  UNL1        0.2397
     36 CL        -22.6384    2.5312   25.3809 Cl      1  UNL1       -0.0803
     37 C         -29.4171   -0.2546   28.2285 C.3     1  UNL1        0.0267
     38 C         -27.9061   -0.4975   28.4395 C.3     1  UNL1        0.0192
     39 C         -30.7553    0.1718   28.5350 C.3     1  UNL1        0.1509
     40 S         -31.8183   -1.2812   28.7983 S.O2    1  UNL1       -0.0082
     41 C         -26.9475    0.2619   29.2071 C.3     1  UNL1        0.0739
     42 C         -24.5907    1.0100   28.8321 C.3     1  UNL1        0.1570
     43 O         -31.2094   -2.0986   29.7728 O.2     1  UNL1       -0.1729
     44 O         -22.2378   -0.5223   29.5805 O.2     1  UNL1       -0.2855
     45 O         -32.1257   -1.7585   27.4844 O.2     1  UNL1       -0.1729
@<TRIPOS>BOND
     1     1    28    1
     2     2     7    1
     3     2     1    1
     4     3     2    2
     5     4     3    1
     6     4     5    2
     7     5     6    1
     8     6     7    2
     9     8     1    1
    10     8     9    1
    11     8    12    1
    12     9    10    1
    13    10    11    1
    14    12    11    1
    15    13    34    1
    16    14    13    1
    17    14    15    1
    18    15    18    2
    19    16    17    1
    20    16    15    1
    21    19    14    2
    22    20    21    2
    23    20    19    1
    24    21    26    1
    25    22    21    1
    26    23    22    1
    27    24    23    1
    28    24    25    1
    29    26    27    1
    30    26    13    2
    31    28    41    1
    32    29    32    1
    33    30    36    1
    34    30    29    1
    35    32    35    1
    36    33    30    1
    37    33    42    1
    38    34    33    1
    39    34    42    1
    40    35    44    2
    41    37    38    1
    42    37    39    1
    43    38    41    1
    44    39    40    1
    45    40    31    1
    46    40    43    2
    47    42    28    1
    48    45    40    2
