@<TRIPOS>MOLECULE
outputs/IAG933/test6/raw/output_2942_IAG933_linker_design_.xyz
 41 45 0 0 0
SMALL
GASTEIGER

@<TRIPOS>ATOM
      1 C         -24.8550   -1.0120   30.1430 C.3     1  UNL1        0.1559
      2 C         -24.9730   -2.5050   29.7880 C.2     1  UNL1        0.0060
      3 C         -23.9060   -3.1730   29.1460 C.2     1  UNL1       -0.0019
      4 C         -23.9890   -4.5490   28.8530 C.2     1  UNL1       -0.0002
      5 C         -25.1370   -5.2800   29.2050 C.2     1  UNL1       -0.0000
      6 C         -26.2320   -4.6110   29.7840 C.2     1  UNL1       -0.0002
      7 C         -26.1550   -3.2320   30.0650 C.2     1  UNL1       -0.0019
      8 C         -25.3870   -0.6790   31.5710 C.3     1  UNL1        0.1042
      9 C         -25.1890    0.7730   32.0280 C.3     1  UNL1        0.0217
     10 C         -25.3360    0.6840   33.5440 C.3     1  UNL1        0.0203
     11 C         -24.8290   -0.7150   33.9050 C.3     1  UNL1        0.0888
     12 N         -24.7580   -1.4810   32.6460 N.3     1  UNL1       -0.2166
     13 C         -25.6880    1.6140   26.4610 C.2     1  UNL1        0.1231
     14 C         -26.2500    2.9200   26.3950 C.2     1  UNL1        0.0943
     15 C         -25.6420    4.0930   27.1230 C.2     1  UNL1        0.2679
     16 N         -25.6140    5.2520   26.4490 N.am    1  UNL1       -0.1997
     17 C         -25.0260    6.4790   26.9630 C.3     1  UNL1        0.1388
     18 O         -25.1430    3.9660   28.2430 O.2     1  UNL1       -0.2683
     19 C         -27.4380    3.0910   25.6450 C.2     1  UNL1        0.1083
     20 N         -28.0750    2.0890   25.0030 N.2     1  UNL1       -0.2080
     21 C         -27.5430    0.8490   25.0790 C.2     1  UNL1        0.2548
     22 O         -28.1930   -0.2080   24.4770 O.2     1  UNL1       -0.4558
     23 C         -29.4600    0.0050   23.8660 C.3     1  UNL1        0.2426
     24 C         -30.0650   -1.3770   23.5730 C.3     1  UNL1        0.2292
     25 O         -30.7290   -1.8780   24.7210 O.3     1  UNL1       -0.2162
     26 C         -26.3540    0.5760   25.7770 C.2     1  UNL1        0.2107
     27 F         -25.8600   -0.6810   25.7950 F       1  UNL1       -0.1976
     28 C         -20.5558    0.4872   28.3672 C.3     1  UNL1        0.1205
     29 O         -24.7955    0.1271   27.9769 O.3     1  UNL1       -0.1052
     30 F         -21.6508    2.3749   25.3423 F       1  UNL1       -0.1961
     31 C         -22.7860    2.3121   25.7482 C.3     1  UNL1        0.3435
     32 F         -23.7586    2.9520   25.1396 F       1  UNL1       -0.1961
     33 O         -23.8292   -0.4692   28.3184 O.3     1  UNL1       -0.1691
     34 C         -21.0290   -0.4815   28.8549 C.3     1  UNL1        0.0373
     35 C         -23.3267    1.5035   26.8883 C.3     1  UNL1        0.2082
     36 O         -23.3792   -0.8070   30.2246 O.3     1  UNL1       -0.3249
     37 N         -24.5713    1.1814   27.1910 N.3     1  UNL1       -0.1998
     38 C         -23.2631    0.1708   29.4669 C.3     1  UNL1        0.2738
     39 C         -21.7165    0.4096   29.3557 C.3     1  UNL1        0.0890
     40 O         -20.7897    1.5496   27.3951 O.3     1  UNL1       -0.3538
     41 C         -22.3481    1.8920   27.5645 C.3     1  UNL1        0.1726
@<TRIPOS>BOND
     1     1    36    1
     2     2     7    1
     3     2     1    1
     4     3     2    2
     5     4     3    1
     6     4     5    2
     7     5     6    1
     8     6     7    2
     9     8     1    1
    10     8     9    1
    11     8    12    1
    12     9    10    1
    13    10    11    1
    14    12    11    1
    15    13    37    1
    16    14    13    1
    17    14    15    1
    18    15    18    2
    19    16    17    1
    20    16    15    1
    21    19    14    2
    22    20    21    2
    23    20    19    1
    24    21    26    1
    25    22    21    1
    26    23    22    1
    27    24    23    1
    28    24    25    1
    29    26    27    1
    30    26    13    2
    31    28    34    1
    32    28    39    1
    33    29    33    1
    34    30    31    1
    35    32    31    1
    36    33    38    1
    37    35    31    1
    38    35    37    1
    39    35    41    1
    40    37    29    1
    41    38    36    1
    42    39    34    1
    43    39    38    1
    44    40    41    1
    45    40    28    1
