@<TRIPOS>MOLECULE
No_2944-gen_results/8p0m/2024-11-27-11-27-31/
 20 21 0 0 0
SMALL
GASTEIGER

@<TRIPOS>ATOM
      1 C         -28.0162   -0.8135   28.8779 C.ar    1  UNL1        0.1059
      2 C         -27.0636   -0.1189   28.6079 C.ar    1  UNL1        0.1736
      3 C         -27.0010    0.6913   27.4910 C.ar    1  UNL1        0.1678
      4 C         -28.1373    0.7363   26.6350 C.ar    1  UNL1        0.0385
      5 C         -29.2360    0.0765   27.0690 C.ar    1  UNL1        0.0824
      6 C         -30.3815    0.2048   26.2662 C.2     1  UNL1        0.3878
      7 C         -29.1803   -0.6422   28.1830 C.ar    1  UNL1        0.0155
      8 O         -31.3262   -0.3813   26.5663 O.co2   1  UNL1       -0.2406
      9 O         -30.2374    0.5818   24.9688 O.co2   1  UNL1       -0.2406
     10 F         -25.8490   -0.1777   29.3624 F       1  UNL1       -0.2016
     11 C         -27.9940   -1.6876   30.1687 C.2     1  UNL1        0.3480
     12 O         -28.3017   -1.3721   31.2188 O.3     1  UNL1       -0.4210
     13 O         -27.6104   -2.9472   29.9159 O.2     1  UNL1       -0.2444
     14 F         -25.8538    1.3609   27.1540 F       1  UNL1       -0.2018
     15 C         -29.5378   -0.9640   31.5389 C.ar    1  UNL1        0.1488
     16 C         -29.6587    0.3796   31.8438 C.ar    1  UNL1        0.0376
     17 C         -30.7980    1.0566   31.4161 C.ar    1  UNL1        0.0031
     18 C         -31.9459    0.3066   31.1383 C.ar    1  UNL1        0.0002
     19 C         -31.8150   -1.0694   30.9666 C.ar    1  UNL1        0.0031
     20 C         -30.5625   -1.7071   31.0592 C.ar    1  UNL1        0.0376
@<TRIPOS>BOND
     1     5     6    1
     2     6     8   ar
     3     6     9   ar
     4     2    10    1
     5     1    11    1
     6    11    12    1
     7    11    13    2
     8     3    14    1
     9    12    15    1
    10    15    16   ar
    11    16    17   ar
    12    17    18   ar
    13    18    19   ar
    14    19    20   ar
    15    20    15   ar
    16     1     2   ar
    17     2     3   ar
    18     3     4   ar
    19     4     5   ar
    20     5     7   ar
    21     7     1   ar
