@<TRIPOS>MOLECULE
No_2945-gen_results/8p0m/2024-11-27-11-27-31/
 15 17 0 0 0
SMALL
GASTEIGER

@<TRIPOS>ATOM
      1 CL        -28.1493   -0.8198   28.9079 Cl      1  UNL1       -0.0822
      2 C         -27.8339    0.4961   29.0598 C.ar    1  UNL1        0.0576
      3 C         -27.5135    1.2383   28.0485 C.ar    1  UNL1        0.0106
      4 C         -27.4902    0.6482   26.7008 C.ar    1  UNL1        0.0008
      5 C         -26.9011    1.1408   25.5350 C.ar    1  UNL1        0.0000
      6 C         -26.3688    2.4667   25.6553 C.ar    1  UNL1        0.0000
      7 C         -26.4093    3.2084   26.8349 C.ar    1  UNL1        0.0000
      8 C         -26.8991    2.6051   28.0022 C.ar    1  UNL1        0.0008
      9 C         -26.8012    0.7062   30.1754 C.ar    1  UNL1        0.0106
     10 C         -26.7701    0.0246   31.2311 C.ar    1  UNL1        0.0008
     11 C         -25.8492    0.2527   32.3570 C.ar    1  UNL1        0.0000
     12 C         -25.0165    1.3981   32.2808 C.ar    1  UNL1        0.0000
     13 C         -25.0780    2.2321   31.1008 C.ar    1  UNL1        0.0000
     14 C         -25.9806    1.9267   30.1013 C.ar    1  UNL1        0.0008
     15 C         -26.0262    2.8149   28.9674 C.ar    1  UNL1        0.0001
@<TRIPOS>BOND
     1     1     2    1
     2     2     3   ar
     3     8    15   ar
     4    15    14   ar
     5     9     2   ar
     6     3     4   ar
     7     4     5   ar
     8     5     6   ar
     9     6     7   ar
    10     7     8   ar
    11     8     3   ar
    12     9    10   ar
    13    10    11   ar
    14    11    12   ar
    15    12    13   ar
    16    13    14   ar
    17    14     9   ar
