@<TRIPOS>MOLECULE
outputs/IAG933/test6/raw/output_2948_IAG933_linker_design_.xyz
 38 42 0 0 0
SMALL
GASTEIGER

@<TRIPOS>ATOM
      1 C         -24.8550   -1.0120   30.1430 C.3     1  UNL1        0.1164
      2 C         -24.9730   -2.5050   29.7880 C.2     1  UNL1       -0.0125
      3 C         -23.9060   -3.1730   29.1460 C.2     1  UNL1       -0.0038
      4 C         -23.9890   -4.5490   28.8530 C.2     1  UNL1       -0.0003
      5 C         -25.1370   -5.2800   29.2050 C.2     1  UNL1       -0.0000
      6 C         -26.2320   -4.6110   29.7840 C.2     1  UNL1       -0.0003
      7 C         -26.1550   -3.2320   30.0650 C.2     1  UNL1       -0.0038
      8 C         -25.3870   -0.6790   31.5710 C.3     1  UNL1        0.0855
      9 C         -25.1890    0.7730   32.0280 C.3     1  UNL1        0.0197
     10 C         -25.3360    0.6840   33.5440 C.3     1  UNL1        0.0203
     11 C         -24.8290   -0.7150   33.9050 C.3     1  UNL1        0.0887
     12 N         -24.7580   -1.4810   32.6460 N.3     1  UNL1       -0.2186
     13 C         -25.6880    1.6140   26.4610 C.2     1  UNL1        0.0396
     14 C         -26.2500    2.9200   26.3950 C.2     1  UNL1        0.0745
     15 C         -25.6420    4.0930   27.1230 C.2     1  UNL1        0.2662
     16 N         -25.6140    5.2520   26.4490 N.am    1  UNL1       -0.1997
     17 C         -25.0260    6.4790   26.9630 C.3     1  UNL1        0.1388
     18 O         -25.1430    3.9660   28.2430 O.2     1  UNL1       -0.2683
     19 C         -27.4380    3.0910   25.6450 C.2     1  UNL1        0.1065
     20 N         -28.0750    2.0890   25.0030 N.2     1  UNL1       -0.2081
     21 C         -27.5430    0.8490   25.0790 C.2     1  UNL1        0.2530
     22 O         -28.1930   -0.2080   24.4770 O.2     1  UNL1       -0.4558
     23 C         -29.4600    0.0050   23.8660 C.3     1  UNL1        0.2426
     24 C         -30.0650   -1.3770   23.5730 C.3     1  UNL1        0.2292
     25 O         -30.7290   -1.8780   24.7210 O.3     1  UNL1       -0.2162
     26 C         -26.3540    0.5760   25.7770 C.2     1  UNL1        0.1910
     27 F         -25.8600   -0.6810   25.7950 F       1  UNL1       -0.1995
     28 N         -23.4512    0.7134   29.1358 N.pl3   1  UNL1       -0.1465
     29 C         -25.5080   -0.3002   28.9975 C.2     1  UNL1        0.2481
     30 F         -23.3474    2.7770   25.2326 F       1  UNL1       -0.1990
     31 O         -26.6029   -0.6132   28.5411 O.2     1  UNL1       -0.2729
     32 C         -21.2179    1.4864   27.7051 C.3     1  UNL1        0.1892
     33 O         -21.4771    2.1090   26.3465 O.3     1  UNL1       -0.3173
     34 C         -22.7626    2.0732   26.1811 C.3     1  UNL1        0.3014
     35 C         -24.6136    1.2039   27.3486 C.3     1  UNL1        0.1459
     36 C         -22.6067    1.1497   28.1012 C.2     1  UNL1        0.0940
     37 C         -23.3272    1.3988   27.0859 C.2     1  UNL1        0.0554
     38 N         -24.6729    0.6096   28.5297 N.am    1  UNL1       -0.1832
@<TRIPOS>BOND
     1     1    29    1
     2     2     7    1
     3     2     1    1
     4     3     2    2
     5     4     3    1
     6     4     5    2
     7     5     6    1
     8     6     7    2
     9     8     1    1
    10     8     9    1
    11     8    12    1
    12     9    10    1
    13    10    11    1
    14    12    11    1
    15    14    13    1
    16    14    15    1
    17    15    18    2
    18    16    17    1
    19    16    15    1
    20    19    14    2
    21    20    21    2
    22    20    19    1
    23    21    26    1
    24    22    21    1
    25    23    22    1
    26    24    23    1
    27    24    25    1
    28    26    27    1
    29    26    13    2
    30    31    29    2
    31    32    36    1
    32    33    32    1
    33    34    30    1
    34    34    33    1
    35    34    37    1
    36    35    13    1
    37    35    38    1
    38    36    28    1
    39    37    35    1
    40    37    36    2
    41    38    29   am
    42    38    28    1
