@<TRIPOS>MOLECULE
outputs/IAG933/test6/raw/output_2952_IAG933_linker_design_.xyz
 47 52 0 0 0
SMALL
GASTEIGER

@<TRIPOS>ATOM
      1 C         -24.8550   -1.0120   30.1430 C.3     1  UNL1        0.0442
      2 C         -24.9730   -2.5050   29.7880 C.2     1  UNL1       -0.0208
      3 C         -23.9060   -3.1730   29.1460 C.2     1  UNL1       -0.0042
      4 C         -23.9890   -4.5490   28.8530 C.2     1  UNL1       -0.0003
      5 C         -25.1370   -5.2800   29.2050 C.2     1  UNL1       -0.0000
      6 C         -26.2320   -4.6110   29.7840 C.2     1  UNL1       -0.0003
      7 C         -26.1550   -3.2320   30.0650 C.2     1  UNL1       -0.0042
      8 C         -25.3870   -0.6790   31.5710 C.3     1  UNL1        0.0772
      9 C         -25.1890    0.7730   32.0280 C.3     1  UNL1        0.0192
     10 C         -25.3360    0.6840   33.5440 C.3     1  UNL1        0.0202
     11 C         -24.8290   -0.7150   33.9050 C.3     1  UNL1        0.0887
     12 N         -24.7580   -1.4810   32.6460 N.3     1  UNL1       -0.2191
     13 C         -25.6880    1.6140   26.4610 C.3     1  UNL1        0.1396
     14 C         -26.2500    2.9200   26.3950 C.2     1  UNL1        0.0518
     15 C         -25.6420    4.0930   27.1230 C.2     1  UNL1        0.2138
     16 N         -25.6140    5.2520   26.4490 N.pl3   1  UNL1       -0.2036
     17 C         -25.0260    6.4790   26.9630 C.3     1  UNL1        0.1387
     18 O         -25.1430    3.9660   28.2430 O.2     1  UNL1       -0.4078
     19 C         -27.4380    3.0910   25.6450 C.3     1  UNL1        0.1566
     20 N         -28.0750    2.0890   25.0030 N.2     1  UNL1       -0.2346
     21 C         -27.5430    0.8490   25.0790 C.2     1  UNL1        0.2317
     22 O         -28.1930   -0.2080   24.4770 O.2     1  UNL1       -0.4587
     23 C         -29.4600    0.0050   23.8660 C.3     1  UNL1        0.2423
     24 C         -30.0650   -1.3770   23.5730 C.3     1  UNL1        0.2292
     25 O         -30.7290   -1.8780   24.7210 O.3     1  UNL1       -0.2162
     26 C         -26.3540    0.5760   25.7770 C.3     1  UNL1        0.2574
     27 F         -25.8600   -0.6810   25.7950 F       1  UNL1       -0.2251
     28 C         -25.2735    3.0016   29.3113 C.2     1  UNL1        0.3118
     29 C         -29.5200    1.9040   28.6261 C.3     1  UNL1        0.0049
     30 C         -23.0763    2.1402   25.1396 C.3     1  UNL1        0.0374
     31 C         -31.6241    2.6622   27.7173 C.3     1  UNL1        0.0359
     32 C         -28.3158    3.7203   29.1576 C.2     1  UNL1       -0.0066
     33 C         -23.3504    1.1118   27.2671 C.3     1  UNL1        0.1365
     34 O         -31.2604    2.8675   25.3038 O.3     1  UNL1       -0.2204
     35 O         -21.1396    1.7364   27.2658 O.3     1  UNL1       -0.2186
     36 C         -22.1631    1.2572   28.2880 C.3     1  UNL1        0.2042
     37 N         -24.7784    1.3326   27.5219 N.pl3   1  UNL1       -0.2979
     38 C         -25.2054    1.4068   28.9712 C.2     1  UNL1        0.0988
     39 O         -26.1250    3.8097   30.1502 O.2     1  UNL1       -0.4203
     40 C         -25.7212   -0.1177   29.1707 C.3     1  UNL1        0.0534
     41 C         -31.9939    3.3324   26.4293 C.3     1  UNL1        0.1821
     42 C         -22.8373    2.0982   26.2502 C.3     1  UNL1        0.1726
     43 C         -28.4057    2.3471   29.3212 C.3     1  UNL1        0.0252
     44 C         -29.5314    4.1461   28.5014 C.3     1  UNL1        0.0253
     45 O         -21.5741    1.7074   26.1030 O.3     1  UNL1       -0.2212
     46 C         -30.2489    2.9670   28.2696 C.3     1  UNL1        0.0071
     47 C         -27.0678    4.5166   29.6450 C.2     1  UNL1        0.1744
@<TRIPOS>BOND
     1     1    40    1
     2     2     7    1
     3     2     1    1
     4     3     2    2
     5     4     3    1
     6     4     5    2
     7     5     6    1
     8     6     7    2
     9     8     1    1
    10     8     9    1
    11     8    12    1
    12     9    10    1
    13    10    11    1
    14    12    11    1
    15    13    14    1
    16    13    37    1
    17    14    15    2
    18    15    18    1
    19    16    17    1
    20    16    15    1
    21    18    28    1
    22    19    14    1
    23    20    21    2
    24    20    19    1
    25    21    26    1
    26    22    21    1
    27    23    22    1
    28    24    23    1
    29    24    25    1
    30    26    27    1
    31    26    13    1
    32    28    39    1
    33    29    43    1
    34    32    43    1
    35    32    47    2
    36    33    37    1
    37    33    36    1
    38    34    41    1
    39    35    36    1
    40    37    38    1
    41    38    40    1
    42    38    28    2
    43    41    31    1
    44    42    30    1
    45    42    33    1
    46    44    32    1
    47    45    42    1
    48    45    35    1
    49    46    31    1
    50    46    44    1
    51    46    29    1
    52    47    39    1
