@<TRIPOS>MOLECULE
outputs/IAG933/test6/raw/output_2953_IAG933_linker_design_.xyz
 48 52 0 0 0
SMALL
GASTEIGER

@<TRIPOS>ATOM
      1 C         -24.8550   -1.0120   30.1430 C.3     1  UNL1        0.1550
      2 C         -24.9730   -2.5050   29.7880 C.2     1  UNL1        0.0060
      3 C         -23.9060   -3.1730   29.1460 C.2     1  UNL1       -0.0019
      4 C         -23.9890   -4.5490   28.8530 C.2     1  UNL1       -0.0002
      5 C         -25.1370   -5.2800   29.2050 C.2     1  UNL1       -0.0000
      6 C         -26.2320   -4.6110   29.7840 C.2     1  UNL1       -0.0002
      7 C         -26.1550   -3.2320   30.0650 C.2     1  UNL1       -0.0019
      8 C         -25.3870   -0.6790   31.5710 C.3     1  UNL1        0.1061
      9 C         -25.1890    0.7730   32.0280 C.3     1  UNL1        0.0466
     10 C         -25.3360    0.6840   33.5440 C.3     1  UNL1        0.0224
     11 C         -24.8290   -0.7150   33.9050 C.3     1  UNL1        0.0889
     12 N         -24.7580   -1.4810   32.6460 N.3     1  UNL1       -0.2166
     13 C         -25.6880    1.6140   26.4610 C.2     1  UNL1        0.0407
     14 C         -26.2500    2.9200   26.3950 C.2     1  UNL1        0.0744
     15 C         -25.6420    4.0930   27.1230 C.2     1  UNL1        0.2228
     16 N         -25.6140    5.2520   26.4490 N.2     1  UNL1       -0.2356
     17 C         -25.0260    6.4790   26.9630 C.3     1  UNL1        0.1550
     18 O         -25.1430    3.9660   28.2430 O.2     1  UNL1       -0.4450
     19 C         -27.4380    3.0910   25.6450 C.2     1  UNL1        0.1068
     20 N         -28.0750    2.0890   25.0030 N.2     1  UNL1       -0.2081
     21 C         -27.5430    0.8490   25.0790 C.2     1  UNL1        0.2533
     22 O         -28.1930   -0.2080   24.4770 O.2     1  UNL1       -0.4558
     23 C         -29.4600    0.0050   23.8660 C.3     1  UNL1        0.2426
     24 C         -30.0650   -1.3770   23.5730 C.3     1  UNL1        0.2292
     25 O         -30.7290   -1.8780   24.7210 O.3     1  UNL1       -0.2162
     26 C         -26.3540    0.5760   25.7770 C.2     1  UNL1        0.1931
     27 F         -25.8600   -0.6810   25.7950 F       1  UNL1       -0.1992
     28 C         -21.4901    1.2721   27.8173 C.3     1  UNL1        0.1959
     29 N         -24.8337    2.3309   30.1344 N.2     1  UNL1       -0.2361
     30 C         -27.2302    4.8526   33.0650 C.3     1  UNL1        0.0837
     31 O         -23.6671   -0.5175   29.0199 O.3     1  UNL1       -0.3344
     32 C         -26.2009    4.1493   29.4270 C.3     1  UNL1        0.3200
     33 F         -27.4363    6.5589   34.7035 F       1  UNL1       -0.2323
     34 O         -26.3678    2.9836   31.7503 O.2     1  UNL1       -0.4640
     35 C         -24.2421    1.1653   30.7936 C.3     1  UNL1        0.1516
     36 C         -25.3344    5.8892   34.1044 C.2     1  UNL1        0.0041
     37 C         -25.8574    3.0615   30.4938 C.2     1  UNL1        0.2467
     38 O         -28.0220    5.6702   29.1050 O.2     1  UNL1       -0.2672
     39 C         -25.0803    4.8751   32.0287 C.3     1  UNL1        0.0694
     40 C         -23.5550    0.7136   29.3684 C.3     1  UNL1        0.2132
     41 C         -22.0317    1.4657   26.4501 C.1     1  UNL1        0.0926
     42 C         -27.7180    4.5351   29.5290 C.2     1  UNL1        0.3104
     43 N         -22.5566    1.6580   28.8177 N.3     1  UNL1       -0.1737
     44 C         -24.5052    5.5317   33.0788 C.2     1  UNL1       -0.0243
     45 C         -26.3241    4.2591   32.2270 C.3     1  UNL1        0.1747
     46 N         -28.5493    3.8078   30.0063 N.am    1  UNL1       -0.0842
     47 N         -22.5062    1.7447   25.4842 N.1     1  UNL1       -0.1944
     48 C         -26.6933    5.7555   33.9535 C.3     1  UNL1        0.1863
@<TRIPOS>BOND
     1     1     2    1
     2     1     8    1
     3     2     7    1
     4     3     2    2
     5     4     3    1
     6     4     5    2
     7     5     6    1
     8     6     7    2
     9     8     9    1
    10     8    12    1
    11     9    10    1
    12    10    11    1
    13    12    11    1
    14    14    13    1
    15    14    15    1
    16    15    18    1
    17    16    17    1
    18    16    15    2
    19    19    14    2
    20    20    21    2
    21    20    19    1
    22    21    26    1
    23    22    21    1
    24    23    22    1
    25    24    23    1
    26    24    25    1
    27    26    27    1
    28    26    13    2
    29    28    43    1
    30    29    37    2
    31    30    48    1
    32    31    40    1
    33    31     1    1
    34    32    18    1
    35    32    42    1
    36    32    37    1
    37    35    29    1
    38    35     9    1
    39    37    34    1
    40    38    42    2
    41    39    45    1
    42    39    44    1
    43    40    43    1
    44    40    35    1
    45    41    28    1
    46    42    46    1
    47    44    36    2
    48    45    34    1
    49    45    30    1
    50    47    41    3
    51    48    36    1
    52    48    33    1
