@<TRIPOS>MOLECULE
No_2958-gen_results/8p0m/2024-11-27-11-27-31/
 27 28 0 0 0
SMALL
GASTEIGER

@<TRIPOS>ATOM
      1 C         -28.0162   -0.8135   28.8779 C.ar    1  UNL1        0.0376
      2 C         -27.0636   -0.1190   28.6079 C.ar    1  UNL1        0.0030
      3 C         -26.9287    1.1713   29.0083 C.ar    1  UNL1        0.0003
      4 C         -25.7702    2.0341   28.6884 C.ar    1  UNL1        0.0046
      5 C         -24.7141    1.4431   27.9188 C.ar    1  UNL1        0.0567
      6 C         -24.8590    0.0783   27.5836 C.ar    1  UNL1        0.0046
      7 C         -25.9647   -0.6606   27.9164 C.ar    1  UNL1        0.0002
      8 C         -29.2406   -0.2045   29.0738 C.ar    1  UNL1        0.1490
      9 C         -29.2782    1.1474   29.4856 C.ar    1  UNL1        0.0376
     10 C         -28.1299    1.9048   29.3190 C.ar    1  UNL1        0.0031
     11 C         -23.4496    2.0913   27.6809 C.2     1  UNL1        0.2842
     12 N         -22.3663    1.6214   27.2899 N.am    1  UNL1       -0.0837
     13 O         -23.5543    3.4182   27.7613 O.2     1  UNL1       -0.2667
     14 O         -30.3541   -0.9731   29.4166 O.3     1  UNL1       -0.4166
     15 C         -31.4332   -0.9521   28.5169 C.2     1  UNL1        0.4226
     16 C         -32.2160   -2.0856   28.6474 C.2     1  UNL1        0.4191
     17 O         -31.8459   -3.0565   29.1021 O.3     1  UNL1       -0.4286
     18 O         -33.3952   -2.0997   28.0796 O.2     1  UNL1       -0.2375
     19 O         -31.5436   -0.0474   27.7101 O.2     1  UNL1       -0.2371
     20 C         -32.2385   -4.4609   28.8163 C.3     1  UNL1        0.3177
     21 C         -31.2870   -5.3832   29.1711 C.2     1  UNL1        0.3667
     22 O         -31.0479   -6.2969   28.3534 O.2     1  UNL1       -0.2455
     23 O         -30.5322   -5.2565   30.2118 O.3     1  UNL1       -0.4188
     24 C         -29.2982   -4.7031   30.2050 C.2     1  UNL1        0.1783
     25 C         -28.6508   -4.6859   31.5626 C.2     1  UNL1        0.0146
     26 C         -29.7837   -4.8179   32.4714 C.3     1  UNL1        0.0293
     27 C         -30.7596   -5.6961   32.2308 C.3     1  UNL1        0.0051
@<TRIPOS>BOND
     1     5    11    1
     2    11    12   am
     3    11    13    2
     4     8    14    1
     5    14    15    1
     6    15    16    1
     7    16    17    1
     8    16    18    2
     9    15    19    2
    10    17    20    1
    11    20    21    1
    12    21    22    2
    13    21    23    1
    14    23    24    1
    15    24    25    2
    16    25    26    1
    17    26    27    1
    18     3     4   ar
    19     4     5   ar
    20     5     6   ar
    21     6     7   ar
    22     7     2   ar
    23     1     2   ar
    24     2     3   ar
    25     3    10   ar
    26    10     9   ar
    27     9     8   ar
    28     8     1   ar
