@<TRIPOS>MOLECULE
outputs/IAG933/test6/raw/output_296_IAG933_linker_design_.xyz
 42 46 0 0 0
SMALL
GASTEIGER

@<TRIPOS>ATOM
      1 C         -24.8550   -1.0120   30.1430 C.3     1  UNL1        0.1152
      2 C         -24.9730   -2.5050   29.7880 C.2     1  UNL1       -0.0027
      3 C         -23.9060   -3.1730   29.1460 C.2     1  UNL1       -0.0026
      4 C         -23.9890   -4.5490   28.8530 C.2     1  UNL1       -0.0003
      5 C         -25.1370   -5.2800   29.2050 C.2     1  UNL1       -0.0000
      6 C         -26.2320   -4.6110   29.7840 C.2     1  UNL1       -0.0003
      7 C         -26.1550   -3.2320   30.0650 C.2     1  UNL1       -0.0026
      8 C         -25.3870   -0.6790   31.5710 C.3     1  UNL1        0.0954
      9 C         -25.1890    0.7730   32.0280 C.3     1  UNL1        0.0209
     10 C         -25.3360    0.6840   33.5440 C.3     1  UNL1        0.0203
     11 C         -24.8290   -0.7150   33.9050 C.3     1  UNL1        0.0888
     12 N         -24.7580   -1.4810   32.6460 N.3     1  UNL1       -0.2174
     13 C         -25.6880    1.6140   26.4610 C.2     1  UNL1        0.0283
     14 C         -26.2500    2.9200   26.3950 C.2     1  UNL1        0.0733
     15 C         -25.6420    4.0930   27.1230 C.2     1  UNL1        0.2661
     16 N         -25.6140    5.2520   26.4490 N.am    1  UNL1       -0.1997
     17 C         -25.0260    6.4790   26.9630 C.3     1  UNL1        0.1388
     18 O         -25.1430    3.9660   28.2430 O.2     1  UNL1       -0.2683
     19 C         -27.4380    3.0910   25.6450 C.2     1  UNL1        0.1064
     20 N         -28.0750    2.0890   25.0030 N.2     1  UNL1       -0.2081
     21 C         -27.5430    0.8490   25.0790 C.2     1  UNL1        0.2530
     22 O         -28.1930   -0.2080   24.4770 O.2     1  UNL1       -0.4558
     23 C         -29.4600    0.0050   23.8660 C.3     1  UNL1        0.2426
     24 C         -30.0650   -1.3770   23.5730 C.3     1  UNL1        0.2292
     25 O         -30.7290   -1.8780   24.7210 O.3     1  UNL1       -0.2162
     26 C         -26.3540    0.5760   25.7770 C.2     1  UNL1        0.1899
     27 F         -25.8600   -0.6810   25.7950 F       1  UNL1       -0.1996
     28 C         -22.0544    1.6721   27.3437 C.2     1  UNL1        0.1753
     29 C         -27.4504    3.2023   30.5457 C.2     1  UNL1        0.0013
     30 C         -23.2244    0.6920   29.1275 C.2     1  UNL1        0.0136
     31 F         -20.8666    2.1264   26.9013 F       1  UNL1       -0.2011
     32 C         -28.7915    2.8661   30.2912 C.2     1  UNL1        0.0001
     33 C         -29.0661    1.7027   29.5731 C.2     1  UNL1        0.0013
     34 C         -26.4082    2.3667   30.1244 C.2     1  UNL1        0.0148
     35 C         -28.0270    0.8706   29.1375 C.2     1  UNL1        0.0148
     36 C         -26.6986    1.1534   29.4426 C.2     1  UNL1        0.0516
     37 N         -25.6224    0.0454   29.2057 N.pl3   1  UNL1       -0.2859
     38 C         -24.4723    1.3312   27.2111 C.3     1  UNL1        0.1248
     39 C         -22.0788    1.1774   28.5975 C.2     1  UNL1        0.0336
     40 C         -24.4620    0.6336   28.4910 C.2     1  UNL1        0.0403
     41 O         -23.2165    2.1910   25.3673 O.2     1  UNL1       -0.2882
     42 C         -23.2553    1.7630   26.5685 C.2     1  UNL1        0.2093
@<TRIPOS>BOND
     1     1    37    1
     2     2     7    1
     3     2     1    1
     4     3     2    2
     5     4     3    1
     6     4     5    2
     7     5     6    1
     8     6     7    2
     9     8     1    1
    10     8     9    1
    11     8    12    1
    12     9    10    1
    13    10    11    1
    14    12    11    1
    15    14    13    1
    16    14    15    1
    17    15    18    2
    18    16    17    1
    19    16    15    1
    20    19    14    2
    21    20    21    2
    22    20    19    1
    23    21    26    1
    24    22    21    1
    25    23    22    1
    26    24    23    1
    27    24    25    1
    28    26    27    1
    29    26    13    2
    30    28    39    2
    31    31    28    1
    32    32    29    1
    33    33    32    2
    34    34    29    2
    35    35    36    2
    36    35    33    1
    37    36    34    1
    38    37    36    1
    39    38    13    1
    40    38    40    1
    41    39    30    1
    42    40    30    2
    43    40    37    1
    44    41    42    2
    45    42    38    1
    46    42    28    1
