@<TRIPOS>MOLECULE
No_2960-gen_results/8p0m/2024-11-27-11-27-31/
 35 37 0 0 0
SMALL
GASTEIGER

@<TRIPOS>ATOM
      1 C         -28.0162   -0.8135   28.8779 C.ar    1  UNL1        0.0048
      2 C         -27.0636   -0.1189   28.6079 C.ar    1  UNL1        0.0094
      3 C         -25.7923   -0.4302   29.0761 C.ar    1  UNL1        0.0344
      4 C         -24.5456    0.3494   28.8225 C.ar    1  UNL1        0.1431
      5 C         -24.6586    1.4196   27.8878 C.ar    1  UNL1        0.0892
      6 C         -25.9471    1.6811   27.3792 C.ar    1  UNL1        0.0143
      7 C         -27.0439    0.9739   27.6871 C.ar    1  UNL1        0.0801
      8 C         -28.0241   -1.6475   30.1262 C.ar    1  UNL1        0.0536
      9 C         -26.7278   -2.0846   30.5807 C.ar    1  UNL1        0.0046
     10 C         -25.5915   -1.4064   30.1489 C.ar    1  UNL1        0.0032
     11 C         -23.4486    2.1675   27.5241 C.2     1  UNL1        0.2513
     12 N         -22.4839    1.9324   27.0253 N.2     1  UNL1       -0.1069
     13 O         -23.4554    3.4443   28.0791 O.2     1  UNL1       -0.4317
     14 C         -29.1663   -2.4602   30.5289 C.2     1  UNL1        0.2490
     15 O         -29.1776   -3.6396   30.7536 O.2     1  UNL1       -0.2699
     16 N         -30.1851   -1.6840   31.0598 N.am    1  UNL1       -0.2755
     17 C         -31.3959   -2.3475   31.6104 C.3     1  UNL1        0.1049
     18 C         -28.3284    1.3576   27.0392 C.2     1  UNL1        0.3878
     19 O         -28.5105    1.4568   25.8948 O.co2   1  UNL1       -0.2406
     20 O         -29.3929    1.4290   27.8412 O.co2   1  UNL1       -0.2406
     21 C         -32.3245   -1.6705   31.7906 C.3     1  UNL1        0.1232
     22 C         -32.3636   -0.2050   31.5448 C.3     1  UNL1        0.0147
     23 C         -31.2101    0.3922   30.9940 C.3     1  UNL1        0.0221
     24 C         -30.1884   -0.3209   30.7129 C.3     1  UNL1        0.0937
     25 C         -33.5961   -2.1587   32.4391 C.2     1  UNL1        0.3660
     26 O         -33.5221   -2.7690   33.4013 O.co2   1  UNL1       -0.2456
     27 O         -34.6772   -1.6150   32.0095 O.co2   1  UNL1       -0.2456
     28 O         -23.3763    0.0590   29.2961 O.3     1  UNL1       -0.4725
     29 C         -22.6237   -0.9758   28.7667 C.3     1  UNL1        0.2408
     30 C         -21.6357   -1.3558   29.9074 C.3     1  UNL1        0.2292
     31 O         -22.2498   -1.2017   31.0322 O.3     1  UNL1       -0.2162
     32 C         -24.7432    3.7285   28.6909 C.2     1  UNL1        0.1815
     33 C         -25.5927    4.7257   28.0800 C.2     1  UNL1        0.0407
     34 C         -26.0088    5.5082   28.5593 C.2     1  UNL1        0.0032
     35 C         -26.8263    6.6133   27.8710 C.2     1  UNL1        0.0001
@<TRIPOS>BOND
     1     5    11    1
     2    11    12    2
     3    11    13    1
     4     8    14    1
     5    14    15    2
     6    14    16   am
     7    16    17    1
     8     7    18    1
     9    18    19   ar
    10    18    20   ar
    11    21    22    1
    12    16    24    1
    13    23    24    1
    14    21    25    1
    15    25    26   ar
    16    25    27   ar
    17     4    28    1
    18    28    29    1
    19    29    30    1
    20    30    31    1
    21    13    32    1
    22    32    33    2
    23    33    34    1
    24    34    35    2
    25    17    21    1
    26    22    23    1
    27     3     4   ar
    28     4     5   ar
    29     5     6   ar
    30     6     7   ar
    31     7     2   ar
    32     1     2   ar
    33     2     3   ar
    34     3    10   ar
    35    10     9   ar
    36     9     8   ar
    37     8     1   ar
