@<TRIPOS>MOLECULE
outputs/IAG933/test6/raw/output_2962_IAG933_linker_design_.xyz
 44 48 0 0 0
SMALL
GASTEIGER

@<TRIPOS>ATOM
      1 C         -24.8550   -1.0120   30.1430 C.3     1  UNL1        0.0437
      2 C         -24.9730   -2.5050   29.7880 C.2     1  UNL1       -0.0208
      3 C         -23.9060   -3.1730   29.1460 C.2     1  UNL1       -0.0042
      4 C         -23.9890   -4.5490   28.8530 C.2     1  UNL1       -0.0003
      5 C         -25.1370   -5.2800   29.2050 C.2     1  UNL1       -0.0000
      6 C         -26.2320   -4.6110   29.7840 C.2     1  UNL1       -0.0003
      7 C         -26.1550   -3.2320   30.0650 C.2     1  UNL1       -0.0042
      8 C         -25.3870   -0.6790   31.5710 C.3     1  UNL1        0.0772
      9 C         -25.1890    0.7730   32.0280 C.3     1  UNL1        0.0208
     10 C         -25.3360    0.6840   33.5440 C.3     1  UNL1        0.0203
     11 C         -24.8290   -0.7150   33.9050 C.3     1  UNL1        0.0887
     12 N         -24.7580   -1.4810   32.6460 N.3     1  UNL1       -0.2191
     13 C         -25.6880    1.6140   26.4610 C.3     1  UNL1        0.1060
     14 C         -26.2500    2.9200   26.3950 C.2     1  UNL1        0.0602
     15 C         -25.6420    4.0930   27.1230 C.2     1  UNL1        0.2628
     16 N         -25.6140    5.2520   26.4490 N.am    1  UNL1       -0.2000
     17 C         -25.0260    6.4790   26.9630 C.3     1  UNL1        0.1388
     18 O         -25.1430    3.9660   28.2430 O.2     1  UNL1       -0.2686
     19 C         -27.4380    3.0910   25.6450 C.2     1  UNL1        0.1025
     20 N         -28.0750    2.0890   25.0030 N.2     1  UNL1       -0.2118
     21 C         -27.5430    0.8490   25.0790 C.2     1  UNL1        0.2345
     22 O         -28.1930   -0.2080   24.4770 O.2     1  UNL1       -0.4585
     23 C         -29.4600    0.0050   23.8660 C.3     1  UNL1        0.2423
     24 C         -30.0650   -1.3770   23.5730 C.3     1  UNL1        0.2292
     25 O         -30.7290   -1.8780   24.7210 O.3     1  UNL1       -0.2162
     26 C         -26.3540    0.5760   25.7770 C.3     1  UNL1        0.2453
     27 F         -25.8600   -0.6810   25.7950 F       1  UNL1       -0.2265
     28 C         -22.2870    1.5188   27.9983 C.2     1  UNL1        0.0652
     29 N         -23.8079    1.3234   28.2939 N.pl3   1  UNL1       -0.2889
     30 C         -25.3177    1.1822   29.2765 C.3     1  UNL1        0.0967
     31 C         -25.8177    6.0229   31.9047 C.2     1  UNL1        0.2605
     32 N         -24.6712    6.7294   31.9892 N.2     1  UNL1       -0.1072
     33 C         -21.9147    1.8396   26.5773 C.2     1  UNL1        0.0170
     34 N         -26.1995    3.8897   31.5571 N.3     1  UNL1       -0.2635
     35 O         -26.6634    6.4758   32.9829 O.2     1  UNL1       -0.3638
     36 N         -25.7829    7.4006   33.6055 N.3     1  UNL1       -0.0069
     37 C         -25.7063    1.5859   30.7016 C.3     1  UNL1        0.0375
     38 C         -26.0390    3.9180   33.0895 C.3     1  UNL1        0.0900
     39 C         -23.0802    1.9410   25.6512 C.2     1  UNL1        0.0121
     40 C         -26.1373    8.3277   34.4965 C.3     1  UNL1        0.1620
     41 C         -24.1053    1.4451   26.8324 C.2     1  UNL1        0.0359
     42 C         -25.0552    2.9769   31.0914 C.3     1  UNL1        0.0743
     43 N         -24.6422    7.2061   33.1465 N.pl3   1  UNL1       -0.0246
     44 C         -25.8706    5.0532   30.7324 C.3     1  UNL1        0.1621
@<TRIPOS>BOND
     1     2     7    1
     2     2     1    1
     3     3     2    2
     4     4     3    1
     5     4     5    2
     6     5     6    1
     7     6     7    2
     8     8     1    1
     9     8     9    1
    10     8    12    1
    11     9    37    1
    12     9    10    1
    13    10    11    1
    14    12    11    1
    15    13    41    1
    16    14    13    1
    17    14    15    1
    18    15    18    2
    19    16    17    1
    20    16    15    1
    21    19    14    2
    22    20    21    2
    23    20    19    1
    24    21    26    1
    25    22    21    1
    26    23    22    1
    27    24    23    1
    28    24    25    1
    29    26    27    1
    30    26    13    1
    31    28    29    1
    32    29    30    1
    33    31    32    2
    34    31    35    1
    35    32    43    1
    36    33    28    2
    37    34    38    1
    38    35    36    1
    39    36    40    1
    40    37    30    1
    41    37    42    1
    42    39    33    1
    43    39    41    2
    44    41    29    1
    45    42    34    1
    46    43    36    1
    47    44    34    1
    48    44    31    1
