@<TRIPOS>MOLECULE
outputs/IAG933/test6/raw/output_2964_IAG933_linker_design_.xyz
 48 52 0 0 0
SMALL
GASTEIGER

@<TRIPOS>ATOM
      1 C         -24.8550   -1.0120   30.1430 C.3     1  UNL1        0.0392
      2 C         -24.9730   -2.5050   29.7880 C.2     1  UNL1       -0.0211
      3 C         -23.9060   -3.1730   29.1460 C.2     1  UNL1       -0.0042
      4 C         -23.9890   -4.5490   28.8530 C.2     1  UNL1       -0.0003
      5 C         -25.1370   -5.2800   29.2050 C.2     1  UNL1       -0.0000
      6 C         -26.2320   -4.6110   29.7840 C.2     1  UNL1       -0.0003
      7 C         -26.1550   -3.2320   30.0650 C.2     1  UNL1       -0.0042
      8 C         -25.3870   -0.6790   31.5710 C.3     1  UNL1        0.0768
      9 C         -25.1890    0.7730   32.0280 C.3     1  UNL1        0.0192
     10 C         -25.3360    0.6840   33.5440 C.3     1  UNL1        0.0202
     11 C         -24.8290   -0.7150   33.9050 C.3     1  UNL1        0.0887
     12 N         -24.7580   -1.4810   32.6460 N.3     1  UNL1       -0.2191
     13 C         -25.6880    1.6140   26.4610 C.3     1  UNL1        0.0702
     14 C         -26.2500    2.9200   26.3950 C.2     1  UNL1        0.0548
     15 C         -25.6420    4.0930   27.1230 C.2     1  UNL1        0.2624
     16 N         -25.6140    5.2520   26.4490 N.am    1  UNL1       -0.2000
     17 C         -25.0260    6.4790   26.9630 C.3     1  UNL1        0.1388
     18 O         -25.1430    3.9660   28.2430 O.2     1  UNL1       -0.2687
     19 C         -27.4380    3.0910   25.6450 C.2     1  UNL1        0.1021
     20 N         -28.0750    2.0890   25.0030 N.2     1  UNL1       -0.2119
     21 C         -27.5430    0.8490   25.0790 C.2     1  UNL1        0.2341
     22 O         -28.1930   -0.2080   24.4770 O.2     1  UNL1       -0.4585
     23 C         -29.4600    0.0050   23.8660 C.3     1  UNL1        0.2423
     24 C         -30.0650   -1.3770   23.5730 C.3     1  UNL1        0.2292
     25 O         -30.7290   -1.8780   24.7210 O.3     1  UNL1       -0.2162
     26 C         -26.3540    0.5760   25.7770 C.3     1  UNL1        0.2400
     27 F         -25.8600   -0.6810   25.7950 F       1  UNL1       -0.2269
     28 S         -28.4383    1.2868   29.6848 S.O2    1  UNL1       -0.0089
     29 BR        -27.8467    4.0573   32.5778 Br      1  UNL1       -0.0759
     30 C         -22.5516    2.2836   26.8991 C.3     1  UNL1        0.0108
     31 C         -29.9920    3.6660   30.8589 C.3     1  UNL1        0.0424
     32 S         -21.3343    0.8907   28.8838 S.3     1  UNL1       -0.1402
     33 C         -24.8762    1.2401   27.4635 C.3     1  UNL1        0.0092
     34 C         -28.4694    3.9748   30.8416 C.3     1  UNL1        0.0925
     35 C         -25.6391    0.8607   28.7913 C.3     1  UNL1        0.0252
     36 C         -27.2154    0.4083   28.8009 C.3     1  UNL1        0.1509
     37 C         -30.9661    4.2399   29.9557 C.2     1  UNL1       -0.0249
     38 C         -28.2784    5.3291   30.1553 C.2     1  UNL1       -0.0142
     39 C         -23.5914    1.2734   27.2423 C.3     1  UNL1        0.0014
     40 C         -22.8266    0.1929   29.2403 C.3     1  UNL1        0.0580
     41 C         -30.6008    5.3960   29.2260 C.2     1  UNL1       -0.0048
     42 C         -22.7043    2.1136   25.3928 C.3     1  UNL1        0.0009
     43 C         -24.4625    0.0460   29.3544 C.3     1  UNL1        0.0179
     44 O         -29.5464    1.3168   28.7119 O.2     1  UNL1       -0.1729
     45 C         -29.2990    5.9876   29.3667 C.2     1  UNL1       -0.0040
     46 C         -21.2367    1.6198   27.3747 C.3     1  UNL1        0.0575
     47 C         -27.6162    2.8388   30.1589 C.3     1  UNL1        0.1656
     48 O         -29.0366    0.6159   30.9059 O.2     1  UNL1       -0.1729
@<TRIPOS>BOND
     1     1     2    1
     2     2     7    1
     3     3     2    2
     4     4     3    1
     5     4     5    2
     6     5     6    1
     7     6     7    2
     8     8     1    1
     9     8     9    1
    10     8    12    1
    11     9    10    1
    12    10    11    1
    13    12    11    1
    14    13    14    1
    15    13    33    1
    16    14    15    1
    17    15    18    2
    18    16    17    1
    19    16    15    1
    20    19    14    2
    21    20    21    2
    22    20    19    1
    23    21    26    1
    24    22    21    1
    25    23    22    1
    26    24    23    1
    27    24    25    1
    28    26    27    1
    29    26    13    1
    30    28    47    1
    31    28    48    2
    32    30    42    1
    33    30    39    1
    34    30    46    1
    35    32    40    1
    36    33    39    1
    37    33    35    1
    38    34    31    1
    39    34    29    1
    40    35    36    1
    41    35    43    1
    42    36    28    1
    43    37    31    1
    44    38    34    1
    45    40    43    1
    46    41    45    1
    47    41    37    2
    48    43     1    1
    49    44    28    2
    50    45    38    2
    51    46    32    1
    52    47    34    1
