@<TRIPOS>MOLECULE
outputs/IAG933/test6/raw/output_2965_IAG933_linker_design_.xyz
 43 47 0 0 0
SMALL
GASTEIGER

@<TRIPOS>ATOM
      1 C         -24.8550   -1.0120   30.1430 C.3     1  UNL1        0.0437
      2 C         -24.9730   -2.5050   29.7880 C.2     1  UNL1       -0.0208
      3 C         -23.9060   -3.1730   29.1460 C.2     1  UNL1       -0.0042
      4 C         -23.9890   -4.5490   28.8530 C.2     1  UNL1       -0.0003
      5 C         -25.1370   -5.2800   29.2050 C.2     1  UNL1       -0.0000
      6 C         -26.2320   -4.6110   29.7840 C.2     1  UNL1       -0.0003
      7 C         -26.1550   -3.2320   30.0650 C.2     1  UNL1       -0.0042
      8 C         -25.3870   -0.6790   31.5710 C.3     1  UNL1        0.0776
      9 C         -25.1890    0.7730   32.0280 C.3     1  UNL1        0.0262
     10 C         -25.3360    0.6840   33.5440 C.3     1  UNL1        0.0207
     11 C         -24.8290   -0.7150   33.9050 C.3     1  UNL1        0.0887
     12 N         -24.7580   -1.4810   32.6460 N.3     1  UNL1       -0.2191
     13 C         -25.6880    1.6140   26.4610 C.3     1  UNL1        0.1749
     14 C         -26.2500    2.9200   26.3950 C.2     1  UNL1        0.0664
     15 C         -25.6420    4.0930   27.1230 C.2     1  UNL1        0.2630
     16 N         -25.6140    5.2520   26.4490 N.am    1  UNL1       -0.2000
     17 C         -25.0260    6.4790   26.9630 C.3     1  UNL1        0.1388
     18 O         -25.1430    3.9660   28.2430 O.2     1  UNL1       -0.2686
     19 C         -27.4380    3.0910   25.6450 C.2     1  UNL1        0.1027
     20 N         -28.0750    2.0890   25.0030 N.2     1  UNL1       -0.2118
     21 C         -27.5430    0.8490   25.0790 C.2     1  UNL1        0.2347
     22 O         -28.1930   -0.2080   24.4770 O.2     1  UNL1       -0.4585
     23 C         -29.4600    0.0050   23.8660 C.3     1  UNL1        0.2423
     24 C         -30.0650   -1.3770   23.5730 C.3     1  UNL1        0.2292
     25 O         -30.7290   -1.8780   24.7210 O.3     1  UNL1       -0.2162
     26 C         -26.3540    0.5760   25.7770 C.3     1  UNL1        0.2515
     27 F         -25.8600   -0.6810   25.7950 F       1  UNL1       -0.2262
     28 C         -24.3779    1.9758   30.0310 C.3     1  UNL1        0.2670
     29 N         -25.3367    1.6439   28.8162 N.2     1  UNL1       -0.0689
     30 N         -23.7087    1.5063   27.1089 N.pl3   1  UNL1       -0.1941
     31 C         -23.1955    1.7356   25.7951 C.3     1  UNL1        0.2021
     32 C         -26.1520    4.4996   31.4911 C.2     1  UNL1       -0.0255
     33 C         -26.3338    3.0900   30.8655 C.2     1  UNL1       -0.0220
     34 C         -26.8879    5.6684   31.3627 C.3     1  UNL1        0.0517
     35 C         -21.7542    2.1504   26.1158 C.3     1  UNL1        0.0551
     36 C         -24.7219    1.5231   27.5009 C.2     1  UNL1        0.3015
     37 C         -21.3592    1.6004   27.4928 C.3     1  UNL1        0.0551
     38 C         -22.7415    1.1796   27.9709 C.3     1  UNL1        0.2021
     39 C         -28.8836    4.4906   30.3498 C.2     1  UNL1       -0.0042
     40 C         -25.1472    2.1871   31.3565 C.3     1  UNL1        0.0769
     41 C         -27.4460    2.4032   29.9727 C.2     1  UNL1       -0.0045
     42 C         -28.6127    3.0892   29.8567 C.2     1  UNL1       -0.0007
     43 C         -28.2694    5.5745   30.8711 C.2     1  UNL1       -0.0214
@<TRIPOS>BOND
     1     2     7    1
     2     2     1    1
     3     3     2    2
     4     4     3    1
     5     4     5    2
     6     5     6    1
     7     6     7    2
     8     8     1    1
     9     8     9    1
    10     8    12    1
    11     9    40    1
    12     9    10    1
    13    10    11    1
    14    12    11    1
    15    13    36    1
    16    14    13    1
    17    14    15    1
    18    15    18    2
    19    16    17    1
    20    16    15    1
    21    19    14    2
    22    20    21    2
    23    20    19    1
    24    21    26    1
    25    22    21    1
    26    23    22    1
    27    24    23    1
    28    24    25    1
    29    26    27    1
    30    26    13    1
    31    29    28    1
    32    30    36    1
    33    30    38    1
    34    31    35    1
    35    31    30    1
    36    33    40    1
    37    33    32    2
    38    34    32    1
    39    35    37    1
    40    36    29    2
    41    37    38    1
    42    39    43    2
    43    40    28    1
    44    41    33    1
    45    42    41    2
    46    42    39    1
    47    43    34    1
