@<TRIPOS>MOLECULE
outputs/IAG933/test6/raw/output_2966_IAG933_linker_design_.xyz
 40 43 0 0 0
SMALL
GASTEIGER

@<TRIPOS>ATOM
      1 C         -24.8550   -1.0120   30.1430 C.3     1  UNL1        0.1266
      2 C         -24.9730   -2.5050   29.7880 C.2     1  UNL1       -0.0135
      3 C         -23.9060   -3.1730   29.1460 C.2     1  UNL1       -0.0040
      4 C         -23.9890   -4.5490   28.8530 C.2     1  UNL1       -0.0003
      5 C         -25.1370   -5.2800   29.2050 C.2     1  UNL1       -0.0000
      6 C         -26.2320   -4.6110   29.7840 C.2     1  UNL1       -0.0003
      7 C         -26.1550   -3.2320   30.0650 C.2     1  UNL1       -0.0040
      8 C         -25.3870   -0.6790   31.5710 C.3     1  UNL1        0.0845
      9 C         -25.1890    0.7730   32.0280 C.3     1  UNL1        0.0195
     10 C         -25.3360    0.6840   33.5440 C.3     1  UNL1        0.0202
     11 C         -24.8290   -0.7150   33.9050 C.3     1  UNL1        0.0887
     12 N         -24.7580   -1.4810   32.6460 N.3     1  UNL1       -0.2189
     13 C         -25.6880    1.6140   26.4610 C.2     1  UNL1        0.0421
     14 C         -26.2500    2.9200   26.3950 C.2     1  UNL1        0.0767
     15 C         -25.6420    4.0930   27.1230 C.2     1  UNL1        0.2664
     16 N         -25.6140    5.2520   26.4490 N.am    1  UNL1       -0.1997
     17 C         -25.0260    6.4790   26.9630 C.3     1  UNL1        0.1388
     18 O         -25.1430    3.9660   28.2430 O.2     1  UNL1       -0.2683
     19 C         -27.4380    3.0910   25.6450 C.2     1  UNL1        0.1067
     20 N         -28.0750    2.0890   25.0030 N.2     1  UNL1       -0.2081
     21 C         -27.5430    0.8490   25.0790 C.2     1  UNL1        0.2533
     22 O         -28.1930   -0.2080   24.4770 O.2     1  UNL1       -0.4558
     23 C         -29.4600    0.0050   23.8660 C.3     1  UNL1        0.2426
     24 C         -30.0650   -1.3770   23.5730 C.3     1  UNL1        0.2292
     25 O         -30.7290   -1.8780   24.7210 O.3     1  UNL1       -0.2162
     26 C         -26.3540    0.5760   25.7770 C.2     1  UNL1        0.1932
     27 F         -25.8600   -0.6810   25.7950 F       1  UNL1       -0.1992
     28 O         -20.8352    0.3869   28.5212 O.2     1  UNL1       -0.2698
     29 C         -24.4198    1.2147   27.1078 C.2     1  UNL1        0.0552
     30 C         -25.3671   -0.1165   29.0169 C.3     1  UNL1        0.3743
     31 C         -23.2510    1.7089   26.5633 C.2     1  UNL1        0.2160
     32 O         -25.6882    1.1184   29.6872 O.2     1  UNL1       -0.2704
     33 O         -26.6340   -0.6507   28.6451 O.2     1  UNL1       -0.2704
     34 O         -23.5759    2.6177   25.5596 O.2     1  UNL1       -0.4578
     35 C         -21.8975    0.6899   28.0650 C.2     1  UNL1        0.2828
     36 C         -24.2689    0.4327   28.2387 C.2     1  UNL1        0.0817
     37 C         -22.3222    2.7775   24.9195 C.3     1  UNL1        0.2540
     38 C         -23.0928    0.2086   28.5589 C.3     1  UNL1        0.2550
     39 N         -22.0501    1.5140   27.0452 N.am    1  UNL1       -0.1424
     40 O         -22.4169   -0.9168   29.0590 O.3     1  UNL1       -0.2083
@<TRIPOS>BOND
     1     1    30    1
     2     2     7    1
     3     2     1    1
     4     3     2    2
     5     4     3    1
     6     4     5    2
     7     5     6    1
     8     6     7    2
     9     8     1    1
    10     8     9    1
    11     8    12    1
    12     9    10    1
    13    10    11    1
    14    12    11    1
    15    13    29    1
    16    14    13    1
    17    14    15    1
    18    15    18    2
    19    16    17    1
    20    16    15    1
    21    19    14    2
    22    20    21    2
    23    20    19    1
    24    21    26    1
    25    22    21    1
    26    23    22    1
    27    24    23    1
    28    24    25    1
    29    26    27    1
    30    26    13    2
    31    29    36    2
    32    30    32    1
    33    31    39    2
    34    31    29    1
    35    33    30    1
    36    34    31    1
    37    35    28    2
    38    35    38    1
    39    36    38    1
    40    36    30    1
    41    37    34    1
    42    38    40    1
    43    39    35    1
