@<TRIPOS>MOLECULE
No_2968-gen_results/8p0m/2024-11-27-11-27-31/
 32 36 0 0 0
SMALL
GASTEIGER

@<TRIPOS>ATOM
      1 C         -28.0162   -0.8135   28.8779 C.ar    1  UNL1        0.0064
      2 C         -27.0636   -0.1189   28.6079 C.ar    1  UNL1        0.0003
      3 C         -25.7647   -0.3897   29.0360 C.ar    1  UNL1        0.0016
      4 C         -25.5296   -1.5302   29.9014 C.ar    1  UNL1        0.0003
      5 C         -26.6577   -2.2915   30.2035 C.ar    1  UNL1        0.0064
      6 C         -27.8548   -1.9555   29.7630 C.ar    1  UNL1        0.0757
      7 C         -24.5349    0.4128   28.7431 C.ar    1  UNL1        0.0225
      8 C         -24.4835    1.2431   27.7398 C.ar    1  UNL1        0.0210
      9 C         -25.0977    1.6893   26.9916 C.ar    1  UNL1        0.0016
     10 C         -24.7336    2.5972   25.9226 C.ar    1  UNL1        0.0001
     11 C         -23.3807    2.8917   25.8163 C.ar    1  UNL1        0.0016
     12 C         -22.9354    1.7161   27.6160 C.ar    1  UNL1        0.1029
     13 N         -21.9683    1.2943   28.5537 N.ar    1  UNL1       -0.1480
     14 C         -22.5591    2.5466   26.6211 C.ar    1  UNL1        0.0209
     15 C         -23.3755    0.0524   29.6631 C.ar    1  UNL1        0.1221
     16 N         -22.1640    0.5808   29.4712 N.ar    1  UNL1       -0.1464
     17 C         -29.0374   -2.7858   30.1200 C.2     1  UNL1        0.3415
     18 O         -28.9309   -4.0131   30.2824 O.2     1  UNL1       -0.2449
     19 O         -30.0692   -2.2312   30.6398 O.3     1  UNL1       -0.4404
     20 C         -31.2412   -2.9350   30.8618 C.3     1  UNL1        0.2354
     21 C         -32.4586   -2.2455   30.6437 C.ar    1  UNL1        0.0213
     22 C         -33.4985   -2.8226   30.6021 C.ar    1  UNL1       -0.0007
     23 C         -32.3613   -0.7946   30.4211 C.ar    1  UNL1       -0.0007
     24 C         -33.5092   -0.0577   30.1187 C.ar    1  UNL1       -0.0002
     25 C         -34.7819   -2.0798   30.3003 C.ar    1  UNL1       -0.0002
     26 C         -34.7084   -0.7385   30.1205 C.ar    1  UNL1       -0.0000
     27 C         -35.9653    0.0169   29.8479 C.ar    1  UNL1       -0.0000
     28 C         -36.8702   -0.3607   29.2888 C.ar    1  UNL1       -0.0000
     29 C         -38.1047    0.4060   29.0515 C.ar    1  UNL1        0.0000
     30 C         -38.1141    1.7422   29.5143 C.ar    1  UNL1        0.0000
     31 C         -37.0030    2.2085   30.1601 C.ar    1  UNL1        0.0000
     32 C         -35.8749    1.4239   30.3789 C.ar    1  UNL1       -0.0000
@<TRIPOS>BOND
     1     3     7    1
     2     6    17    1
     3    17    18    2
     4    17    19    1
     5    19    20    1
     6    20    21    1
     7    26    27    1
     8     1     2   ar
     9     2     3   ar
    10     3     4   ar
    11     4     5   ar
    12     5     6   ar
    13     6     1   ar
    14     8     9   ar
    15     9    10   ar
    16    10    11   ar
    17    11    14   ar
    18    14    12   ar
    19    27    28   ar
    20    28    29   ar
    21    29    30   ar
    22    30    31   ar
    23    31    32   ar
    24    32    27   ar
    25    21    22   ar
    26    22    25   ar
    27    25    26   ar
    28    26    24   ar
    29    24    23   ar
    30    23    21   ar
    31     7     8   ar
    32     8    12   ar
    33    12    13   ar
    34    13    16   ar
    35    16    15   ar
    36    15     7   ar
