@<TRIPOS>MOLECULE
outputs/IAG933/test6/raw/output_2969_IAG933_linker_design_.xyz
 45 48 0 0 0
SMALL
GASTEIGER

@<TRIPOS>ATOM
      1 C         -24.8550   -1.0120   30.1430 C.3     1  UNL1        0.0975
      2 C         -24.9730   -2.5050   29.7880 C.2     1  UNL1       -0.0064
      3 C         -23.9060   -3.1730   29.1460 C.2     1  UNL1       -0.0029
      4 C         -23.9890   -4.5490   28.8530 C.2     1  UNL1       -0.0003
      5 C         -25.1370   -5.2800   29.2050 C.2     1  UNL1       -0.0000
      6 C         -26.2320   -4.6110   29.7840 C.2     1  UNL1       -0.0003
      7 C         -26.1550   -3.2320   30.0650 C.2     1  UNL1       -0.0029
      8 C         -25.3870   -0.6790   31.5710 C.3     1  UNL1        0.0916
      9 C         -25.1890    0.7730   32.0280 C.3     1  UNL1        0.0206
     10 C         -25.3360    0.6840   33.5440 C.3     1  UNL1        0.0203
     11 C         -24.8290   -0.7150   33.9050 C.3     1  UNL1        0.0888
     12 N         -24.7580   -1.4810   32.6460 N.3     1  UNL1       -0.2178
     13 C         -25.6880    1.6140   26.4610 C.2     1  UNL1        0.0935
     14 C         -26.2500    2.9200   26.3950 C.2     1  UNL1        0.0903
     15 C         -25.6420    4.0930   27.1230 C.2     1  UNL1        0.2676
     16 N         -25.6140    5.2520   26.4490 N.am    1  UNL1       -0.1997
     17 C         -25.0260    6.4790   26.9630 C.3     1  UNL1        0.1388
     18 O         -25.1430    3.9660   28.2430 O.2     1  UNL1       -0.2683
     19 C         -27.4380    3.0910   25.6450 C.2     1  UNL1        0.1080
     20 N         -28.0750    2.0890   25.0030 N.2     1  UNL1       -0.2080
     21 C         -27.5430    0.8490   25.0790 C.2     1  UNL1        0.2546
     22 O         -28.1930   -0.2080   24.4770 O.2     1  UNL1       -0.4558
     23 C         -29.4600    0.0050   23.8660 C.3     1  UNL1        0.2426
     24 C         -30.0650   -1.3770   23.5730 C.3     1  UNL1        0.2292
     25 O         -30.7290   -1.8780   24.7210 O.3     1  UNL1       -0.2162
     26 C         -26.3540    0.5760   25.7770 C.2     1  UNL1        0.2067
     27 F         -25.8600   -0.6810   25.7950 F       1  UNL1       -0.1979
     28 N         -20.7062    1.3277   27.4928 N.2     1  UNL1       -0.1271
     29 C         -23.9618    0.3886   28.2562 C.3     1  UNL1        0.1631
     30 C         -27.4234    0.1901   29.6917 C.3     1  UNL1        0.0438
     31 N         -22.4147    2.1589   28.5954 N.pl3   1  UNL1       -0.2132
     32 C         -21.6500    1.7549   27.7588 C.2     1  UNL1        0.2044
     33 C         -28.4784    1.6573   31.3721 C.2     1  UNL1       -0.0040
     34 C         -27.5414    1.6181   30.3332 C.2     1  UNL1       -0.0176
     35 C         -23.3690    1.7569   25.9935 C.2     1  UNL1        0.3080
     36 N         -25.0709   -0.3307   28.8783 N.3     1  UNL1       -0.2525
     37 O         -26.4126    5.1209   30.4516 O.2     1  UNL1       -0.2866
     38 C         -23.4860    1.3353   29.1502 C.3     1  UNL1        0.1510
     39 N         -24.3870    1.2083   26.9519 N.am    1  UNL1       -0.2351
     40 C         -26.9812    3.9948   30.8689 C.2     1  UNL1        0.1954
     41 C         -26.5664   -0.4396   28.5736 C.3     1  UNL1        0.0786
     42 C         -28.6396    2.7939   32.1450 C.2     1  UNL1        0.0030
     43 O         -22.2200    2.1230   25.7769 O.2     1  UNL1       -0.2645
     44 C         -27.8962    3.9533   31.9153 C.2     1  UNL1        0.0420
     45 C         -26.7487    2.7997   30.1194 C.2     1  UNL1        0.0378
@<TRIPOS>BOND
     1     1    36    1
     2     2     7    1
     3     2     1    1
     4     3     2    2
     5     4     3    1
     6     4     5    2
     7     5     6    1
     8     6     7    2
     9     8     1    1
    10     8     9    1
    11     8    12    1
    12     9    10    1
    13    10    11    1
    14    12    11    1
    15    13    39    1
    16    14    13    1
    17    14    15    1
    18    15    18    2
    19    16    17    1
    20    16    15    1
    21    19    14    2
    22    20    21    2
    23    20    19    1
    24    21    26    1
    25    22    21    1
    26    23    22    1
    27    24    23    1
    28    24    25    1
    29    26    27    1
    30    26    13    2
    31    28    32    2
    32    29    36    1
    33    29    38    1
    34    30    34    1
    35    31    38    1
    36    32    31    1
    37    33    42    1
    38    34    33    2
    39    35    39   am
    40    37    40    1
    41    39    29    1
    42    40    44    1
    43    41    36    1
    44    41    30    1
    45    43    35    2
    46    44    42    2
    47    45    34    1
    48    45    40    2
