@<TRIPOS>MOLECULE
outputs/IAG933/test6/raw/output_2970_IAG933_linker_design_.xyz
 45 49 0 0 0
SMALL
GASTEIGER

@<TRIPOS>ATOM
      1 C         -24.8550   -1.0120   30.1430 C.3     1  UNL1        0.0520
      2 C         -24.9730   -2.5050   29.7880 C.2     1  UNL1       -0.0200
      3 C         -23.9060   -3.1730   29.1460 C.2     1  UNL1       -0.0042
      4 C         -23.9890   -4.5490   28.8530 C.2     1  UNL1       -0.0003
      5 C         -25.1370   -5.2800   29.2050 C.2     1  UNL1       -0.0000
      6 C         -26.2320   -4.6110   29.7840 C.2     1  UNL1       -0.0003
      7 C         -26.1550   -3.2320   30.0650 C.2     1  UNL1       -0.0042
      8 C         -25.3870   -0.6790   31.5710 C.3     1  UNL1        0.0779
      9 C         -25.1890    0.7730   32.0280 C.3     1  UNL1        0.0192
     10 C         -25.3360    0.6840   33.5440 C.3     1  UNL1        0.0202
     11 C         -24.8290   -0.7150   33.9050 C.3     1  UNL1        0.0887
     12 N         -24.7580   -1.4810   32.6460 N.3     1  UNL1       -0.2191
     13 C         -25.6880    1.6140   26.4610 C.2     1  UNL1        0.0416
     14 C         -26.2500    2.9200   26.3950 C.2     1  UNL1        0.0767
     15 C         -25.6420    4.0930   27.1230 C.2     1  UNL1        0.2664
     16 N         -25.6140    5.2520   26.4490 N.am    1  UNL1       -0.1997
     17 C         -25.0260    6.4790   26.9630 C.3     1  UNL1        0.1388
     18 O         -25.1430    3.9660   28.2430 O.2     1  UNL1       -0.2683
     19 C         -27.4380    3.0910   25.6450 C.2     1  UNL1        0.1067
     20 N         -28.0750    2.0890   25.0030 N.2     1  UNL1       -0.2081
     21 C         -27.5430    0.8490   25.0790 C.2     1  UNL1        0.2533
     22 O         -28.1930   -0.2080   24.4770 O.2     1  UNL1       -0.4558
     23 C         -29.4600    0.0050   23.8660 C.3     1  UNL1        0.2426
     24 C         -30.0650   -1.3770   23.5730 C.3     1  UNL1        0.2292
     25 O         -30.7290   -1.8780   24.7210 O.3     1  UNL1       -0.2162
     26 C         -26.3540    0.5760   25.7770 C.2     1  UNL1        0.1932
     27 F         -25.8600   -0.6810   25.7950 F       1  UNL1       -0.1992
     28 C         -31.3412    1.0706   27.4577 C.3     1  UNL1        0.1840
     29 C         -33.4828    1.8917   25.8425 C.3     1  UNL1        0.0890
     30 O         -21.7976    1.7327   26.7342 O.2     1  UNL1       -0.4607
     31 C         -24.3087    1.2463   27.0969 C.2     1  UNL1        0.0445
     32 C         -27.6660    2.0724   29.3755 C.3     1  UNL1        0.0668
     33 C         -22.7274    0.3125   28.6827 C.2     1  UNL1        0.0174
     34 C         -33.7677    1.2193   27.1641 C.3     1  UNL1        0.0226
     35 C         -31.0892    2.1023   26.3152 C.3     1  UNL1        0.1320
     36 C         -25.6081   -0.2370   29.0713 C.3     1  UNL1        0.0731
     37 O         -30.3024    1.0029   28.4325 O.3     1  UNL1       -0.4693
     38 C         -23.1036    1.9375   26.3977 C.2     1  UNL1        0.1975
     39 CL        -23.1982    2.7943   25.0279 Cl      1  UNL1       -0.0429
     40 C         -29.4468   -0.1206   28.4771 C.2     1  UNL1        0.1956
     41 C         -24.2859    0.5300   28.3546 C.2     1  UNL1       -0.0093
     42 N         -32.3878    2.8300   26.0201 N.3     1  UNL1       -0.2142
     43 C         -21.6134    0.7762   27.7094 C.3     1  UNL1        0.2325
     44 S         -27.5514    0.2175   28.7762 S.3     1  UNL1       -0.1160
     45 C         -32.7189    1.4082   28.1754 C.3     1  UNL1        0.0465
@<TRIPOS>BOND
     1     1    36    1
     2     2     7    1
     3     2     1    1
     4     3     2    2
     5     4     3    1
     6     4     5    2
     7     5     6    1
     8     6     7    2
     9     8     1    1
    10     8     9    1
    11     8    12    1
    12     9    10    1
    13    10    11    1
    14    12    11    1
    15    13    31    1
    16    14    13    1
    17    14    15    1
    18    15    18    2
    19    16    17    1
    20    16    15    1
    21    19    14    2
    22    20    21    2
    23    20    19    1
    24    21    26    1
    25    22    21    1
    26    23    22    1
    27    24    23    1
    28    24    25    1
    29    26    27    1
    30    26    13    2
    31    28    45    1
    32    28    37    1
    33    29    42    1
    34    29    34    1
    35    30    43    1
    36    31    41    1
    37    34    45    1
    38    35    28    1
    39    36    44    1
    40    37    40    1
    41    38    30    1
    42    38    31    2
    43    39    38    1
    44    40    44    2
    45    41    33    2
    46    41    36    1
    47    42    35    1
    48    43    33    1
    49    44    32    1
