@<TRIPOS>MOLECULE
outputs/IAG933/test6/raw/output_2971_IAG933_linker_design_.xyz
 46 50 0 0 0
SMALL
GASTEIGER

@<TRIPOS>ATOM
      1 C         -24.8550   -1.0120   30.1430 C.3     1  UNL1        0.0543
      2 C         -24.9730   -2.5050   29.7880 C.2     1  UNL1       -0.0198
      3 C         -23.9060   -3.1730   29.1460 C.2     1  UNL1       -0.0042
      4 C         -23.9890   -4.5490   28.8530 C.2     1  UNL1       -0.0003
      5 C         -25.1370   -5.2800   29.2050 C.2     1  UNL1       -0.0000
      6 C         -26.2320   -4.6110   29.7840 C.2     1  UNL1       -0.0003
      7 C         -26.1550   -3.2320   30.0650 C.2     1  UNL1       -0.0042
      8 C         -25.3870   -0.6790   31.5710 C.3     1  UNL1        0.0782
      9 C         -25.1890    0.7730   32.0280 C.3     1  UNL1        0.0192
     10 C         -25.3360    0.6840   33.5440 C.3     1  UNL1        0.0202
     11 C         -24.8290   -0.7150   33.9050 C.3     1  UNL1        0.0887
     12 N         -24.7580   -1.4810   32.6460 N.3     1  UNL1       -0.2191
     13 C         -25.6880    1.6140   26.4610 C.2     1  UNL1       -0.0009
     14 C         -26.2500    2.9200   26.3950 C.2     1  UNL1        0.0523
     15 C         -25.6420    4.0930   27.1230 C.2     1  UNL1        0.2622
     16 N         -25.6140    5.2520   26.4490 N.am    1  UNL1       -0.2000
     17 C         -25.0260    6.4790   26.9630 C.3     1  UNL1        0.1388
     18 O         -25.1430    3.9660   28.2430 O.2     1  UNL1       -0.2687
     19 C         -27.4380    3.0910   25.6450 C.3     1  UNL1        0.1588
     20 N         -28.0750    2.0890   25.0030 N.2     1  UNL1       -0.2341
     21 C         -27.5430    0.8490   25.0790 C.2     1  UNL1        0.2338
     22 O         -28.1930   -0.2080   24.4770 O.2     1  UNL1       -0.4585
     23 C         -29.4600    0.0050   23.8660 C.3     1  UNL1        0.2423
     24 C         -30.0650   -1.3770   23.5730 C.3     1  UNL1        0.2292
     25 O         -30.7290   -1.8780   24.7210 O.3     1  UNL1       -0.2162
     26 C         -26.3540    0.5760   25.7770 C.3     1  UNL1        0.2539
     27 F         -25.8600   -0.6810   25.7950 F       1  UNL1       -0.2227
     28 O         -29.4814   -0.4653   27.5570 O.3     1  UNL1       -0.2184
     29 C         -21.3553    1.4545   27.3800 C.3     1  UNL1        0.0000
     30 C         -28.2962    2.1464   29.6505 C.3     1  UNL1        0.1641
     31 N         -27.1982    0.2390   28.8122 N.3     1  UNL1       -0.2157
     32 C         -24.7893    1.4034   27.3739 C.3     1  UNL1        0.0265
     33 C         -30.6672    3.5495   31.9641 C.2     1  UNL1        0.2096
     34 O         -31.8822    0.8696   28.1412 O.3     1  UNL1       -0.2138
     35 C         -24.4550    0.0650   27.9546 C.3     1  UNL1        0.0205
     36 N         -29.5871    2.5903   30.1217 N.3     1  UNL1       -0.1953
     37 C         -22.2890    1.0471   28.4894 C.3     1  UNL1        0.0001
     38 C         -31.8389    3.4451   29.8192 C.2     1  UNL1        0.0217
     39 O         -29.5937    2.7915   31.4430 O.2     1  UNL1       -0.3724
     40 C         -31.8292    3.8699   31.1631 C.2     1  UNL1        0.0447
     41 C         -25.6319   -0.3170   28.9781 C.3     1  UNL1        0.0785
     42 C         -28.2353    0.9640   28.9831 C.3     1  UNL1        0.1317
     43 C         -30.7081    1.5051   28.3122 C.3     1  UNL1        0.2241
     44 C         -29.5822    0.3363   28.7513 C.3     1  UNL1        0.2057
     45 C         -30.7343    2.5489   29.3687 C.2     1  UNL1        0.1037
     46 C         -23.1040   -0.0126   28.2377 C.3     1  UNL1        0.0017
@<TRIPOS>BOND
     1     1    41    1
     2     2     7    1
     3     2     1    1
     4     3     2    2
     5     4     3    1
     6     4     5    2
     7     5     6    1
     8     6     7    2
     9     8     1    1
    10     8     9    1
    11     8    12    1
    12     9    10    1
    13    10    11    1
    14    12    11    1
    15    13    32    1
    16    14    13    2
    17    14    15    1
    18    15    18    2
    19    16    17    1
    20    16    15    1
    21    19    14    1
    22    20    21    2
    23    20    19    1
    24    21    26    1
    25    22    21    1
    26    23    22    1
    27    24    23    1
    28    24    25    1
    29    26    27    1
    30    26    13    1
    31    29    37    1
    32    30    36    1
    33    35    32    1
    34    35    46    1
    35    35    41    1
    36    36    39    1
    37    38    40    1
    38    39    33    1
    39    40    33    2
    40    41    31    1
    41    42    31    1
    42    42    30    1
    43    43    34    1
    44    43    44    1
    45    43    45    1
    46    44    28    1
    47    44    42    1
    48    45    38    2
    49    45    36    1
    50    46    37    1
