@<TRIPOS>MOLECULE
No_2974-gen_results/8p0m/2024-11-27-11-27-31/
 18 19 0 0 0
SMALL
GASTEIGER

@<TRIPOS>ATOM
      1 C         -28.0162   -0.8135   28.8779 C.ar    1  UNL1        0.0046
      2 C         -27.0636   -0.1190   28.6079 C.ar    1  UNL1        0.0001
      3 C         -25.7647   -0.3897   29.0360 C.ar    1  UNL1        0.0000
      4 C         -25.5296   -1.5302   29.9014 C.ar    1  UNL1        0.0001
      5 C         -26.6577   -2.2915   30.2035 C.ar    1  UNL1        0.0046
      6 C         -27.8548   -1.9555   29.7630 C.ar    1  UNL1        0.0554
      7 C         -24.5441    0.4126   28.7379 C.ar    1  UNL1        0.0000
      8 C         -24.4731    1.2064   27.7114 C.ar    1  UNL1        0.0000
      9 C         -23.2632    1.9110   27.3928 C.ar    1  UNL1        0.0000
     10 C         -22.0960    1.7116   28.0459 C.ar    1  UNL1        0.0000
     11 C         -23.3012    0.1559   29.4817 C.ar    1  UNL1        0.0000
     12 C         -22.1018    0.8312   29.1085 C.ar    1  UNL1        0.0000
     13 C         -29.0138   -2.7978   30.1831 C.2     1  UNL1        0.2690
     14 N         -30.1510   -2.3634   30.1819 N.am    1  UNL1       -0.1745
     15 O         -28.7837   -3.9860   30.6107 O.2     1  UNL1       -0.2680
     16 C         -31.3566   -3.1446   30.5533 C.2     1  UNL1        0.0844
     17 C         -31.4788   -4.0155   31.1238 C.2     1  UNL1       -0.0079
     18 C         -32.7121   -4.7533   31.4498 C.3     1  UNL1        0.0321
@<TRIPOS>BOND
     1     3     7    1
     2     6    13    1
     3    13    14   am
     4    13    15    2
     5    14    16    1
     6    16    17    2
     7    17    18    1
     8     7     8   ar
     9     8     9   ar
    10     9    10   ar
    11    10    12   ar
    12    12    11   ar
    13    11     7   ar
    14     1     2   ar
    15     2     3   ar
    16     3     4   ar
    17     4     5   ar
    18     5     6   ar
    19     6     1   ar
