@<TRIPOS>MOLECULE
outputs/IAG933/test6/raw/output_2975_IAG933_linker_design_.xyz
 47 51 0 0 0
SMALL
GASTEIGER

@<TRIPOS>ATOM
      1 C         -24.8550   -1.0120   30.1430 C.3     1  UNL1        0.1113
      2 C         -24.9730   -2.5050   29.7880 C.2     1  UNL1       -0.0051
      3 C         -23.9060   -3.1730   29.1460 C.2     1  UNL1       -0.0029
      4 C         -23.9890   -4.5490   28.8530 C.2     1  UNL1       -0.0003
      5 C         -25.1370   -5.2800   29.2050 C.2     1  UNL1       -0.0000
      6 C         -26.2320   -4.6110   29.7840 C.2     1  UNL1       -0.0003
      7 C         -26.1550   -3.2320   30.0650 C.2     1  UNL1       -0.0029
      8 C         -25.3870   -0.6790   31.5710 C.3     1  UNL1        0.0929
      9 C         -25.1890    0.7730   32.0280 C.3     1  UNL1        0.0206
     10 C         -25.3360    0.6840   33.5440 C.3     1  UNL1        0.0203
     11 C         -24.8290   -0.7150   33.9050 C.3     1  UNL1        0.0888
     12 N         -24.7580   -1.4810   32.6460 N.3     1  UNL1       -0.2177
     13 C         -25.6880    1.6140   26.4610 C.3     1  UNL1        0.0744
     14 C         -26.2500    2.9200   26.3950 C.2     1  UNL1        0.0549
     15 C         -25.6420    4.0930   27.1230 C.2     1  UNL1        0.2624
     16 N         -25.6140    5.2520   26.4490 N.am    1  UNL1       -0.2000
     17 C         -25.0260    6.4790   26.9630 C.3     1  UNL1        0.1388
     18 O         -25.1430    3.9660   28.2430 O.2     1  UNL1       -0.2687
     19 C         -27.4380    3.0910   25.6450 C.2     1  UNL1        0.1021
     20 N         -28.0750    2.0890   25.0030 N.2     1  UNL1       -0.2119
     21 C         -27.5430    0.8490   25.0790 C.2     1  UNL1        0.2341
     22 O         -28.1930   -0.2080   24.4770 O.2     1  UNL1       -0.4585
     23 C         -29.4600    0.0050   23.8660 C.3     1  UNL1        0.2423
     24 C         -30.0650   -1.3770   23.5730 C.3     1  UNL1        0.2292
     25 O         -30.7290   -1.8780   24.7210 O.3     1  UNL1       -0.2162
     26 C         -26.3540    0.5760   25.7770 C.3     1  UNL1        0.2401
     27 F         -25.8600   -0.6810   25.7950 F       1  UNL1       -0.2269
     28 C         -22.6782    1.5972   26.6365 C.3     1  UNL1        0.1451
     29 C         -26.0509    0.8930   28.9284 C.3     1  UNL1        0.1525
     30 C         -26.7498    4.6802   31.4941 C.3     1  UNL1        0.0018
     31 O         -30.8093    2.2465   30.7600 O.co2   1  UNL1       -0.2219
     32 C         -27.7408    0.7402   29.2446 C.2     1  UNL1        0.2498
     33 C         -21.5666    0.9182   28.3234 C.3     1  UNL1        0.2940
     34 N         -28.5838    1.5977   30.2281 N.am    1  UNL1       -0.1934
     35 C         -28.0899    2.9608   30.4325 C.3     1  UNL1        0.0858
     36 C         -24.9312    1.1101   27.6831 C.3     1  UNL1        0.0620
     37 C         -23.5876    0.9069   27.5824 C.3     1  UNL1        0.1471
     38 O         -22.7657    0.1637   28.3960 O.3     1  UNL1       -0.3267
     39 C         -28.2681    4.9319   31.5874 C.3     1  UNL1        0.0018
     40 C         -28.8595    4.0593   30.4504 C.3     1  UNL1        0.0204
     41 O         -29.6663    1.0990   32.2682 O.co2   1  UNL1       -0.2219
     42 O         -28.2332   -0.2151   28.7228 O.2     1  UNL1       -0.2729
     43 C         -29.8200    1.6484   31.1941 C.2     1  UNL1        0.4529
     44 C         -26.7178    3.1353   31.2586 C.3     1  UNL1        0.0204
     45 O         -21.4850    1.7131   27.1551 O.3     1  UNL1       -0.3268
     46 N         -25.6674   -0.4390   29.1276 N.3     1  UNL1       -0.2057
     47 C         -22.9131    2.1765   25.2099 C.3     1  UNL1        0.0347
@<TRIPOS>BOND
     1     1    46    1
     2     2     7    1
     3     2     1    1
     4     3     2    2
     5     4     3    1
     6     4     5    2
     7     5     6    1
     8     6     7    2
     9     8     1    1
    10     8     9    1
    11     8    12    1
    12     9    10    1
    13    10    11    1
    14    12    11    1
    15    13    36    1
    16    14    13    1
    17    14    15    1
    18    15    18    2
    19    16    17    1
    20    16    15    1
    21    19    14    2
    22    20    21    2
    23    20    19    1
    24    21    26    1
    25    22    21    1
    26    23    22    1
    27    24    23    1
    28    24    25    1
    29    26    27    1
    30    26    13    1
    31    28    47    1
    32    28    45    1
    33    28    37    1
    34    29    46    1
    35    29    32    1
    36    30    39    1
    37    31    43   ar
    38    32    34   am
    39    33    38    1
    40    34    35    1
    41    34    43   am
    42    35    40    1
    43    35    44    1
    44    36    29    1
    45    37    36    1
    46    37    38    1
    47    40    39    1
    48    42    32    2
    49    43    41   ar
    50    44    30    1
    51    45    33    1
