@<TRIPOS>MOLECULE
No_2976-gen_results/8p0m/2024-11-27-11-27-31/
 24 26 0 0 0
SMALL
GASTEIGER

@<TRIPOS>ATOM
      1 C         -28.0162   -0.8135   28.8779 C.ar    1  UNL1        0.0296
      2 C         -27.0636   -0.1189   28.6079 C.ar    1  UNL1        0.1401
      3 C         -26.9287    1.1713   29.0083 C.ar    1  UNL1        0.0296
      4 C         -27.9560    1.7411   29.7840 C.ar    1  UNL1        0.0023
      5 C         -29.0569   -0.3271   29.7466 C.ar    1  UNL1        0.0023
      6 C         -28.9828    0.9722   30.1516 C.ar    1  UNL1        0.0001
      7 F         -26.0277   -0.5935   27.8711 F       1  UNL1       -0.2042
      8 C         -30.0765    1.5021   31.0081 C.ar    1  UNL1        0.0000
      9 C         -31.1057    1.9506   30.7304 C.ar    1  UNL1        0.0002
     10 C         -32.0925    2.4855   31.6581 C.ar    1  UNL1        0.0066
     11 C         -29.7055    1.4100   32.4762 C.ar    1  UNL1        0.0002
     12 C         -30.5942    1.9107   33.4274 C.ar    1  UNL1        0.0066
     13 C         -31.7742    2.4500   33.0120 C.ar    1  UNL1        0.0798
     14 C         -32.7347    2.9953   33.9926 C.2     1  UNL1        0.3878
     15 O         -32.3250    3.5798   34.9042 O.co2   1  UNL1       -0.2406
     16 O         -33.9868    3.0281   33.5962 O.co2   1  UNL1       -0.2406
     17 C         -31.4941    2.0089   29.2654 C.ar    1  UNL1        0.0001
     18 C         -32.6647    1.5051   28.8936 C.ar    1  UNL1        0.0033
     19 C         -32.9927    1.5327   27.5244 C.ar    1  UNL1        0.0422
     20 C         -34.1162    0.8712   27.1011 C.2     1  UNL1        0.2342
     21 C         -32.1076    2.1403   26.5719 C.ar    1  UNL1        0.0033
     22 C         -30.8682    2.6982   26.9819 C.ar    1  UNL1        0.0001
     23 C         -30.5916    2.6614   28.3469 C.ar    1  UNL1        0.0000
     24 O         -34.6411    0.5974   26.2808 O.2     1  UNL1       -0.2831
@<TRIPOS>BOND
     1     2     7    1
     2     6     8    1
     3    13    14    1
     4    14    15   ar
     5    14    16   ar
     6     9    17    1
     7    20    24    2
     8    20    19    1
     9     8     9   ar
    10     9    10   ar
    11    10    13   ar
    12    13    12   ar
    13    12    11   ar
    14    11     8   ar
    15     1     2   ar
    16     2     3   ar
    17     3     4   ar
    18     4     6   ar
    19     6     5   ar
    20     5     1   ar
    21    17    18   ar
    22    18    19   ar
    23    19    21   ar
    24    21    22   ar
    25    22    23   ar
    26    23    17   ar
