@<TRIPOS>MOLECULE
No_298-gen_results/8p0m/2024-11-27-11-27-31/
 10 10 0 0 0
SMALL
GASTEIGER

@<TRIPOS>ATOM
      1 C         -28.0162   -0.8135   28.8779 C.ar    1  UNL1        0.0093
      2 C         -28.4690   -0.7850   29.8287 C.ar    1  UNL1        0.0575
      3 C         -26.5042   -0.7777   28.8766 C.ar    1  UNL1        0.0061
      4 C         -25.8103   -0.8531   30.1028 C.ar    1  UNL1        0.1362
      5 C         -27.9906   -0.8916   31.2257 C.ar    1  UNL1        0.0137
      6 C         -26.6042   -0.8676   31.2652 C.ar    1  UNL1        0.0302
      7 CL        -30.2937   -0.8377   29.8355 Cl      1  UNL1       -0.0823
      8 F         -24.5212   -0.8001   30.1215 F       1  UNL1       -0.2045
      9 C         -25.6563   -0.7328   27.6774 C.3     1  UNL1        0.0287
     10 C         -24.3980   -0.1420   27.7233 C.3     1  UNL1        0.0051
@<TRIPOS>BOND
     1     2     7    1
     2     4     8    1
     3     3     9    1
     4     9    10    1
     5     1     2   ar
     6     2     5   ar
     7     5     6   ar
     8     6     4   ar
     9     4     3   ar
    10     3     1   ar
