@<TRIPOS>MOLECULE
No_2982-gen_results/8p0m/2024-11-27-11-27-31/
 19 20 0 0 0
SMALL
GASTEIGER

@<TRIPOS>ATOM
      1 C         -28.0162   -0.8135   28.8779 C.ar    1  UNL1       -0.0001
      2 C         -27.0636   -0.1189   28.6079 C.ar    1  UNL1       -0.0000
      3 C         -26.9716    0.7139   27.5060 C.ar    1  UNL1       -0.0001
      4 C         -28.1053    0.7744   26.6421 C.ar    1  UNL1        0.0014
      5 C         -29.2008    0.1044   27.0527 C.ar    1  UNL1        0.0444
      6 C         -29.2096   -0.6029   28.1853 C.ar    1  UNL1        0.0014
      7 C         -30.3749    0.2232   26.1670 C.3     1  UNL1        0.3249
      8 P         -30.3985    0.2585   24.5213 P.3     1  UNL1        0.1831
      9 O         -31.1997   -0.6556   23.9724 O.2     1  UNL1       -0.4543
     10 O         -28.8556   -0.0511   24.2406 O.3     1  UNL1       -0.3533
     11 O         -30.6230    1.7045   24.1677 O.3     1  UNL1       -0.3533
     12 F         -31.2108   -0.9306   26.5352 F       1  UNL1       -0.1920
     13 F         -31.1400    1.2378   26.7074 F       1  UNL1       -0.1920
     14 C         -25.7231   -0.2108   29.4438 C.ar    1  UNL1       -0.0000
     15 C         -25.1196   -1.3530   29.7242 C.ar    1  UNL1       -0.0000
     16 C         -23.9192   -1.4406   30.4135 C.ar    1  UNL1        0.0000
     17 C         -23.1634   -0.2998   30.6953 C.ar    1  UNL1        0.0000
     18 C         -23.7143    0.8982   30.3158 C.ar    1  UNL1        0.0000
     19 C         -24.9661    0.9737   29.6538 C.ar    1  UNL1       -0.0000
@<TRIPOS>BOND
     1     5     7    1
     2     7     8    1
     3     8     9    2
     4     8    10    1
     5     8    11    1
     6     7    12    1
     7     7    13    1
     8     2    14    1
     9     1     2   ar
    10     2     3   ar
    11     3     4   ar
    12     4     5   ar
    13     5     6   ar
    14     6     1   ar
    15    14    15   ar
    16    15    16   ar
    17    16    17   ar
    18    17    18   ar
    19    18    19   ar
    20    19    14   ar
