@<TRIPOS>MOLECULE
No_2983-gen_results/8p0m/2024-11-27-11-27-31/
 13 14 0 0 0
SMALL
GASTEIGER

@<TRIPOS>ATOM
      1 C         -28.0162   -0.8135   28.8779 C.ar    1  UNL1        0.0114
      2 C         -27.0636   -0.1189   28.6079 C.ar    1  UNL1        0.0008
      3 C         -25.7923   -0.4302   29.0761 C.ar    1  UNL1        0.0001
      4 C         -25.5681   -1.2411   29.7572 C.ar    1  UNL1        0.0009
      5 C         -26.6114   -2.1840   30.2439 C.ar    1  UNL1        0.0114
      6 C         -27.8191   -1.9189   29.8034 C.ar    1  UNL1        0.0577
      7 CL        -29.1062   -2.9240   30.3218 Cl      1  UNL1       -0.0822
      8 C         -27.2536    1.0783   27.6608 C.ar    1  UNL1        0.0000
      9 C         -26.8574    2.1827   27.7511 C.ar    1  UNL1        0.0000
     10 C         -27.0086    3.2338   26.7316 C.ar    1  UNL1        0.0000
     11 C         -27.6349    2.8797   25.5212 C.ar    1  UNL1        0.0000
     12 C         -27.6516    0.8456   26.2281 C.ar    1  UNL1        0.0000
     13 C         -27.8764    1.6502   25.3211 C.ar    1  UNL1        0.0000
@<TRIPOS>BOND
     1     6     7    1
     2     2     8    1
     3     1     2   ar
     4     2     3   ar
     5     3     4   ar
     6     4     5   ar
     7     5     6   ar
     8     6     1   ar
     9     8     9   ar
    10     9    10   ar
    11    10    11   ar
    12    11    13   ar
    13    13    12   ar
    14    12     8   ar
