@<TRIPOS>MOLECULE
outputs/IAG933/test6/raw/output_2984_IAG933_linker_design_.xyz
 48 53 0 0 0
SMALL
GASTEIGER

@<TRIPOS>ATOM
      1 C         -24.8550   -1.0120   30.1430 C.3     1  UNL1        0.0757
      2 C         -24.9730   -2.5050   29.7880 C.2     1  UNL1       -0.0158
      3 C         -23.9060   -3.1730   29.1460 C.2     1  UNL1       -0.0039
      4 C         -23.9890   -4.5490   28.8530 C.2     1  UNL1       -0.0003
      5 C         -25.1370   -5.2800   29.2050 C.2     1  UNL1       -0.0000
      6 C         -26.2320   -4.6110   29.7840 C.2     1  UNL1       -0.0003
      7 C         -26.1550   -3.2320   30.0650 C.2     1  UNL1       -0.0039
      8 C         -25.3870   -0.6790   31.5710 C.3     1  UNL1        0.0822
      9 C         -25.1890    0.7730   32.0280 C.3     1  UNL1        0.0196
     10 C         -25.3360    0.6840   33.5440 C.3     1  UNL1        0.0203
     11 C         -24.8290   -0.7150   33.9050 C.3     1  UNL1        0.0887
     12 N         -24.7580   -1.4810   32.6460 N.3     1  UNL1       -0.2188
     13 C         -25.6880    1.6140   26.4610 C.3     1  UNL1        0.0936
     14 C         -26.2500    2.9200   26.3950 C.2     1  UNL1        0.0589
     15 C         -25.6420    4.0930   27.1230 C.2     1  UNL1        0.2628
     16 N         -25.6140    5.2520   26.4490 N.am    1  UNL1       -0.2000
     17 C         -25.0260    6.4790   26.9630 C.3     1  UNL1        0.1388
     18 O         -25.1430    3.9660   28.2430 O.2     1  UNL1       -0.2686
     19 C         -27.4380    3.0910   25.6450 C.2     1  UNL1        0.1025
     20 N         -28.0750    2.0890   25.0030 N.2     1  UNL1       -0.2118
     21 C         -27.5430    0.8490   25.0790 C.2     1  UNL1        0.2344
     22 O         -28.1930   -0.2080   24.4770 O.2     1  UNL1       -0.4585
     23 C         -29.4600    0.0050   23.8660 C.3     1  UNL1        0.2423
     24 C         -30.0650   -1.3770   23.5730 C.3     1  UNL1        0.2292
     25 O         -30.7290   -1.8780   24.7210 O.3     1  UNL1       -0.2162
     26 C         -26.3540    0.5760   25.7770 C.3     1  UNL1        0.2440
     27 F         -25.8600   -0.6810   25.7950 F       1  UNL1       -0.2265
     28 C         -23.1631    1.7673   26.1207 C.2     1  UNL1       -0.0026
     29 C         -28.0522    4.3193   30.1538 C.2     1  UNL1        0.2357
     30 N         -28.5639    4.3119   28.9202 N.2     1  UNL1       -0.0366
     31 C         -29.2308    3.3314   28.4837 C.2     1  UNL1        0.3203
     32 N         -30.2469    3.6732   27.6927 N.pl3   1  UNL1       -0.1907
     33 C         -28.8247    1.9863   28.9841 C.2     1  UNL1        0.0645
     34 C         -21.6806    0.9562   27.9005 C.2     1  UNL1        0.0013
     35 C         -28.1051    3.1666   30.9007 C.2     1  UNL1        0.0504
     36 C         -24.1677    0.9295   28.2072 C.2     1  UNL1        0.0665
     37 C         -25.9412   -0.2927   29.1788 C.2     1  UNL1        0.0493
     38 C         -31.3797    4.4737   25.8522 C.3     1  UNL1        0.0551
     39 C         -24.3050    1.4600   26.8918 C.2     1  UNL1        0.0002
     40 C         -28.4490    1.9577   30.2897 C.2     1  UNL1        0.0073
     41 C         -31.6160    3.3012   27.9838 C.3     1  UNL1        0.2024
     42 C         -30.1388    4.5837   26.5800 C.3     1  UNL1        0.2024
     43 C         -32.3803    4.0015   26.8642 C.3     1  UNL1        0.0551
     44 N         -25.3274    1.0180   28.9354 N.pl3   1  UNL1       -0.2170
     45 C         -28.6131    0.6788   28.1460 C.3     1  UNL1        0.0609
     46 C         -21.8683    1.5077   26.6117 C.2     1  UNL1       -0.0002
     47 C         -22.8245    0.5850   28.6521 C.2     1  UNL1        0.0162
     48 C         -27.6129   -0.3568   28.8694 C.2     1  UNL1       -0.0087
@<TRIPOS>BOND
     1     1    37    1
     2     2     7    1
     3     2     1    1
     4     3     2    2
     5     4     3    1
     6     4     5    2
     7     5     6    1
     8     6     7    2
     9     8     1    1
    10     8     9    1
    11     8    12    1
    12     9    10    1
    13    10    11    1
    14    12    11    1
    15    13    39    1
    16    14    13    1
    17    14    15    1
    18    15    18    2
    19    16    17    1
    20    16    15    1
    21    19    14    2
    22    20    21    2
    23    20    19    1
    24    21    26    1
    25    22    21    1
    26    23    22    1
    27    24    23    1
    28    24    25    1
    29    26    27    1
    30    26    13    1
    31    28    46    2
    32    28    39    1
    33    29    35    1
    34    30    29    2
    35    31    30    1
    36    31    33    2
    37    32    41    1
    38    32    31    1
    39    33    40    1
    40    34    47    2
    41    36    47    1
    42    36    44    1
    43    38    42    1
    44    38    43    1
    45    39    36    2
    46    40    35    2
    47    42    32    1
    48    43    41    1
    49    44    37    1
    50    45    48    1
    51    45    33    1
    52    46    34    1
    53    48    37    2
