@<TRIPOS>MOLECULE
outputs/IAG933/test6/raw/output_2985_IAG933_linker_design_.xyz
 46 49 0 0 0
SMALL
GASTEIGER

@<TRIPOS>ATOM
      1 C         -24.8550   -1.0120   30.1430 C.3     1  UNL1        0.0412
      2 C         -24.9730   -2.5050   29.7880 C.2     1  UNL1       -0.0211
      3 C         -23.9060   -3.1730   29.1460 C.2     1  UNL1       -0.0042
      4 C         -23.9890   -4.5490   28.8530 C.2     1  UNL1       -0.0003
      5 C         -25.1370   -5.2800   29.2050 C.2     1  UNL1       -0.0000
      6 C         -26.2320   -4.6110   29.7840 C.2     1  UNL1       -0.0003
      7 C         -26.1550   -3.2320   30.0650 C.2     1  UNL1       -0.0042
      8 C         -25.3870   -0.6790   31.5710 C.3     1  UNL1        0.0769
      9 C         -25.1890    0.7730   32.0280 C.3     1  UNL1        0.0192
     10 C         -25.3360    0.6840   33.5440 C.3     1  UNL1        0.0202
     11 C         -24.8290   -0.7150   33.9050 C.3     1  UNL1        0.0887
     12 N         -24.7580   -1.4810   32.6460 N.3     1  UNL1       -0.2191
     13 C         -25.6880    1.6140   26.4610 C.2     1  UNL1        0.0183
     14 C         -26.2500    2.9200   26.3950 C.2     1  UNL1        0.0727
     15 C         -25.6420    4.0930   27.1230 C.2     1  UNL1        0.2661
     16 N         -25.6140    5.2520   26.4490 N.am    1  UNL1       -0.1997
     17 C         -25.0260    6.4790   26.9630 C.3     1  UNL1        0.1388
     18 O         -25.1430    3.9660   28.2430 O.2     1  UNL1       -0.2683
     19 C         -27.4380    3.0910   25.6450 C.2     1  UNL1        0.1064
     20 N         -28.0750    2.0890   25.0030 N.2     1  UNL1       -0.2081
     21 C         -27.5430    0.8490   25.0790 C.2     1  UNL1        0.2530
     22 O         -28.1930   -0.2080   24.4770 O.2     1  UNL1       -0.4558
     23 C         -29.4600    0.0050   23.8660 C.3     1  UNL1        0.2426
     24 C         -30.0650   -1.3770   23.5730 C.3     1  UNL1        0.2292
     25 O         -30.7290   -1.8780   24.7210 O.3     1  UNL1       -0.2162
     26 C         -26.3540    0.5760   25.7770 C.2     1  UNL1        0.1892
     27 F         -25.8600   -0.6810   25.7950 F       1  UNL1       -0.1996
     28 C         -26.9178   -0.6274   28.3647 C.3     1  UNL1        0.0896
     29 C         -25.6549   -0.0349   29.1830 C.3     1  UNL1        0.0421
     30 O         -31.7194    0.6466   30.5696 O.3     1  UNL1       -0.1933
     31 C         -22.1104    1.1951   28.4345 C.3     1  UNL1        0.1421
     32 C         -31.6660    1.1415   29.2298 C.3     1  UNL1        0.2400
     33 C         -24.5466    0.8562   28.5631 C.3     1  UNL1        0.1204
     34 O         -31.8299   -1.9443   29.2358 O.3     1  UNL1       -0.2211
     35 O         -23.2046    0.3383   28.8275 O.3     1  UNL1       -0.3559
     36 O         -28.5574    0.1907   29.8072 O.2     1  UNL1       -0.2733
     37 C         -33.2624   -0.2952   28.1598 C.3     1  UNL1        0.0400
     38 C         -30.7914    0.0280   28.3545 C.3     1  UNL1        0.1793
     39 C         -31.4745    3.6681   29.2827 C.3     1  UNL1        0.1768
     40 C         -28.3733   -0.3427   28.7362 C.2     1  UNL1        0.2416
     41 C         -24.4385    1.2428   27.2055 C.3     1  UNL1        0.0585
     42 O         -30.9149    2.3610   29.0028 O.3     1  UNL1       -0.3280
     43 C         -21.9516    1.7959   27.0518 C.3     1  UNL1        0.0346
     44 C         -33.1183    1.1641   28.6136 C.3     1  UNL1        0.0637
     45 N         -29.4358   -0.7399   27.9781 N.am    1  UNL1       -0.1994
     46 C         -31.9095   -0.9953   28.1871 C.3     1  UNL1        0.1769
@<TRIPOS>BOND
     1     1    29    1
     2     2     7    1
     3     2     1    1
     4     3     2    2
     5     4     3    1
     6     4     5    2
     7     5     6    1
     8     6     7    2
     9     8     1    1
    10     8     9    1
    11     8    12    1
    12     9    10    1
    13    10    11    1
    14    12    11    1
    15    13    41    1
    16    14    13    1
    17    14    15    1
    18    15    18    2
    19    16    17    1
    20    16    15    1
    21    19    14    2
    22    20    21    2
    23    20    19    1
    24    21    26    1
    25    22    21    1
    26    23    22    1
    27    24    23    1
    28    24    25    1
    29    26    27    1
    30    26    13    2
    31    28    40    1
    32    29    28    1
    33    31    35    1
    34    32    30    1
    35    33    41    1
    36    33    35    1
    37    33    29    1
    38    37    46    1
    39    37    44    1
    40    38    45    1
    41    38    32    1
    42    40    36    2
    43    42    32    1
    44    42    39    1
    45    43    31    1
    46    44    32    1
    47    45    40    1
    48    46    38    1
    49    46    34    1
