@<TRIPOS>MOLECULE
outputs/IAG933/test6/raw/output_2990_IAG933_linker_design_.xyz
 46 50 0 0 0
SMALL
GASTEIGER

@<TRIPOS>ATOM
      1 C         -24.8550   -1.0120   30.1430 C.3     1  UNL1        0.0572
      2 C         -24.9730   -2.5050   29.7880 C.2     1  UNL1       -0.0195
      3 C         -23.9060   -3.1730   29.1460 C.2     1  UNL1       -0.0042
      4 C         -23.9890   -4.5490   28.8530 C.2     1  UNL1       -0.0003
      5 C         -25.1370   -5.2800   29.2050 C.2     1  UNL1       -0.0000
      6 C         -26.2320   -4.6110   29.7840 C.2     1  UNL1       -0.0003
      7 C         -26.1550   -3.2320   30.0650 C.2     1  UNL1       -0.0042
      8 C         -25.3870   -0.6790   31.5710 C.3     1  UNL1        0.0784
      9 C         -25.1890    0.7730   32.0280 C.3     1  UNL1        0.0192
     10 C         -25.3360    0.6840   33.5440 C.3     1  UNL1        0.0202
     11 C         -24.8290   -0.7150   33.9050 C.3     1  UNL1        0.0887
     12 N         -24.7580   -1.4810   32.6460 N.3     1  UNL1       -0.2191
     13 C         -25.6880    1.6140   26.4610 C.2     1  UNL1        0.0312
     14 C         -26.2500    2.9200   26.3950 C.2     1  UNL1        0.0739
     15 C         -25.6420    4.0930   27.1230 C.2     1  UNL1        0.2662
     16 N         -25.6140    5.2520   26.4490 N.am    1  UNL1       -0.1997
     17 C         -25.0260    6.4790   26.9630 C.3     1  UNL1        0.1388
     18 O         -25.1430    3.9660   28.2430 O.2     1  UNL1       -0.2683
     19 C         -27.4380    3.0910   25.6450 C.2     1  UNL1        0.1065
     20 N         -28.0750    2.0890   25.0030 N.2     1  UNL1       -0.2081
     21 C         -27.5430    0.8490   25.0790 C.2     1  UNL1        0.2530
     22 O         -28.1930   -0.2080   24.4770 O.2     1  UNL1       -0.4558
     23 C         -29.4600    0.0050   23.8660 C.3     1  UNL1        0.2426
     24 C         -30.0650   -1.3770   23.5730 C.3     1  UNL1        0.2292
     25 O         -30.7290   -1.8780   24.7210 O.3     1  UNL1       -0.2162
     26 C         -26.3540    0.5760   25.7770 C.2     1  UNL1        0.1904
     27 F         -25.8600   -0.6810   25.7950 F       1  UNL1       -0.1995
     28 C         -31.5020    1.1784   29.8940 C.3     1  UNL1        0.0342
     29 C         -29.0127    1.7226   30.5996 C.2     1  UNL1       -0.0021
     30 C         -29.8742   -2.0389   30.7380 C.3     1  UNL1        0.1425
     31 C         -29.1651    0.5651   29.8037 C.2     1  UNL1        0.0017
     32 O         -30.8539   -1.1686   30.1084 O.3     1  UNL1       -0.3545
     33 C         -26.7689    0.5585   29.2845 C.2     1  UNL1       -0.0076
     34 C         -25.4522   -0.1714   29.0896 C.3     1  UNL1        0.0864
     35 C         -23.0218    0.1964   28.8411 C.3     1  UNL1        0.1318
     36 C         -22.7675    2.1566   25.4788 C.3     1  UNL1        0.0135
     37 S         -21.9889    1.4127   28.0593 S.3     1  UNL1       -0.1218
     38 C         -24.4756    1.2668   27.1748 C.3     1  UNL1        0.0935
     39 C         -30.5267    0.0494   29.4851 C.3     1  UNL1        0.1115
     40 N         -24.3765    0.4298   28.4129 N.3     1  UNL1       -0.2575
     41 C         -28.0080   -0.0484   29.2739 C.2     1  UNL1       -0.0050
     42 C         -26.8734    2.0737   29.5208 C.2     1  UNL1       -0.0030
     43 C         -23.2436    1.7185   26.8710 C.3     1  UNL1        0.0679
     44 C         -27.8977    2.5536   30.3639 C.2     1  UNL1       -0.0005
     45 C         -29.7141   -3.3744   29.9755 C.3     1  UNL1        0.0347
     46 C         -30.8245   -0.2466   27.9411 C.3     1  UNL1        0.0342
@<TRIPOS>BOND
     1     1    34    1
     2     2     7    1
     3     2     1    1
     4     3     2    2
     5     4     3    1
     6     4     5    2
     7     5     6    1
     8     6     7    2
     9     8     1    1
    10     8     9    1
    11     8    12    1
    12     9    10    1
    13    10    11    1
    14    12    11    1
    15    14    13    1
    16    14    15    1
    17    15    18    2
    18    16    17    1
    19    16    15    1
    20    19    14    2
    21    20    21    2
    22    20    19    1
    23    21    26    1
    24    22    21    1
    25    23    22    1
    26    24    23    1
    27    24    25    1
    28    26    27    1
    29    26    13    2
    30    31    29    2
    31    32    30    1
    32    33    42    1
    33    34    33    1
    34    37    35    1
    35    38    13    1
    36    38    40    1
    37    39    31    1
    38    39    28    1
    39    39    32    1
    40    40    35    1
    41    40    34    1
    42    41    33    2
    43    41    31    1
    44    42    44    2
    45    43    36    1
    46    43    38    1
    47    43    37    1
    48    44    29    1
    49    45    30    1
    50    46    39    1
