@<TRIPOS>MOLECULE
No_2991-gen_results/8p0m/2024-11-27-11-27-31/
 26 28 0 0 0
SMALL
GASTEIGER

@<TRIPOS>ATOM
      1 C         -28.0162   -0.8135   28.8779 C.3     1  UNL1        0.1116
      2 C         -27.0636   -0.1190   28.6079 C.ar    1  UNL1       -0.0131
      3 C         -26.9287    1.1713   29.0083 C.ar    1  UNL1       -0.0040
      4 C         -25.7702    2.0341   28.6884 C.ar    1  UNL1       -0.0002
      5 C         -24.7141    1.4431   27.9188 C.ar    1  UNL1        0.0308
      6 C         -24.8590    0.0783   27.5836 C.ar    1  UNL1       -0.0002
      7 C         -25.9647   -0.6606   27.9164 C.ar    1  UNL1       -0.0040
      8 C         -28.0422   -1.5426   30.2417 C.2     1  UNL1        0.2301
      9 N         -29.0328   -2.4276   30.5592 N.am    1  UNL1       -0.2793
     10 C         -23.5403    2.1625   27.5556 C.3     1  UNL1        0.2789
     11 N         -22.3984    2.1943   27.9306 N.am    1  UNL1       -0.1652
     12 F         -23.8461    3.2560   26.8961 F       1  UNL1       -0.2080
     13 C         -30.1673   -2.2736   30.1460 C.3     1  UNL1        0.0934
     14 C         -31.0546   -3.3409   30.4098 C.3     1  UNL1        0.0216
     15 C         -28.6994   -3.6604   31.1784 C.3     1  UNL1        0.0934
     16 C         -29.2827   -4.6776   30.8586 C.3     1  UNL1        0.0216
     17 C         -30.7249   -4.6126   30.7185 C.3     1  UNL1        0.0035
     18 O         -26.8235   -1.6401   30.7763 O.2     1  UNL1       -0.2745
     19 C         -21.6099    0.9916   28.1704 C.2     1  UNL1        0.2673
     20 C         -22.0790   -0.0100   29.0306 C.ar    1  UNL1        0.0551
     21 C         -22.5921    0.3329   30.2906 C.ar    1  UNL1        0.0046
     22 C         -23.1271   -0.7102   31.1180 C.ar    1  UNL1        0.0001
     23 C         -23.3056   -1.9552   30.5230 C.ar    1  UNL1        0.0000
     24 C         -23.0011   -2.2762   29.2432 C.ar    1  UNL1        0.0001
     25 C         -22.2940   -1.2899   28.5541 C.ar    1  UNL1        0.0046
     26 O         -20.4761    0.8620   27.5568 O.2     1  UNL1       -0.2683
@<TRIPOS>BOND
     1     1     2    1
     2     1     8    1
     3     8     9   am
     4     5    10    1
     5    10    11    1
     6    10    12    1
     7     9    13    1
     8     9    15    1
     9    14    17    1
    10    16    17    1
    11     8    18    2
    12    11    19   am
    13    19    20    1
    14    19    26    2
    15    13    14    1
    16    16    15    1
    17     2     3   ar
    18     3     4   ar
    19     4     5   ar
    20     5     6   ar
    21     6     7   ar
    22     7     2   ar
    23    20    21   ar
    24    21    22   ar
    25    22    23   ar
    26    23    24   ar
    27    24    25   ar
    28    25    20   ar
