@<TRIPOS>MOLECULE
No_2992-gen_results/8p0m/2024-11-27-11-27-31/
 29 31 0 0 0
SMALL
GASTEIGER

@<TRIPOS>ATOM
      1 O         -28.1229   -1.3353   28.4874 O.2     1  UNL1       -0.2730
      2 C         -27.0637   -0.8242   28.8687 C.2     1  UNL1        0.2450
      3 C         -26.9592    0.0926   29.7582 C.3     1  UNL1        0.1011
      4 N         -25.8472   -1.5491   28.6589 N.am    1  UNL1       -0.2046
      5 C         -27.8673    0.9590   30.1109 C.ar    1  UNL1       -0.0094
      6 C         -24.5647   -1.1378   29.0392 C.3     1  UNL1        0.1264
      7 C         -24.4510   -0.0172   29.7492 C.3     1  UNL1        0.1258
      8 C         -25.5598    0.6710   30.1599 C.3     1  UNL1        0.0266
      9 C         -28.5145    1.7143   29.2872 C.ar    1  UNL1       -0.0035
     10 C         -29.6426    2.4731   29.5852 C.ar    1  UNL1        0.0063
     11 C         -28.4187    0.7649   31.4611 C.ar    1  UNL1        0.0506
     12 C         -29.5669    1.5424   31.8754 C.ar    1  UNL1        0.0108
     13 C         -30.1333    2.3968   30.9329 C.ar    1  UNL1        0.0799
     14 C         -31.2739    3.2482   31.3109 C.2     1  UNL1        0.3878
     15 O         -31.1737    3.9512   32.2262 O.co2   1  UNL1       -0.2406
     16 O         -32.1868    3.3489   30.3748 O.co2   1  UNL1       -0.2406
     17 C         -23.0384    0.3917   30.1578 C.2     1  UNL1        0.3661
     18 O         -21.9996   -0.2446   29.7892 O.co2   1  UNL1       -0.2456
     19 O         -22.9311    1.2058   31.1475 O.co2   1  UNL1       -0.2456
     20 C         -27.7686   -0.0904   32.4381 C.2     1  UNL1        0.2525
     21 O         -28.0857   -1.2652   32.3968 O.2     1  UNL1       -0.2696
     22 N         -26.8974    0.4388   33.3130 N.am    1  UNL1       -0.2534
     23 C         -26.1183   -0.3959   34.2440 C.3     1  UNL1        0.1203
     24 C         -26.6175    1.8765   33.3997 C.ar    1  UNL1        0.0542
     25 C         -27.0803    2.6723   34.6907 C.ar    1  UNL1        0.0149
     26 C         -26.7237    3.9584   34.6922 C.ar    1  UNL1        0.0013
     27 C         -26.0233    4.6093   33.6329 C.ar    1  UNL1        0.0001
     28 C         -25.6049    3.8088   32.5573 C.ar    1  UNL1        0.0013
     29 C         -25.8499    2.5193   32.5591 C.ar    1  UNL1        0.0149
@<TRIPOS>BOND
     1     1     2    2
     2     2     3    1
     3     2     4   am
     4     3     5    1
     5     4     6    1
     6     3     8    1
     7     7     8    1
     8    13    14    1
     9    14    15   ar
    10    14    16   ar
    11     7    17    1
    12    17    18   ar
    13    17    19   ar
    14    11    20    1
    15    20    21    2
    16    20    22   am
    17    22    23    1
    18    22    24    1
    19     7     6    1
    20     5     9   ar
    21     9    10   ar
    22    10    13   ar
    23    13    12   ar
    24    12    11   ar
    25    11     5   ar
    26    24    25   ar
    27    25    26   ar
    28    26    27   ar
    29    27    28   ar
    30    28    29   ar
    31    29    24   ar
