@<TRIPOS>MOLECULE
outputs/IAG933/test6/raw/output_2994_IAG933_linker_design_.xyz
 40 42 0 0 0
SMALL
GASTEIGER

@<TRIPOS>ATOM
      1 C         -24.8550   -1.0120   30.1430 C.3     1  UNL1        0.0749
      2 C         -24.9730   -2.5050   29.7880 C.2     1  UNL1       -0.0181
      3 C         -23.9060   -3.1730   29.1460 C.2     1  UNL1       -0.0041
      4 C         -23.9890   -4.5490   28.8530 C.2     1  UNL1       -0.0003
      5 C         -25.1370   -5.2800   29.2050 C.2     1  UNL1       -0.0000
      6 C         -26.2320   -4.6110   29.7840 C.2     1  UNL1       -0.0003
      7 C         -26.1550   -3.2320   30.0650 C.2     1  UNL1       -0.0041
      8 C         -25.3870   -0.6790   31.5710 C.3     1  UNL1        0.0799
      9 C         -25.1890    0.7730   32.0280 C.3     1  UNL1        0.0193
     10 C         -25.3360    0.6840   33.5440 C.3     1  UNL1        0.0202
     11 C         -24.8290   -0.7150   33.9050 C.3     1  UNL1        0.0887
     12 N         -24.7580   -1.4810   32.6460 N.3     1  UNL1       -0.2190
     13 C         -25.6880    1.6140   26.4610 C.2     1  UNL1        0.0520
     14 C         -26.2500    2.9200   26.3950 C.2     1  UNL1        0.0755
     15 C         -25.6420    4.0930   27.1230 C.2     1  UNL1        0.2662
     16 N         -25.6140    5.2520   26.4490 N.am    1  UNL1       -0.1997
     17 C         -25.0260    6.4790   26.9630 C.3     1  UNL1        0.1388
     18 O         -25.1430    3.9660   28.2430 O.2     1  UNL1       -0.2683
     19 C         -27.4380    3.0910   25.6450 C.2     1  UNL1        0.1065
     20 N         -28.0750    2.0890   25.0030 N.2     1  UNL1       -0.2081
     21 C         -27.5430    0.8490   25.0790 C.2     1  UNL1        0.2531
     22 O         -28.1930   -0.2080   24.4770 O.2     1  UNL1       -0.4558
     23 C         -29.4600    0.0050   23.8660 C.3     1  UNL1        0.2426
     24 C         -30.0650   -1.3770   23.5730 C.3     1  UNL1        0.2292
     25 O         -30.7290   -1.8780   24.7210 O.3     1  UNL1       -0.2162
     26 C         -26.3540    0.5760   25.7770 C.2     1  UNL1        0.1921
     27 F         -25.8600   -0.6810   25.7950 F       1  UNL1       -0.1995
     28 C         -21.7248    0.2952   28.9188 C.1     1  UNL1        0.0831
     29 O         -28.3265   -0.9687   28.3923 O.2     1  UNL1       -0.2733
     30 N         -24.5994    0.9775   28.6511 N.3     1  UNL1       -0.1744
     31 N         -26.8447    0.4969   29.2698 N.am    1  UNL1       -0.1887
     32 C         -24.4436    1.1928   27.1621 C.3     1  UNL1        0.1947
     33 C         -21.4769    1.1740   27.9424 C.3     1  UNL1        0.1917
     34 C         -22.0457    1.5156   26.6961 C.2     1  UNL1        0.2583
     35 C         -25.5185   -0.1117   29.0143 C.3     1  UNL1        0.1747
     36 N         -23.2659    1.1417   26.3859 N.am    1  UNL1       -0.1836
     37 C         -28.9170    0.2300   30.1572 C.3     1  UNL1        0.0965
     38 N         -22.0149   -0.5590   29.7640 N.1     1  UNL1       -0.1954
     39 C         -28.0126   -0.1209   29.2205 C.2     1  UNL1        0.2431
     40 O         -21.3872    2.0824   25.9054 O.2     1  UNL1       -0.2721
@<TRIPOS>BOND
     1     1    35    1
     2     2     7    1
     3     2     1    1
     4     3     2    2
     5     4     3    1
     6     4     5    2
     7     5     6    1
     8     6     7    2
     9     8     1    1
    10     8     9    1
    11     8    12    1
    12     9    10    1
    13    10    11    1
    14    12    11    1
    15    13    32    1
    16    14    13    1
    17    14    15    1
    18    15    18    2
    19    16    17    1
    20    16    15    1
    21    19    14    2
    22    20    21    2
    23    20    19    1
    24    21    26    1
    25    22    21    1
    26    23    22    1
    27    24    23    1
    28    24    25    1
    29    26    27    1
    30    26    13    2
    31    28    38    3
    32    29    39    2
    33    32    36    1
    34    32    30    1
    35    33    28    1
    36    34    33    1
    37    35    30    1
    38    35    31    1
    39    36    34    1
    40    39    31    1
    41    39    37    1
    42    40    34    2
