@<TRIPOS>MOLECULE
No_2995-gen_results/8p0m/2024-11-27-11-27-31/
 16 18 0 0 0
SMALL
GASTEIGER

@<TRIPOS>ATOM
      1 C         -28.0162   -0.8135   28.8779 C.ar    1  UNL1       -0.0003
      2 C         -27.0636   -0.1189   28.6079 C.ar    1  UNL1       -0.0043
      3 C         -26.9716    0.7139   27.5060 C.ar    1  UNL1       -0.0043
      4 C         -28.1053    0.7744   26.6421 C.ar    1  UNL1       -0.0003
      5 C         -29.2041    0.1179   27.0477 C.ar    1  UNL1       -0.0000
      6 C         -29.2127   -0.6088   28.1281 C.ar    1  UNL1       -0.0000
      7 C         -25.7106    1.4518   27.1380 C.ar    1  UNL1       -0.0218
      8 C         -24.6052    0.9253   27.6902 C.ar    1  UNL1       -0.0043
      9 C         -23.3087    1.6018   27.4923 C.ar    1  UNL1       -0.0003
     10 C         -22.1769    1.1971   28.2745 C.ar    1  UNL1       -0.0000
     11 C         -22.2182    0.0930   29.0618 C.ar    1  UNL1       -0.0000
     12 C         -23.4005   -0.6727   29.1615 C.ar    1  UNL1       -0.0003
     13 C         -24.5560   -0.2221   28.5396 C.ar    1  UNL1       -0.0043
     14 C         -25.7306   -0.6018   29.1335 C.ar    1  UNL1       -0.0218
     15 C         -25.7554   -1.6470   30.1417 C.3     1  UNL1        0.0310
     16 C         -25.8434    2.9193   27.3857 C.3     1  UNL1        0.0310
@<TRIPOS>BOND
     1    14    15    1
     2     7    16    1
     3     3     7   ar
     4     7     8   ar
     5    13    14   ar
     6    14     2   ar
     7     1     2   ar
     8     2     3   ar
     9     3     4   ar
    10     4     5   ar
    11     5     6   ar
    12     6     1   ar
    13     8     9   ar
    14     9    10   ar
    15    10    11   ar
    16    11    12   ar
    17    12    13   ar
    18    13     8   ar
