@<TRIPOS>MOLECULE
outputs/IAG933/test6/raw/output_2997_IAG933_linker_design_.xyz
 44 46 0 0 0
SMALL
GASTEIGER

@<TRIPOS>ATOM
      1 C         -24.8550   -1.0120   30.1430 C.3     1  UNL1        0.0607
      2 C         -24.9730   -2.5050   29.7880 C.2     1  UNL1       -0.0193
      3 C         -23.9060   -3.1730   29.1460 C.2     1  UNL1       -0.0042
      4 C         -23.9890   -4.5490   28.8530 C.2     1  UNL1       -0.0003
      5 C         -25.1370   -5.2800   29.2050 C.2     1  UNL1       -0.0000
      6 C         -26.2320   -4.6110   29.7840 C.2     1  UNL1       -0.0003
      7 C         -26.1550   -3.2320   30.0650 C.2     1  UNL1       -0.0042
      8 C         -25.3870   -0.6790   31.5710 C.3     1  UNL1        0.0787
      9 C         -25.1890    0.7730   32.0280 C.3     1  UNL1        0.0193
     10 C         -25.3360    0.6840   33.5440 C.3     1  UNL1        0.0202
     11 C         -24.8290   -0.7150   33.9050 C.3     1  UNL1        0.0887
     12 N         -24.7580   -1.4810   32.6460 N.3     1  UNL1       -0.2191
     13 C         -25.6880    1.6140   26.4610 C.2     1  UNL1        0.0514
     14 C         -26.2500    2.9200   26.3950 C.2     1  UNL1        0.0777
     15 C         -25.6420    4.0930   27.1230 C.2     1  UNL1        0.2665
     16 N         -25.6140    5.2520   26.4490 N.am    1  UNL1       -0.1997
     17 C         -25.0260    6.4790   26.9630 C.3     1  UNL1        0.1388
     18 O         -25.1430    3.9660   28.2430 O.2     1  UNL1       -0.2683
     19 C         -27.4380    3.0910   25.6450 C.2     1  UNL1        0.1068
     20 N         -28.0750    2.0890   25.0030 N.2     1  UNL1       -0.2081
     21 C         -27.5430    0.8490   25.0790 C.2     1  UNL1        0.2533
     22 O         -28.1930   -0.2080   24.4770 O.2     1  UNL1       -0.4558
     23 C         -29.4600    0.0050   23.8660 C.3     1  UNL1        0.2426
     24 C         -30.0650   -1.3770   23.5730 C.3     1  UNL1        0.2292
     25 O         -30.7290   -1.8780   24.7210 O.3     1  UNL1       -0.2162
     26 C         -26.3540    0.5760   25.7770 C.2     1  UNL1        0.1942
     27 F         -25.8600   -0.6810   25.7950 F       1  UNL1       -0.1992
     28 C         -22.3212    1.3889   27.9763 C.3     1  UNL1        0.3165
     29 C         -22.9001    1.7902   25.8225 C.3     1  UNL1        0.1207
     30 O         -31.3962   -1.8399   29.2873 O.co2   1  UNL1       -0.2457
     31 F         -21.1115    1.6870   27.6752 F       1  UNL1       -0.2006
     32 C         -29.6176   -0.6370   30.2891 C.3     1  UNL1        0.1140
     33 C         -26.9815   -0.7872   28.5857 C.3     1  UNL1        0.0247
     34 O         -22.3962    0.7468   29.0911 O.3     1  UNL1       -0.1838
     35 O         -29.6502   -3.0287   30.0790 O.co2   1  UNL1       -0.2457
     36 C         -25.7139   -0.0980   29.2441 C.3     1  UNL1        0.1082
     37 N         -23.5354    2.8227   25.1301 N.3     1  UNL1       -0.1308
     38 C         -29.5935    0.2239   29.0140 C.3     1  UNL1        0.0113
     39 N         -24.9243    0.5461   28.3292 N.2     1  UNL1       -0.2760
     40 C         -30.2740   -1.9426   29.9764 C.2     1  UNL1        0.3649
     41 C         -24.7272    1.2106   27.2968 C.2     1  UNL1        0.0625
     42 C         -28.4054   -0.2574   28.1676 C.3     1  UNL1        0.0026
     43 C         -29.6821    1.7180   29.2127 C.3     1  UNL1        0.0006
     44 C         -23.3612    1.5274   27.0144 C.3     1  UNL1        0.1233
@<TRIPOS>BOND
     1     1    36    1
     2     2     7    1
     3     2     1    1
     4     3     2    2
     5     4     3    1
     6     4     5    2
     7     5     6    1
     8     6     7    2
     9     8     1    1
    10     8     9    1
    11     8    12    1
    12     9    10    1
    13    10    11    1
    14    12    11    1
    15    13    41    1
    16    14    13    1
    17    14    15    1
    18    15    18    2
    19    16    17    1
    20    16    15    1
    21    19    14    2
    22    20    21    2
    23    20    19    1
    24    21    26    1
    25    22    21    1
    26    23    22    1
    27    24    23    1
    28    24    25    1
    29    26    27    1
    30    26    13    2
    31    28    31    1
    32    28    34    1
    33    30    40   ar
    34    36    33    1
    35    37    29    1
    36    38    43    1
    37    38    32    1
    38    39    36    1
    39    40    35   ar
    40    40    32    1
    41    41    39    2
    42    42    33    1
    43    42    38    1
    44    44    29    1
    45    44    41    1
    46    44    28    1
