@<TRIPOS>MOLECULE
No_3000-gen_results/8p0m/2024-11-27-11-27-31/
 35 40 0 0 0
SMALL
GASTEIGER

@<TRIPOS>ATOM
      1 C         -28.0162   -0.8135   28.8779 C.ar    1  UNL1        0.0145
      2 C         -27.0636   -0.1189   28.6079 C.ar    1  UNL1        0.0485
      3 C         -26.9287    1.1713   29.0083 C.ar    1  UNL1        0.0146
      4 C         -27.9560    1.7411   29.7840 C.ar    1  UNL1        0.0024
      5 C         -29.0569   -0.3271   29.7466 C.ar    1  UNL1        0.0013
      6 C         -28.9828    0.9722   30.1516 C.ar    1  UNL1        0.0001
      7 N         -25.9739   -0.5937   27.8380 N.pl3   1  UNL1       -0.2980
      8 C         -25.3069    0.0841   26.8586 C.3     1  UNL1        0.1003
      9 C         -25.1884   -1.7389   28.2896 C.3     1  UNL1        0.1388
     10 C         -25.2119   -2.4795   29.1318 C.2     1  UNL1        0.0199
     11 C         -24.4222   -3.6202   29.3017 C.2     1  UNL1        0.0960
     12 N         -23.3783   -3.4490   28.4942 N.2     1  UNL1       -0.2452
     13 C         -23.8152   -2.0280   27.6587 C.2     1  UNL1        0.0966
     14 C         -26.2665    0.6024   25.8822 C.3     1  UNL1        0.0659
     15 C         -24.5061    1.3239   27.3337 C.2     1  UNL1       -0.0215
     16 C         -23.6814    1.8180   26.9651 C.2     1  UNL1       -0.0069
     17 C         -22.8082    2.9216   27.5340 C.2     1  UNL1       -0.0048
     18 C         -23.1519    2.8920   28.9378 C.2     1  UNL1       -0.0217
     19 C         -24.3820    1.7373   28.8848 C.3     1  UNL1        0.0496
     20 C         -26.3579   -0.0908   24.6944 C.2     1  UNL1       -0.0201
     21 C         -27.6927   -0.1960   24.3832 C.2     1  UNL1       -0.0045
     22 C         -28.5817    0.7256   24.9073 C.2     1  UNL1       -0.0045
     23 C         -27.3605    1.4974   26.0239 C.2     1  UNL1       -0.0201
     24 C         -27.9166    3.0344   30.5027 C.ar    1  UNL1        0.0134
     25 C         -27.3514    3.1485   31.6290 C.ar    1  UNL1        0.0012
     26 C         -29.0206    3.9246   30.1922 C.ar    1  UNL1        0.0478
     27 N         -29.6450    4.0407   29.3677 N.pl3   1  UNL1       -0.3075
     28 C         -29.1923    3.8495   28.1230 C.3     1  UNL1        0.0908
     29 C         -30.1675    3.8265   27.0177 C.3     1  UNL1        0.0215
     30 C         -27.1460    4.3668   32.1805 C.ar    1  UNL1        0.0001
     31 C         -28.0427    5.4033   31.9492 C.ar    1  UNL1        0.0013
     32 C         -28.9400    5.2379   30.9431 C.ar    1  UNL1        0.0145
     33 C         -30.9299    3.1395   29.4684 C.3     1  UNL1        0.0908
     34 C         -31.9195    3.3475   28.4145 C.3     1  UNL1        0.0215
     35 C         -31.3382    3.1083   27.1416 C.3     1  UNL1        0.0035
@<TRIPOS>BOND
     1     2     7    1
     2     7     8    1
     3     7     9    1
     4     9    10    1
     5    10    11    2
     6    11    12    1
     7     9    13    1
     8    12    13    2
     9     8    14    1
    10     8    15    1
    11    15    16    2
    12    16    17    1
    13    17    18    2
    14    15    19    1
    15    18    19    1
    16    14    20    1
    17    20    21    2
    18    21    22    1
    19    14    23    1
    20    22    23    2
    21     4    24    1
    22    26    27    1
    23    27    28    1
    24    27    33    1
    25    33    34    1
    26    29    35    1
    27    34    35    1
    28    28    29    1
    29     1     2   ar
    30     2     3   ar
    31     3     4   ar
    32     4     6   ar
    33     6     5   ar
    34     5     1   ar
    35    24    25   ar
    36    25    30   ar
    37    30    31   ar
    38    31    32   ar
    39    32    26   ar
    40    26    24   ar
