@<TRIPOS>MOLECULE
outputs/IAG933/test6/raw/output_3001_IAG933_linker_design_.xyz
 48 53 0 0 0
SMALL
GASTEIGER

@<TRIPOS>ATOM
      1 C         -24.8550   -1.0120   30.1430 C.3     1  UNL1        0.0713
      2 C         -24.9730   -2.5050   29.7880 C.2     1  UNL1       -0.0184
      3 C         -23.9060   -3.1730   29.1460 C.2     1  UNL1       -0.0041
      4 C         -23.9890   -4.5490   28.8530 C.2     1  UNL1       -0.0003
      5 C         -25.1370   -5.2800   29.2050 C.2     1  UNL1       -0.0000
      6 C         -26.2320   -4.6110   29.7840 C.2     1  UNL1       -0.0003
      7 C         -26.1550   -3.2320   30.0650 C.2     1  UNL1       -0.0041
      8 C         -25.3870   -0.6790   31.5710 C.3     1  UNL1        0.0795
      9 C         -25.1890    0.7730   32.0280 C.3     1  UNL1        0.0193
     10 C         -25.3360    0.6840   33.5440 C.3     1  UNL1        0.0202
     11 C         -24.8290   -0.7150   33.9050 C.3     1  UNL1        0.0887
     12 N         -24.7580   -1.4810   32.6460 N.3     1  UNL1       -0.2190
     13 C         -25.6880    1.6140   26.4610 C.2     1  UNL1        0.0401
     14 C         -26.2500    2.9200   26.3950 C.2     1  UNL1        0.0766
     15 C         -25.6420    4.0930   27.1230 C.2     1  UNL1        0.2664
     16 N         -25.6140    5.2520   26.4490 N.am    1  UNL1       -0.1997
     17 C         -25.0260    6.4790   26.9630 C.3     1  UNL1        0.1388
     18 O         -25.1430    3.9660   28.2430 O.2     1  UNL1       -0.2683
     19 C         -27.4380    3.0910   25.6450 C.2     1  UNL1        0.1067
     20 N         -28.0750    2.0890   25.0030 N.2     1  UNL1       -0.2081
     21 C         -27.5430    0.8490   25.0790 C.2     1  UNL1        0.2533
     22 O         -28.1930   -0.2080   24.4770 O.2     1  UNL1       -0.4560
     23 C         -29.4600    0.0050   23.8660 C.3     1  UNL1        0.2391
     24 C         -30.0650   -1.3770   23.5730 C.3     1  UNL1        0.1894
     25 O         -30.7290   -1.8780   24.7210 O.3     1  UNL1       -0.3497
     26 C         -26.3540    0.5760   25.7770 C.2     1  UNL1        0.1931
     27 F         -25.8600   -0.6810   25.7950 F       1  UNL1       -0.1992
     28 N         -23.0963    0.2836   28.9282 N.2     1  UNL1       -0.2457
     29 C         -23.2027    1.6249   26.4753 C.2     1  UNL1        0.0605
     30 O         -32.8423   -1.7099   29.6429 O.co2   1  UNL1       -0.2442
     31 O         -26.8695   -0.1758   28.5239 O.3     1  UNL1       -0.3483
     32 C         -31.9927   -2.3905   29.0331 C.2     1  UNL1        0.3791
     33 N         -30.2683   -0.7717   28.7783 N.3     1  UNL1       -0.2379
     34 C         -32.2645   -1.4719   26.7477 C.3     1  UNL1        0.0597
     35 C         -31.8283   -1.1631   25.2896 C.3     1  UNL1        0.1443
     36 C         -28.0416   -0.0034   29.3624 C.3     1  UNL1        0.1629
     37 C         -24.4040    1.3050   27.1473 C.2     1  UNL1        0.0290
     38 O         -29.2457   -2.4022   29.9978 O.3     1  UNL1       -0.2023
     39 O         -31.7402   -3.5676   29.2077 O.co2   1  UNL1       -0.2442
     40 C         -30.2948    0.6805   28.8518 C.3     1  UNL1        0.0775
     41 C         -22.0030    1.5031   27.1418 C.2     1  UNL1        0.0320
     42 C         -25.5326   -0.0350   29.1685 C.3     1  UNL1        0.1602
     43 C         -28.9374   -1.2787   29.1744 C.3     1  UNL1        0.2402
     44 C         -31.1992   -1.6433   27.9224 C.3     1  UNL1        0.1663
     45 C         -28.8697    1.2452   28.9043 C.3     1  UNL1        0.0511
     46 C         -21.9548    0.8421   28.3738 C.2     1  UNL1        0.0994
     47 CL        -23.1686    2.1137   24.8255 Cl      1  UNL1       -0.0822
     48 C         -24.3403    0.4948   28.3557 C.2     1  UNL1        0.0872
@<TRIPOS>BOND
     1     1     2    1
     2     2     7    1
     3     3     2    2
     4     4     3    1
     5     4     5    2
     6     5     6    1
     7     6     7    2
     8     8     1    1
     9     8     9    1
    10     8    12    1
    11     9    10    1
    12    10    11    1
    13    12    11    1
    14    13    37    1
    15    14    13    1
    16    14    15    1
    17    15    18    2
    18    16    17    1
    19    16    15    1
    20    19    14    2
    21    20    21    2
    22    20    19    1
    23    21    26    1
    24    22    21    1
    25    23    22    1
    26    24    23    1
    27    24    25    1
    28    25    35    1
    29    26    27    1
    30    26    13    2
    31    29    41    1
    32    29    37    2
    33    31    42    1
    34    31    36    1
    35    32    39   ar
    36    32    30   ar
    37    33    40    1
    38    33    43    1
    39    34    44    1
    40    35    34    1
    41    36    45    1
    42    37    48    1
    43    40    45    1
    44    41    46    2
    45    42     1    1
    46    43    36    1
    47    43    38    1
    48    44    33    1
    49    44    32    1
    50    46    28    1
    51    47    29    1
    52    48    28    2
    53    48    42    1
