@<TRIPOS>MOLECULE
No_3003-gen_results/8p0m/2024-11-27-11-27-31/
 12 12 0 0 0
SMALL
GASTEIGER

@<TRIPOS>ATOM
      1 C         -28.0162   -0.8135   28.8779 C.3     1  UNL1        0.3410
      2 C         -27.0636   -0.1189   28.6079 C.ar    1  UNL1        0.0436
      3 C         -25.7647   -0.3897   29.0360 C.ar    1  UNL1        0.0013
      4 C         -24.5517    0.4058   28.7646 C.ar    1  UNL1        0.0064
      5 C         -24.6957    1.4480   27.7988 C.ar    1  UNL1        0.0798
      6 C         -25.9755    1.7250   27.3077 C.ar    1  UNL1        0.0064
      7 C         -27.0718    1.0134   27.6535 C.ar    1  UNL1        0.0013
      8 F         -27.8748   -2.0191   29.1904 F       1  UNL1       -0.1933
      9 F         -28.9917   -0.8236   27.9021 F       1  UNL1       -0.1933
     10 C         -23.4866    2.2109   27.5144 C.2     1  UNL1        0.3878
     11 O         -23.5701    3.1722   26.7393 O.co2   1  UNL1       -0.2406
     12 O         -22.3627    2.0401   28.1532 O.co2   1  UNL1       -0.2406
@<TRIPOS>BOND
     1     1     8    1
     2     1     9    1
     3     5    10    1
     4    10    11   ar
     5    10    12   ar
     6     1     2    1
     7     2     3   ar
     8     3     4   ar
     9     4     5   ar
    10     5     6   ar
    11     6     7   ar
    12     7     2   ar
