@<TRIPOS>MOLECULE
No_3004-gen_results/8p0m/2024-11-27-11-27-31/
 9 9 0 0 0
SMALL
GASTEIGER

@<TRIPOS>ATOM
      1 C         -28.0162   -0.8135   28.8779 C.ar    1  UNL1        0.0011
      2 C         -28.4690   -0.7850   29.8287 C.ar    1  UNL1       -0.0001
      3 C         -27.0871    0.2903   28.6377 C.ar    1  UNL1        0.0436
      4 C         -26.2516    0.4114   27.4223 C.3     1  UNL1        0.3410
      5 C         -28.3913    0.1041   30.9805 C.ar    1  UNL1       -0.0000
      6 C         -27.5332    1.1666   30.7866 C.ar    1  UNL1       -0.0001
      7 C         -26.8281    1.2557   29.6454 C.ar    1  UNL1        0.0011
      8 F         -26.4955   -0.2382   26.5458 F       1  UNL1       -0.1933
      9 F         -25.2707    1.2563   27.3945 F       1  UNL1       -0.1933
@<TRIPOS>BOND
     1     3     4    1
     2     4     8    1
     3     4     9    1
     4     1     2   ar
     5     2     5   ar
     6     5     6   ar
     7     6     7   ar
     8     7     3   ar
     9     3     1   ar
