@<TRIPOS>MOLECULE
outputs/IAG933/test6/raw/output_3006_IAG933_linker_design_.xyz
 39 43 0 0 0
SMALL
GASTEIGER

@<TRIPOS>ATOM
      1 C         -24.8550   -1.0120   30.1430 C.3     1  UNL1        0.1178
      2 C         -24.9730   -2.5050   29.7880 C.2     1  UNL1       -0.0123
      3 C         -23.9060   -3.1730   29.1460 C.2     1  UNL1       -0.0038
      4 C         -23.9890   -4.5490   28.8530 C.2     1  UNL1       -0.0003
      5 C         -25.1370   -5.2800   29.2050 C.2     1  UNL1       -0.0000
      6 C         -26.2320   -4.6110   29.7840 C.2     1  UNL1       -0.0003
      7 C         -26.1550   -3.2320   30.0650 C.2     1  UNL1       -0.0038
      8 C         -25.3870   -0.6790   31.5710 C.3     1  UNL1        0.0857
      9 C         -25.1890    0.7730   32.0280 C.3     1  UNL1        0.0197
     10 C         -25.3360    0.6840   33.5440 C.3     1  UNL1        0.0203
     11 C         -24.8290   -0.7150   33.9050 C.3     1  UNL1        0.0887
     12 N         -24.7580   -1.4810   32.6460 N.3     1  UNL1       -0.2186
     13 C         -25.6880    1.6140   26.4610 C.2     1  UNL1        0.0548
     14 C         -26.2500    2.9200   26.3950 C.2     1  UNL1        0.0780
     15 C         -25.6420    4.0930   27.1230 C.2     1  UNL1        0.2665
     16 N         -25.6140    5.2520   26.4490 N.am    1  UNL1       -0.1997
     17 C         -25.0260    6.4790   26.9630 C.3     1  UNL1        0.1388
     18 O         -25.1430    3.9660   28.2430 O.2     1  UNL1       -0.2683
     19 C         -27.4380    3.0910   25.6450 C.2     1  UNL1        0.1068
     20 N         -28.0750    2.0890   25.0030 N.2     1  UNL1       -0.2081
     21 C         -27.5430    0.8490   25.0790 C.2     1  UNL1        0.2533
     22 O         -28.1930   -0.2080   24.4770 O.2     1  UNL1       -0.4558
     23 C         -29.4600    0.0050   23.8660 C.3     1  UNL1        0.2426
     24 C         -30.0650   -1.3770   23.5730 C.3     1  UNL1        0.2292
     25 O         -30.7290   -1.8780   24.7210 O.3     1  UNL1       -0.2162
     26 C         -26.3540    0.5760   25.7770 C.2     1  UNL1        0.1945
     27 F         -25.8600   -0.6810   25.7950 F       1  UNL1       -0.1992
     28 BR        -22.8621    2.7687   25.2975 Br      1  UNL1       -0.0443
     29 C         -25.3833   -0.2278   28.9828 C.2     1  UNL1        0.2461
     30 C         -23.1431    1.6958   26.7207 C.ar    1  UNL1        0.0859
     31 N         -24.3811    0.4860   28.3909 N.ar    1  UNL1       -0.2764
     32 C         -20.2657    0.1997   28.5211 C.3     1  UNL1        0.2994
     33 N         -20.8307   -0.3965   29.1108 N.3     1  UNL1       -0.1692
     34 C         -22.3126    1.1047   27.8025 C.ar    1  UNL1        0.1613
     35 O         -26.5066   -0.4773   28.6046 O.2     1  UNL1       -0.2712
     36 C         -22.2390   -0.3167   29.7608 C.3     1  UNL1        0.1395
     37 C         -22.9472    0.4653   28.6842 C.ar    1  UNL1        0.0960
     38 C         -24.4344    1.3178   27.2152 C.ar    1  UNL1        0.0780
     39 O         -20.9478    1.2009   27.7260 O.3     1  UNL1       -0.4553
@<TRIPOS>BOND
     1     1    29    1
     2     2     7    1
     3     2     1    1
     4     3     2    2
     5     4     3    1
     6     4     5    2
     7     5     6    1
     8     6     7    2
     9     8     1    1
    10     8     9    1
    11     8    12    1
    12     9    10    1
    13    10    11    1
    14    12    11    1
    15    13    38    1
    16    14    13    1
    17    14    15    1
    18    15    18    2
    19    16    17    1
    20    16    15    1
    21    19    14    2
    22    20    21    2
    23    20    19    1
    24    21    26    1
    25    22    21    1
    26    23    22    1
    27    24    23    1
    28    24    25    1
    29    26    27    1
    30    26    13    2
    31    28    30    1
    32    30    38   ar
    33    30    34   ar
    34    31    37   ar
    35    31    29   am
    36    32    33    1
    37    33    36    1
    38    34    37   ar
    39    35    29    2
    40    37    36    1
    41    38    31   ar
    42    39    34    1
    43    39    32    1
