@<TRIPOS>MOLECULE
outputs/IAG933/test6/raw/output_3007_IAG933_linker_design_.xyz
 44 48 0 0 0
SMALL
GASTEIGER

@<TRIPOS>ATOM
      1 C         -24.8550   -1.0120   30.1430 C.3     1  UNL1        0.0590
      2 C         -24.9730   -2.5050   29.7880 C.2     1  UNL1       -0.0194
      3 C         -23.9060   -3.1730   29.1460 C.2     1  UNL1       -0.0042
      4 C         -23.9890   -4.5490   28.8530 C.2     1  UNL1       -0.0003
      5 C         -25.1370   -5.2800   29.2050 C.2     1  UNL1       -0.0000
      6 C         -26.2320   -4.6110   29.7840 C.2     1  UNL1       -0.0003
      7 C         -26.1550   -3.2320   30.0650 C.2     1  UNL1       -0.0042
      8 C         -25.3870   -0.6790   31.5710 C.3     1  UNL1        0.0785
      9 C         -25.1890    0.7730   32.0280 C.3     1  UNL1        0.0192
     10 C         -25.3360    0.6840   33.5440 C.3     1  UNL1        0.0202
     11 C         -24.8290   -0.7150   33.9050 C.3     1  UNL1        0.0887
     12 N         -24.7580   -1.4810   32.6460 N.3     1  UNL1       -0.2191
     13 C         -25.6880    1.6140   26.4610 C.2     1  UNL1        0.0391
     14 C         -26.2500    2.9200   26.3950 C.2     1  UNL1        0.0766
     15 C         -25.6420    4.0930   27.1230 C.2     1  UNL1        0.2664
     16 N         -25.6140    5.2520   26.4490 N.am    1  UNL1       -0.1997
     17 C         -25.0260    6.4790   26.9630 C.3     1  UNL1        0.1388
     18 O         -25.1430    3.9660   28.2430 O.2     1  UNL1       -0.2683
     19 C         -27.4380    3.0910   25.6450 C.2     1  UNL1        0.1067
     20 N         -28.0750    2.0890   25.0030 N.2     1  UNL1       -0.2081
     21 C         -27.5430    0.8490   25.0790 C.2     1  UNL1        0.2533
     22 O         -28.1930   -0.2080   24.4770 O.2     1  UNL1       -0.4558
     23 C         -29.4600    0.0050   23.8660 C.3     1  UNL1        0.2426
     24 C         -30.0650   -1.3770   23.5730 C.3     1  UNL1        0.2292
     25 O         -30.7290   -1.8780   24.7210 O.3     1  UNL1       -0.2162
     26 C         -26.3540    0.5760   25.7770 C.2     1  UNL1        0.1931
     27 F         -25.8600   -0.6810   25.7950 F       1  UNL1       -0.1992
     28 C         -24.3668    1.3695   27.1489 C.2     1  UNL1        0.0169
     29 C         -29.5136    2.3927   29.4898 C.1     1  UNL1       -0.0105
     30 N         -31.3966    3.3182   30.3993 N.pl3   1  UNL1        0.2234
     31 C         -29.0682    0.3372   27.8409 C.2     1  UNL1        0.0410
     32 C         -24.3419    0.5937   28.3312 C.2     1  UNL1        0.0244
     33 C         -30.8578    2.5885   29.4237 C.2     1  UNL1        0.4433
     34 N         -31.7817    2.1565   28.4533 N.pl3   1  UNL1        0.0155
     35 C         -23.0559    1.8454   26.8775 C.2     1  UNL1        0.0644
     36 S         -22.7892    0.5552   28.9447 S.3     1  UNL1       -0.0885
     37 C         -27.9520    0.7248   28.8018 C.3     1  UNL1        0.1324
     38 C         -25.3481   -0.0355   29.0220 C.3     1  UNL1        0.1069
     39 CL        -22.5849    2.7070   25.4952 Cl      1  UNL1       -0.0817
     40 C         -28.2294    1.9654   29.4060 C.2     1  UNL1        0.0448
     41 N         -26.8146   -0.0936   28.7777 N.3     1  UNL1       -0.2055
     42 C         -22.1106    1.4898   27.8350 C.2     1  UNL1        0.0465
     43 C         -30.2039    0.8480   27.4957 C.1     1  UNL1       -0.0563
     44 C         -31.3779    1.4232   27.4370 C.2     1  UNL1        0.2662
@<TRIPOS>BOND
     1     1    38    1
     2     2     7    1
     3     2     1    1
     4     3     2    2
     5     4     3    1
     6     4     5    2
     7     5     6    1
     8     6     7    2
     9     8     1    1
    10     8     9    1
    11     8    12    1
    12     9    10    1
    13    10    11    1
    14    12    11    1
    15    13    28    1
    16    14    13    1
    17    14    15    1
    18    15    18    2
    19    16    17    1
    20    16    15    1
    21    19    14    2
    22    20    21    2
    23    20    19    1
    24    21    26    1
    25    22    21    1
    26    23    22    1
    27    24    23    1
    28    24    25    1
    29    26    27    1
    30    26    13    2
    31    28    32    2
    32    31    37    1
    33    32    36    1
    34    32    38    1
    35    33    29    2
    36    33    30    1
    37    34    33    1
    38    35    28    1
    39    35    42    2
    40    37    41    1
    41    37    40    1
    42    38    41    1
    43    39    35    1
    44    40    29    2
    45    42    36    1
    46    43    31    2
    47    44    43    2
    48    44    34    1
