@<TRIPOS>MOLECULE
No_3008-gen_results/8p0m/2024-11-27-11-27-31/
 13 13 0 0 0
SMALL
GASTEIGER

@<TRIPOS>ATOM
      1 C         -28.0162   -0.8135   28.8779 C.ar    1  UNL1        0.0104
      2 C         -28.4690   -0.7850   29.8287 C.ar    1  UNL1        0.0797
      3 C         -27.0871    0.2903   28.6377 C.ar    1  UNL1        0.0716
      4 C         -26.2516    0.4114   27.4223 C.3     1  UNL1        0.4186
      5 C         -28.3913    0.1041   30.9805 C.ar    1  UNL1        0.0066
      6 C         -27.5332    1.1666   30.7866 C.ar    1  UNL1        0.0002
      7 C         -26.8281    1.2557   29.6454 C.ar    1  UNL1        0.0039
      8 F         -26.2893   -0.3208   26.7008 F       1  UNL1       -0.1659
      9 F         -26.4501    1.7036   26.8785 F       1  UNL1       -0.1659
     10 F         -24.8206    0.5393   27.7856 F       1  UNL1       -0.1659
     11 C         -29.4616   -2.0181   30.2134 C.2     1  UNL1        0.3877
     12 O         -29.9185   -2.0114   31.4028 O.co2   1  UNL1       -0.2406
     13 O         -29.3557   -3.0764   29.6661 O.co2   1  UNL1       -0.2406
@<TRIPOS>BOND
     1     3     4    1
     2     4     8    1
     3     4     9    1
     4     4    10    1
     5     2    11    1
     6    11    12   ar
     7    11    13   ar
     8     1     2   ar
     9     2     5   ar
    10     5     6   ar
    11     6     7   ar
    12     7     3   ar
    13     3     1   ar
