@<TRIPOS>MOLECULE
outputs/IAG933/test6/raw/output_3014_IAG933_linker_design_.xyz
 42 45 0 0 0
SMALL
GASTEIGER

@<TRIPOS>ATOM
      1 C         -24.8550   -1.0120   30.1430 C.3     1  UNL1        0.1143
      2 C         -24.9730   -2.5050   29.7880 C.2     1  UNL1       -0.0089
      3 C         -23.9060   -3.1730   29.1460 C.2     1  UNL1       -0.0033
      4 C         -23.9890   -4.5490   28.8530 C.2     1  UNL1       -0.0003
      5 C         -25.1370   -5.2800   29.2050 C.2     1  UNL1       -0.0000
      6 C         -26.2320   -4.6110   29.7840 C.2     1  UNL1       -0.0003
      7 C         -26.1550   -3.2320   30.0650 C.2     1  UNL1       -0.0033
      8 C         -25.3870   -0.6790   31.5710 C.3     1  UNL1        0.0891
      9 C         -25.1890    0.7730   32.0280 C.3     1  UNL1        0.0201
     10 C         -25.3360    0.6840   33.5440 C.3     1  UNL1        0.0203
     11 C         -24.8290   -0.7150   33.9050 C.3     1  UNL1        0.0887
     12 N         -24.7580   -1.4810   32.6460 N.3     1  UNL1       -0.2182
     13 C         -25.6880    1.6140   26.4610 C.2     1  UNL1        0.0878
     14 C         -26.2500    2.9200   26.3950 C.2     1  UNL1        0.0899
     15 C         -25.6420    4.0930   27.1230 C.2     1  UNL1        0.2676
     16 N         -25.6140    5.2520   26.4490 N.am    1  UNL1       -0.1997
     17 C         -25.0260    6.4790   26.9630 C.3     1  UNL1        0.1388
     18 O         -25.1430    3.9660   28.2430 O.2     1  UNL1       -0.2683
     19 C         -27.4380    3.0910   25.6450 C.2     1  UNL1        0.1080
     20 N         -28.0750    2.0890   25.0030 N.2     1  UNL1       -0.2080
     21 C         -27.5430    0.8490   25.0790 C.2     1  UNL1        0.2546
     22 O         -28.1930   -0.2080   24.4770 O.2     1  UNL1       -0.4558
     23 C         -29.4600    0.0050   23.8660 C.3     1  UNL1        0.2426
     24 C         -30.0650   -1.3770   23.5730 C.3     1  UNL1        0.2292
     25 O         -30.7290   -1.8780   24.7210 O.3     1  UNL1       -0.2162
     26 C         -26.3540    0.5760   25.7770 C.2     1  UNL1        0.2063
     27 F         -25.8600   -0.6810   25.7950 F       1  UNL1       -0.1979
     28 C         -28.2584    1.0355   31.0067 C.2     1  UNL1        0.0171
     29 C         -27.8125    3.1885   29.8324 C.2     1  UNL1        0.0171
     30 C         -23.1171    1.8409   26.7896 C.3     1  UNL1        0.1737
     31 N         -24.3957    1.3443   27.0374 N.pl3   1  UNL1       -0.2816
     32 C         -29.7796    2.9683   31.3291 C.2     1  UNL1        0.0001
     33 S         -25.5806    0.0140   28.9010 S.3     1  UNL1        0.0309
     34 C         -24.0209    0.3502   28.1005 C.3     1  UNL1        0.1804
     35 O         -26.4340   -0.7556   28.0223 O.3     1  UNL1       -0.1503
     36 C         -28.9805    3.7604   30.4339 C.2     1  UNL1        0.0014
     37 C         -22.2562    1.7084   28.0047 C.3     1  UNL1        0.1458
     38 C         -27.4456    1.8408   30.1472 C.2     1  UNL1        0.0785
     39 C         -29.4193    1.6109   31.6002 C.2     1  UNL1        0.0014
     40 N         -26.3274    1.3010   29.5750 N.pl3   1  UNL1       -0.1724
     41 CL        -22.7500    2.5067   25.2280 Cl      1  UNL1       -0.0912
     42 N         -20.9135    1.4018   27.4688 N.3     1  UNL1       -0.1282
@<TRIPOS>BOND
     1     1    33    1
     2     2     7    1
     3     2     1    1
     4     3     2    2
     5     4     3    1
     6     4     5    2
     7     5     6    1
     8     6     7    2
     9     8     1    1
    10     8     9    1
    11     8    12    1
    12     9    10    1
    13    10    11    1
    14    12    11    1
    15    13    31    1
    16    14    13    1
    17    14    15    1
    18    15    18    2
    19    16    17    1
    20    16    15    1
    21    19    14    2
    22    20    21    2
    23    20    19    1
    24    21    26    1
    25    22    21    1
    26    23    22    1
    27    24    23    1
    28    24    25    1
    29    26    27    1
    30    26    13    2
    31    28    39    1
    32    29    38    1
    33    29    36    2
    34    30    41    1
    35    30    31    1
    36    30    37    1
    37    31    34    1
    38    32    39    2
    39    33    35    1
    40    33    40    1
    41    34    33    1
    42    36    32    1
    43    38    28    2
    44    40    38    1
    45    42    37    1
