@<TRIPOS>MOLECULE
No_3015-gen_results/8p0m/2024-11-27-11-27-31/
 22 24 0 0 0
SMALL
GASTEIGER

@<TRIPOS>ATOM
      1 C         -28.0162   -0.8135   28.8779 C.ar    1  UNL1        0.0046
      2 C         -27.0636   -0.1190   28.6079 C.ar    1  UNL1        0.0001
      3 C         -25.7923   -0.4302   29.0761 C.ar    1  UNL1        0.0001
      4 C         -24.5456    0.3494   28.8225 C.ar    1  UNL1        0.0032
      5 C         -23.2409    0.0217   29.3323 C.ar    1  UNL1        0.0002
      6 C         -27.8820   -1.8995   29.8633 C.ar    1  UNL1        0.0554
      7 C         -26.6526   -2.3142   30.3138 C.ar    1  UNL1        0.0046
      8 C         -25.5153   -1.5607   29.9787 C.ar    1  UNL1        0.0001
      9 C         -22.1588    0.7866   28.9507 C.ar    1  UNL1        0.0033
     10 C         -22.1309    1.7439   27.9818 C.ar    1  UNL1        0.0420
     11 C         -24.5164    1.3706   27.7930 C.ar    1  UNL1        0.0420
     12 C         -23.3378    2.0353   27.4273 C.ar    1  UNL1        0.1957
     13 C         -29.0463   -2.7292   30.2922 C.2     1  UNL1        0.2690
     14 N         -28.9441   -4.0228   30.3999 N.am    1  UNL1       -0.1754
     15 C         -29.7459   -4.7499   31.1352 C.ar    1  UNL1        0.0737
     16 C         -29.8256   -4.6965   32.1965 C.ar    1  UNL1        0.0166
     17 C         -30.7473   -5.4660   33.0180 C.ar    1  UNL1        0.0013
     18 C         -31.4476   -6.5093   32.3766 C.ar    1  UNL1        0.0001
     19 C         -30.4546   -5.8580   30.3985 C.ar    1  UNL1        0.0166
     20 C         -31.2758   -6.6553   31.0146 C.ar    1  UNL1        0.0013
     21 O         -30.1279   -2.1444   30.4788 O.2     1  UNL1       -0.2680
     22 O         -23.4665    2.9802   26.4674 O.3     1  UNL1       -0.2866
@<TRIPOS>BOND
     1     3     4    1
     2     6    13    1
     3    13    14   am
     4    14    15    1
     5    13    21    2
     6    12    22    1
     7    15    16   ar
     8    16    17   ar
     9    17    18   ar
    10    18    20   ar
    11    20    19   ar
    12    19    15   ar
    13     1     2   ar
    14     2     3   ar
    15     3     8   ar
    16     8     7   ar
    17     7     6   ar
    18     6     1   ar
    19     4     5   ar
    20     5     9   ar
    21     9    10   ar
    22    10    12   ar
    23    12    11   ar
    24    11     4   ar
