@<TRIPOS>MOLECULE
No_3017-gen_results/8p0m/2024-11-27-11-27-31/
 29 31 0 0 0
SMALL
GASTEIGER

@<TRIPOS>ATOM
      1 C         -28.0162   -0.8135   28.8779 C.ar    1  UNL1        0.0369
      2 C         -27.0636   -0.1189   28.6079 C.ar    1  UNL1        0.0031
      3 C         -25.7647   -0.3897   29.0360 C.ar    1  UNL1        0.0010
      4 C         -25.5296   -1.5302   29.9014 C.ar    1  UNL1        0.0031
      5 C         -26.6888   -2.2893   30.1810 C.ar    1  UNL1        0.0369
      6 C         -27.8727   -1.9508   29.7373 C.ar    1  UNL1        0.1387
      7 O         -28.9304   -2.7298   30.1154 O.3     1  UNL1       -0.4727
      8 C         -24.5394    0.4211   28.7421 C.ar    1  UNL1        0.0106
      9 C         -24.0907    1.3926   29.5983 C.ar    1  UNL1        0.0576
     10 C         -22.9647    2.2021   29.2350 C.ar    1  UNL1        0.0114
     11 C         -22.2731    1.9763   28.0008 C.ar    1  UNL1        0.0009
     12 C         -22.7861    1.0400   27.1628 C.ar    1  UNL1        0.0001
     13 C         -23.8730    0.2768   27.4987 C.ar    1  UNL1        0.0008
     14 CL        -24.8084    1.6277   31.1183 Cl      1  UNL1       -0.0822
     15 C         -28.7370   -3.9860   30.6687 C.3     1  UNL1        0.2374
     16 C         -29.7231   -4.9054   30.2294 C.3     1  UNL1        0.1916
     17 O         -30.2312   -4.8488   29.1664 O.3     1  UNL1       -0.3291
     18 C         -31.5780   -5.2892   28.9704 C.3     1  UNL1        0.2329
     19 C         -31.6429   -6.4769   28.4431 C.ar    1  UNL1        0.0255
     20 C         -32.1999   -6.6396   27.2554 C.ar    1  UNL1       -0.0002
     21 C         -32.1201   -7.9463   26.5221 C.ar    1  UNL1       -0.0002
     22 C         -31.4814   -8.9976   27.1508 C.ar    1  UNL1       -0.0000
     23 C         -30.9901   -8.8429   28.4538 C.ar    1  UNL1       -0.0002
     24 C         -31.0246   -7.6309   29.0381 C.ar    1  UNL1       -0.0002
     25 N         -32.1729   -4.2413   28.1042 N.pl3   1  UNL1       -0.2006
     26 C         -31.6653   -3.0285   27.9099 C.2     1  UNL1        0.1432
     27 C         -32.5350   -2.1147   27.1325 C.2     1  UNL1        0.2948
     28 F         -32.0804   -1.0236   26.9223 F       1  UNL1       -0.1706
     29 F         -33.7008   -1.9697   27.7823 F       1  UNL1       -0.1706
@<TRIPOS>BOND
     1     6     7    1
     2     3     8    1
     3     9    14    1
     4     7    15    1
     5    15    16    1
     6    16    17    1
     7    17    18    1
     8    18    19    1
     9    18    25    1
    10    25    26    1
    11    26    27    2
    12    27    28    1
    13    27    29    1
    14     1     2   ar
    15     2     3   ar
    16     3     4   ar
    17     4     5   ar
    18     5     6   ar
    19     6     1   ar
    20     8     9   ar
    21     9    10   ar
    22    10    11   ar
    23    11    12   ar
    24    12    13   ar
    25    13     8   ar
    26    19    20   ar
    27    20    21   ar
    28    21    22   ar
    29    22    23   ar
    30    23    24   ar
    31    24    19   ar
