@<TRIPOS>MOLECULE
outputs/IAG933/test6/raw/output_3018_IAG933_linker_design_.xyz
 44 48 0 0 0
SMALL
GASTEIGER

@<TRIPOS>ATOM
      1 C         -24.8550   -1.0120   30.1430 C.3     1  UNL1        0.1147
      2 C         -24.9730   -2.5050   29.7880 C.2     1  UNL1       -0.0050
      3 C         -23.9060   -3.1730   29.1460 C.2     1  UNL1       -0.0029
      4 C         -23.9890   -4.5490   28.8530 C.2     1  UNL1       -0.0003
      5 C         -25.1370   -5.2800   29.2050 C.2     1  UNL1       -0.0000
      6 C         -26.2320   -4.6110   29.7840 C.2     1  UNL1       -0.0003
      7 C         -26.1550   -3.2320   30.0650 C.2     1  UNL1       -0.0029
      8 C         -25.3870   -0.6790   31.5710 C.3     1  UNL1        0.0930
      9 C         -25.1890    0.7730   32.0280 C.3     1  UNL1        0.0206
     10 C         -25.3360    0.6840   33.5440 C.3     1  UNL1        0.0203
     11 C         -24.8290   -0.7150   33.9050 C.3     1  UNL1        0.0888
     12 N         -24.7580   -1.4810   32.6460 N.3     1  UNL1       -0.2177
     13 C         -25.6880    1.6140   26.4610 C.3     1  UNL1        0.2313
     14 C         -26.2500    2.9200   26.3950 C.2     1  UNL1        0.0973
     15 C         -25.6420    4.0930   27.1230 C.2     1  UNL1        0.2662
     16 N         -25.6140    5.2520   26.4490 N.am    1  UNL1       -0.1999
     17 C         -25.0260    6.4790   26.9630 C.3     1  UNL1        0.1388
     18 O         -25.1430    3.9660   28.2430 O.2     1  UNL1       -0.2685
     19 C         -27.4380    3.0910   25.6450 C.2     1  UNL1        0.1060
     20 N         -28.0750    2.0890   25.0030 N.2     1  UNL1       -0.2116
     21 C         -27.5430    0.8490   25.0790 C.2     1  UNL1        0.2384
     22 O         -28.1930   -0.2080   24.4770 O.2     1  UNL1       -0.4584
     23 C         -29.4600    0.0050   23.8660 C.3     1  UNL1        0.2423
     24 C         -30.0650   -1.3770   23.5730 C.3     1  UNL1        0.2292
     25 O         -30.7290   -1.8780   24.7210 O.3     1  UNL1       -0.2162
     26 C         -26.3540    0.5760   25.7770 C.3     1  UNL1        0.2824
     27 F         -25.8600   -0.6810   25.7950 F       1  UNL1       -0.2225
     28 O         -30.5899    1.5244   28.8330 O.3     1  UNL1       -0.3562
     29 N         -23.1491    0.1879   28.7683 N.2     1  UNL1       -0.0362
     30 N         -25.0997    1.0181   27.5941 N.pl3   1  UNL1       -0.1759
     31 C         -21.4530    1.8746   27.3054 C.2     1  UNL1        0.0116
     32 C         -27.3538   -0.0949   28.3298 C.3     1  UNL1        0.0685
     33 C         -22.8554    2.0060   27.2377 C.2     1  UNL1        0.0896
     34 C         -29.1989    1.1587   29.1060 C.3     1  UNL1        0.1154
     35 C         -25.8969    0.1699   28.3550 C.3     1  UNL1        0.2373
     36 C         -20.9238    0.9215   28.2141 C.2     1  UNL1        0.0507
     37 C         -23.7213    1.0828   27.8783 C.2     1  UNL1        0.3253
     38 N         -25.7566   -0.3247   29.2635 N.3     1  UNL1       -0.1730
     39 C         -29.6985    3.5645   29.8018 C.3     1  UNL1        0.0322
     40 C         -21.7752    0.0819   28.9208 C.2     1  UNL1        0.2357
     41 C         -28.6313    2.8138   30.6554 C.3     1  UNL1        0.0051
     42 C         -30.9200    2.6612   29.6122 C.3     1  UNL1        0.1420
     43 C         -28.6739   -0.1400   28.6709 C.3     1  UNL1        0.0353
     44 C         -29.0988    1.3609   30.5448 C.3     1  UNL1        0.0296
@<TRIPOS>BOND
     1     1    38    1
     2     2     7    1
     3     2     1    1
     4     3     2    2
     5     4     3    1
     6     4     5    2
     7     5     6    1
     8     6     7    2
     9     8     1    1
    10     8     9    1
    11     8    12    1
    12     9    10    1
    13    10    11    1
    14    12    11    1
    15    13    30    1
    16    14    13    1
    17    14    15    1
    18    15    18    2
    19    16    17    1
    20    16    15    1
    21    19    14    2
    22    20    21    2
    23    20    19    1
    24    21    26    1
    25    22    21    1
    26    23    22    1
    27    24    23    1
    28    24    25    1
    29    26    27    1
    30    26    13    1
    31    28    34    1
    32    28    42    1
    33    29    40    1
    34    30    37    1
    35    30    35    1
    36    31    36    1
    37    32    43    1
    38    33    31    2
    39    33    37    1
    40    34    43    1
    41    34    44    1
    42    35    32    1
    43    35    38    1
    44    36    40    2
    45    37    29    2
    46    39    41    1
    47    42    39    1
    48    44    41    1
