@<TRIPOS>MOLECULE
No_3019-gen_results/8p0m/2024-11-27-11-27-31/
 10 11 0 0 0
SMALL
GASTEIGER

@<TRIPOS>ATOM
      1 C         -28.0162   -0.8135   28.8779 C.ar    1  UNL1        0.0000
      2 C         -28.4690   -0.7850   29.8287 C.ar    1  UNL1        0.0000
      3 C         -26.5042   -0.7777   28.8766 C.ar    1  UNL1        0.0000
      4 C         -25.8103   -0.8531   30.1028 C.ar    1  UNL1        0.0000
      5 C         -27.9906   -0.8916   31.2257 C.ar    1  UNL1        0.0000
      6 C         -26.6042   -0.8676   31.2652 C.ar    1  UNL1        0.0000
      7 C         -24.3894   -0.8049   30.1638 C.ar    1  UNL1        0.0000
      8 C         -23.7660   -0.9500   31.0679 C.ar    1  UNL1        0.0000
      9 C         -24.4866   -1.0287   32.3849 C.ar    1  UNL1        0.0000
     10 C         -25.8375   -0.9259   32.4678 C.ar    1  UNL1        0.0000
@<TRIPOS>BOND
     1     6    10   ar
     2    10     9   ar
     3     9     8   ar
     4     8     7   ar
     5     7     4   ar
     6     1     2   ar
     7     2     5   ar
     8     5     6   ar
     9     6     4   ar
    10     4     3   ar
    11     3     1   ar
