@<TRIPOS>MOLECULE
No_3020-gen_results/8p0m/2024-11-27-11-27-31/
 25 26 0 0 0
SMALL
GASTEIGER

@<TRIPOS>ATOM
      1 C         -28.0162   -0.8135   28.8779 C.ar    1  UNL1       -0.0026
      2 C         -28.4690   -0.7850   29.8287 C.ar    1  UNL1       -0.0003
      3 C         -28.1960    0.3478   28.0550 C.ar    1  UNL1       -0.0024
      4 C         -29.0191    1.3501   28.3782 C.ar    1  UNL1       -0.0026
      5 C         -29.4107    0.1803   30.3782 C.ar    1  UNL1       -0.0000
      6 C         -29.6059    1.2495   29.6193 C.ar    1  UNL1       -0.0003
      7 C         -27.4597    0.3802   26.7091 C.3     1  UNL1        0.1178
      8 N         -26.6620    1.4083   26.5085 N.pl3   1  UNL1       -0.3011
      9 C         -25.4040    1.1977   26.0613 C.2     1  UNL1        0.0573
     10 C         -24.4171    2.2551   26.1450 C.2     1  UNL1       -0.0057
     11 C         -23.0482    1.9968   26.1814 C.3     1  UNL1        0.0536
     12 C         -22.4733    1.2978   27.1777 C.ar    1  UNL1       -0.0180
     13 C         -21.0877    1.4560   27.5857 C.ar    1  UNL1       -0.0040
     14 C         -23.2671    0.3613   27.9608 C.ar    1  UNL1       -0.0065
     15 C         -22.6650   -0.3802   29.0286 C.ar    1  UNL1       -0.0020
     16 C         -20.5514    0.7135   28.6200 C.ar    1  UNL1       -0.0006
     17 C         -21.3499   -0.2178   29.3045 C.ar    1  UNL1       -0.0026
     18 C         -27.3098    2.5195   25.6837 C.3     1  UNL1        0.1125
     19 C         -23.5385   -1.3428   29.7101 C.3     1  UNL1        0.1275
     20 N         -24.1219   -1.0137   30.8000 N.pl3   1  UNL1       -0.2470
     21 C         -23.4683   -0.6475   31.8289 C.3     1  UNL1        0.2106
     22 C         -25.5416   -1.1785   31.0029 C.1     1  UNL1        0.0017
     23 C         -26.1784   -0.0169   31.7440 C.1     1  UNL1       -0.0703
     24 C         -25.4659    0.2254   33.0161 C.3     1  UNL1        0.0916
     25 N         -24.0153    0.2430   32.8305 N.3     1  UNL1       -0.1067
@<TRIPOS>BOND
     1     3     7    1
     2     7     8    1
     3     8     9    1
     4     9    10    2
     5    10    11    1
     6     8    18    1
     7    15    19    1
     8    19    20    1
     9    20    21    1
    10    20    22    1
    11    22    23    3
    12    23    24    1
    13    21    25    1
    14    11    12    1
    15     1     2   ar
    16     2     5   ar
    17     5     6   ar
    18     6     4   ar
    19     4     3   ar
    20     3     1   ar
    21    12    13   ar
    22    13    16   ar
    23    16    17   ar
    24    17    15   ar
    25    15    14   ar
    26    14    12   ar
