@<TRIPOS>MOLECULE
outputs/IAG933/test6/raw/output_3021_IAG933_linker_design_.xyz
 41 45 0 0 0
SMALL
GASTEIGER

@<TRIPOS>ATOM
      1 C         -24.8550   -1.0120   30.1430 C.3     1  UNL1        0.0655
      2 C         -24.9730   -2.5050   29.7880 C.2     1  UNL1       -0.0190
      3 C         -23.9060   -3.1730   29.1460 C.2     1  UNL1       -0.0042
      4 C         -23.9890   -4.5490   28.8530 C.2     1  UNL1       -0.0003
      5 C         -25.1370   -5.2800   29.2050 C.2     1  UNL1       -0.0000
      6 C         -26.2320   -4.6110   29.7840 C.2     1  UNL1       -0.0003
      7 C         -26.1550   -3.2320   30.0650 C.2     1  UNL1       -0.0042
      8 C         -25.3870   -0.6790   31.5710 C.3     1  UNL1        0.0789
      9 C         -25.1890    0.7730   32.0280 C.3     1  UNL1        0.0193
     10 C         -25.3360    0.6840   33.5440 C.3     1  UNL1        0.0202
     11 C         -24.8290   -0.7150   33.9050 C.3     1  UNL1        0.0887
     12 N         -24.7580   -1.4810   32.6460 N.3     1  UNL1       -0.2191
     13 C         -25.6880    1.6140   26.4610 C.2     1  UNL1        0.0380
     14 C         -26.2500    2.9200   26.3950 C.2     1  UNL1        0.0744
     15 C         -25.6420    4.0930   27.1230 C.2     1  UNL1        0.2662
     16 N         -25.6140    5.2520   26.4490 N.am    1  UNL1       -0.1997
     17 C         -25.0260    6.4790   26.9630 C.3     1  UNL1        0.1388
     18 O         -25.1430    3.9660   28.2430 O.2     1  UNL1       -0.2683
     19 C         -27.4380    3.0910   25.6450 C.2     1  UNL1        0.1065
     20 N         -28.0750    2.0890   25.0030 N.2     1  UNL1       -0.2081
     21 C         -27.5430    0.8490   25.0790 C.2     1  UNL1        0.2530
     22 O         -28.1930   -0.2080   24.4770 O.2     1  UNL1       -0.4558
     23 C         -29.4600    0.0050   23.8660 C.3     1  UNL1        0.2426
     24 C         -30.0650   -1.3770   23.5730 C.3     1  UNL1        0.2292
     25 O         -30.7290   -1.8780   24.7210 O.3     1  UNL1       -0.2162
     26 C         -26.3540    0.5760   25.7770 C.2     1  UNL1        0.1910
     27 F         -25.8600   -0.6810   25.7950 F       1  UNL1       -0.1995
     28 C         -23.0112    0.4263   28.5786 C.2     1  UNL1        0.2495
     29 C         -20.9517    1.9382   25.7791 C.2     1  UNL1        0.0001
     30 C         -22.0286    2.4588   25.0328 C.2     1  UNL1       -0.0003
     31 N         -27.0760    1.7747   29.8278 N.am    1  UNL1       -0.0863
     32 C         -23.2862    2.3744   25.5473 C.2     1  UNL1       -0.0022
     33 O         -27.7339   -0.1874   28.9328 O.2     1  UNL1       -0.2698
     34 C         -26.8325    0.5630   29.3012 C.2     1  UNL1        0.2792
     35 C         -21.1414    1.3217   27.0360 C.2     1  UNL1        0.0043
     36 C         -25.4002   -0.0132   29.1377 C.3     1  UNL1        0.1612
     37 O         -22.5219   -0.0243   29.6187 O.2     1  UNL1       -0.2699
     38 N         -24.4777    0.4735   28.2791 N.am    1  UNL1       -0.2630
     39 C         -24.6982    1.1519   27.3004 C.3     1  UNL1        0.1238
     40 C         -23.4338    1.6784   26.8361 C.2     1  UNL1        0.0044
     41 C         -22.4410    1.1529   27.5172 C.2     1  UNL1        0.0515
@<TRIPOS>BOND
     1     1    36    1
     2     2     7    1
     3     2     1    1
     4     3     2    2
     5     4     3    1
     6     4     5    2
     7     5     6    1
     8     6     7    2
     9     8     1    1
    10     8     9    1
    11     8    12    1
    12     9    10    1
    13    10    11    1
    14    12    11    1
    15    14    13    1
    16    14    15    1
    17    15    18    2
    18    16    17    1
    19    16    15    1
    20    19    14    2
    21    20    21    2
    22    20    19    1
    23    21    26    1
    24    22    21    1
    25    23    22    1
    26    24    23    1
    27    24    25    1
    28    26    27    1
    29    26    13    2
    30    28    37    2
    31    29    35    1
    32    30    32    1
    33    30    29    2
    34    32    40    2
    35    33    34    2
    36    34    31    1
    37    35    41    2
    38    36    34    1
    39    38    28   am
    40    38    36    1
    41    39    13    1
    42    39    38    1
    43    40    39    1
    44    40    41    1
    45    41    28    1
