@<TRIPOS>MOLECULE
outputs/IAG933/test6/raw/output_3023_IAG933_linker_design_.xyz
 42 45 0 0 0
SMALL
GASTEIGER

@<TRIPOS>ATOM
      1 C         -24.8550   -1.0120   30.1430 C.3     1  UNL1        0.1126
      2 C         -24.9730   -2.5050   29.7880 C.2     1  UNL1       -0.0051
      3 C         -23.9060   -3.1730   29.1460 C.2     1  UNL1       -0.0029
      4 C         -23.9890   -4.5490   28.8530 C.2     1  UNL1       -0.0003
      5 C         -25.1370   -5.2800   29.2050 C.2     1  UNL1       -0.0000
      6 C         -26.2320   -4.6110   29.7840 C.2     1  UNL1       -0.0003
      7 C         -26.1550   -3.2320   30.0650 C.2     1  UNL1       -0.0029
      8 C         -25.3870   -0.6790   31.5710 C.3     1  UNL1        0.0929
      9 C         -25.1890    0.7730   32.0280 C.3     1  UNL1        0.0206
     10 C         -25.3360    0.6840   33.5440 C.3     1  UNL1        0.0203
     11 C         -24.8290   -0.7150   33.9050 C.3     1  UNL1        0.0888
     12 N         -24.7580   -1.4810   32.6460 N.3     1  UNL1       -0.2177
     13 C         -25.6880    1.6140   26.4610 C.3     1  UNL1        0.1445
     14 C         -26.2500    2.9200   26.3950 C.2     1  UNL1        0.0731
     15 C         -25.6420    4.0930   27.1230 C.2     1  UNL1        0.2640
     16 N         -25.6140    5.2520   26.4490 N.am    1  UNL1       -0.1999
     17 C         -25.0260    6.4790   26.9630 C.3     1  UNL1        0.1388
     18 O         -25.1430    3.9660   28.2430 O.2     1  UNL1       -0.2686
     19 C         -27.4380    3.0910   25.6450 C.2     1  UNL1        0.1038
     20 N         -28.0750    2.0890   25.0030 N.2     1  UNL1       -0.2118
     21 C         -27.5430    0.8490   25.0790 C.2     1  UNL1        0.2358
     22 O         -28.1930   -0.2080   24.4770 O.2     1  UNL1       -0.4585
     23 C         -29.4600    0.0050   23.8660 C.3     1  UNL1        0.2423
     24 C         -30.0650   -1.3770   23.5730 C.3     1  UNL1        0.2292
     25 O         -30.7290   -1.8780   24.7210 O.3     1  UNL1       -0.2162
     26 C         -26.3540    0.5760   25.7770 C.3     1  UNL1        0.2581
     27 F         -25.8600   -0.6810   25.7950 F       1  UNL1       -0.2251
     28 C         -27.2321    0.1524   28.4664 C.3     1  UNL1        0.1801
     29 C         -23.6695    1.1637   27.3682 C.ar    1  UNL1        0.1265
     30 C         -23.1716    2.4918   25.0676 C.3     1  UNL1        0.2473
     31 C         -25.6709    0.0206   28.1344 C.3     1  UNL1        0.1786
     32 O         -22.6159   -0.0199   29.5692 O.3     1  UNL1       -0.2803
     33 C         -22.8732    1.8257   26.3754 C.ar    1  UNL1        0.1743
     34 N         -24.9692    0.9730   27.4041 N.pl3   1  UNL1       -0.2830
     35 C         -22.6555    0.7375   28.3694 C.ar    1  UNL1        0.2634
     36 C         -21.5767    1.1895   27.8692 C.ar    1  UNL1        0.2756
     37 N         -20.3704    1.1375   28.4751 N.pl3   1  UNL1       -0.0845
     38 C         -27.8319    2.3776   29.7399 C.3     1  UNL1        0.1742
     39 N         -25.0141   -0.1406   29.1831 N.3     1  UNL1       -0.1934
     40 O         -22.5828    1.7802   24.1180 O.3     1  UNL1       -0.2116
     41 O         -27.4025    1.2721   29.2184 O.3     1  UNL1       -0.3478
     42 O         -21.6631    1.6715   26.6947 O.2     1  UNL1       -0.4349
@<TRIPOS>BOND
     1     1    39    1
     2     2     7    1
     3     2     1    1
     4     3     2    2
     5     4     3    1
     6     4     5    2
     7     5     6    1
     8     6     7    2
     9     8     1    1
    10     8     9    1
    11     8    12    1
    12     9    10    1
    13    10    11    1
    14    12    11    1
    15    13    34    1
    16    14    13    1
    17    14    15    1
    18    15    18    2
    19    16    17    1
    20    16    15    1
    21    19    14    2
    22    20    21    2
    23    20    19    1
    24    21    26    1
    25    22    21    1
    26    23    22    1
    27    24    23    1
    28    24    25    1
    29    26    27    1
    30    26    13    1
    31    28    41    1
    32    29    34    1
    33    29    35   ar
    34    30    33    1
    35    31    28    1
    36    31    39    1
    37    33    42   ar
    38    33    29   ar
    39    34    31    1
    40    35    32    1
    41    36    35   ar
    42    36    37    1
    43    40    30    1
    44    41    38    1
    45    42    36   ar
