@<TRIPOS>MOLECULE
No_3024-gen_results/8p0m/2024-11-27-11-27-31/
 12 12 0 0 0
SMALL
GASTEIGER

@<TRIPOS>ATOM
      1 CL        -28.1493   -0.8198   28.9079 Cl      1  UNL1       -0.0789
      2 C         -26.9116   -0.0797   28.9452 C.ar    1  UNL1        0.1002
      3 C         -25.9665   -0.2123   29.6235 C.ar    1  UNL1        0.1811
      4 C         -24.7040    0.5534   29.6218 C.ar    1  UNL1        0.1977
      5 C         -24.6011    1.5437   28.6212 C.ar    1  UNL1        0.1977
      6 C         -25.6671    1.7162   27.8026 C.ar    1  UNL1        0.1811
      7 C         -26.7607    0.9618   27.8836 C.ar    1  UNL1        0.1002
      8 F         -23.5225    2.2808   28.6052 F       1  UNL1       -0.1993
      9 CL        -28.0191    1.2405   26.7431 Cl      1  UNL1       -0.0789
     10 F         -23.6798    0.3889   30.4842 F       1  UNL1       -0.1993
     11 F         -25.5459    2.6753   26.8336 F       1  UNL1       -0.2008
     12 F         -25.8781   -1.1909   30.6394 F       1  UNL1       -0.2008
@<TRIPOS>BOND
     1     1     2    1
     2     5     8    1
     3     7     9    1
     4     4    10    1
     5     6    11    1
     6     3    12    1
     7     2     3   ar
     8     3     4   ar
     9     4     5   ar
    10     5     6   ar
    11     6     7   ar
    12     7     2   ar
