@<TRIPOS>MOLECULE
No_3026-gen_results/8p0m/2024-11-27-11-27-31/
 29 30 0 0 0
SMALL
GASTEIGER

@<TRIPOS>ATOM
      1 C         -28.0162   -0.8135   28.8779 C.3     1  UNL1        0.1190
      2 C         -27.0636   -0.1189   28.6079 C.ar    1  UNL1        0.0056
      3 C         -25.7923   -0.4302   29.0761 C.ar    1  UNL1       -0.0051
      4 C         -24.5456    0.3494   28.8225 C.ar    1  UNL1       -0.0029
      5 C         -24.6586    1.4196   27.8878 C.ar    1  UNL1        0.0529
      6 C         -25.9471    1.6811   27.3792 C.ar    1  UNL1        0.0154
      7 C         -27.0439    0.9739   27.6871 C.ar    1  UNL1        0.0552
      8 N         -28.6567   -0.5529   30.0960 N.3     1  UNL1       -0.1782
      9 C         -29.5646   -0.5256   30.5354 C.3     1  UNL1        0.2481
     10 N         -29.8233   -0.2690   31.9262 N.3     1  UNL1       -0.1602
     11 N         -30.7021   -1.0981   29.9020 N.am    1  UNL1       -0.1699
     12 C         -23.4483    2.1466   27.5840 C.2     1  UNL1        0.2646
     13 N         -22.5186    1.8111   27.2214 N.am    1  UNL1       -0.1998
     14 O         -23.7101    3.4944   27.5007 O.2     1  UNL1       -0.2684
     15 C         -31.9988   -1.1692   30.4601 C.2     1  UNL1        0.2775
     16 C         -31.0981   -0.3155   32.4923 C.3     1  UNL1        0.2070
     17 C         -32.1427   -0.7870   31.7507 C.3     1  UNL1        0.2651
     18 O         -32.9108   -1.5811   29.7205 O.2     1  UNL1       -0.2704
     19 O         -33.3534   -0.8381   32.3020 O.3     1  UNL1       -0.2097
     20 CL        -28.5343    1.3748   26.9907 Cl      1  UNL1       -0.0825
     21 C         -23.2621   -0.0557   29.3948 C.3     1  UNL1        0.1318
     22 C         -21.3491    2.5130   27.0014 C.3     1  UNL1        0.1388
     23 C         -23.0285   -0.4733   30.3750 C.1     1  UNL1        0.0780
     24 N         -23.0058   -1.0859   31.4348 N.1     1  UNL1       -0.1955
     25 N         -31.1772    0.0644   33.8022 N.pl3   1  UNL1       -0.2171
     26 C         -30.5576    0.6952   34.5229 C.2     1  UNL1        0.0818
     27 C         -29.6888    1.6402   34.1526 C.2     1  UNL1        0.0174
     28 C         -30.0494    2.7186   33.4592 C.2     1  UNL1        0.0014
     29 C         -29.1378    3.6487   32.8988 C.2     1  UNL1        0.0000
@<TRIPOS>BOND
     1     1     2    1
     2     1     8    1
     3     9    10    1
     4     9    11    1
     5     5    12    1
     6    12    13   am
     7    12    14    2
     8    11    15   am
     9    15    17    1
    10    16    17    1
    11    15    18    2
    12    17    19    1
    13     7    20    1
    14     4    21    1
    15    13    22    1
    16    21    23    1
    17    23    24    3
    18    16    25    1
    19    25    26    1
    20    26    27    2
    21    27    28    1
    22    28    29    2
    23     8     9    1
    24    10    16    1
    25     2     3   ar
    26     3     4   ar
    27     4     5   ar
    28     5     6   ar
    29     6     7   ar
    30     7     2   ar
