@<TRIPOS>MOLECULE
outputs/IAG933/test6/raw/output_3027_IAG933_linker_design_.xyz
 48 51 0 0 0
SMALL
GASTEIGER

@<TRIPOS>ATOM
      1 C         -24.8550   -1.0120   30.1430 C.3     1  UNL1        0.0437
      2 C         -24.9730   -2.5050   29.7880 C.2     1  UNL1       -0.0208
      3 C         -23.9060   -3.1730   29.1460 C.2     1  UNL1       -0.0042
      4 C         -23.9890   -4.5490   28.8530 C.2     1  UNL1       -0.0003
      5 C         -25.1370   -5.2800   29.2050 C.2     1  UNL1       -0.0000
      6 C         -26.2320   -4.6110   29.7840 C.2     1  UNL1       -0.0003
      7 C         -26.1550   -3.2320   30.0650 C.2     1  UNL1       -0.0042
      8 C         -25.3870   -0.6790   31.5710 C.3     1  UNL1        0.0771
      9 C         -25.1890    0.7730   32.0280 C.3     1  UNL1        0.0182
     10 C         -25.3360    0.6840   33.5440 C.3     1  UNL1        0.0202
     11 C         -24.8290   -0.7150   33.9050 C.3     1  UNL1        0.0887
     12 N         -24.7580   -1.4810   32.6460 N.3     1  UNL1       -0.2191
     13 C         -25.6880    1.6140   26.4610 C.2     1  UNL1        0.0320
     14 C         -26.2500    2.9200   26.3950 C.2     1  UNL1        0.0739
     15 C         -25.6420    4.0930   27.1230 C.2     1  UNL1        0.2662
     16 N         -25.6140    5.2520   26.4490 N.am    1  UNL1       -0.1997
     17 C         -25.0260    6.4790   26.9630 C.3     1  UNL1        0.1388
     18 O         -25.1430    3.9660   28.2430 O.2     1  UNL1       -0.2683
     19 C         -27.4380    3.0910   25.6450 C.2     1  UNL1        0.1065
     20 N         -28.0750    2.0890   25.0030 N.2     1  UNL1       -0.2081
     21 C         -27.5430    0.8490   25.0790 C.2     1  UNL1        0.2530
     22 O         -28.1930   -0.2080   24.4770 O.2     1  UNL1       -0.4558
     23 C         -29.4600    0.0050   23.8660 C.3     1  UNL1        0.2426
     24 C         -30.0650   -1.3770   23.5730 C.3     1  UNL1        0.2292
     25 O         -30.7290   -1.8780   24.7210 O.3     1  UNL1       -0.2162
     26 C         -26.3540    0.5760   25.7770 C.2     1  UNL1        0.1904
     27 F         -25.8600   -0.6810   25.7950 F       1  UNL1       -0.1995
     28 O         -26.6744    5.3991   35.0983 O.3     1  UNL1       -0.3476
     29 C         -24.4346    5.3287   33.4619 C.2     1  UNL1        0.0169
     30 C         -22.2726    1.6730   27.4704 C.3     1  UNL1        0.0724
     31 C         -21.9792    2.0398   25.9916 C.3     1  UNL1        0.0188
     32 N         -23.6940    1.7981   27.9895 N.3     1  UNL1       -0.2689
     33 O         -22.9656    7.8082   33.3652 O.3     1  UNL1       -0.0844
     34 C         -24.1298    7.5968   36.8886 C.3     1  UNL1        0.0270
     35 C         -24.4553    1.3033   26.8634 C.3     1  UNL1        0.1017
     36 C         -23.6277    1.4427   29.3975 C.3     1  UNL1        0.0724
     37 C         -26.3683    2.7291   31.8928 C.3     1  UNL1        0.0261
     38 C         -23.0562    7.7868   35.8162 C.3     1  UNL1        0.1350
     39 C         -25.5294    8.2005   36.5610 C.3     1  UNL1        0.0050
     40 C         -24.5661    6.4529   34.2187 C.2     1  UNL1        0.0896
     41 N         -23.5815    7.3866   34.5137 N.3     1  UNL1       -0.2085
     42 C         -26.0019    3.7506   33.0071 C.2     1  UNL1       -0.0261
     43 C         -25.1527    1.8720   31.4196 C.3     1  UNL1        0.0071
     44 C         -26.4456    7.8583   35.3384 C.3     1  UNL1        0.0358
     45 C         -25.9967    6.5809   34.6624 C.3     1  UNL1        0.1551
     46 C         -27.2162    5.3852   36.4728 C.3     1  UNL1        0.1745
     47 C         -24.1134    2.3052   30.3899 C.3     1  UNL1        0.0177
     48 C         -24.8268    4.4791   32.8680 C.2     1  UNL1       -0.0033
@<TRIPOS>BOND
     1     2     7    1
     2     2     1    1
     3     3     2    2
     4     4     3    1
     5     4     5    2
     6     5     6    1
     7     6     7    2
     8     8     1    1
     9     8     9    1
    10     8    12    1
    11     9    43    1
    12     9    10    1
    13    10    11    1
    14    12    11    1
    15    13    35    1
    16    14    13    1
    17    14    15    1
    18    15    18    2
    19    16    17    1
    20    16    15    1
    21    19    14    2
    22    20    21    2
    23    20    19    1
    24    21    26    1
    25    22    21    1
    26    23    22    1
    27    24    23    1
    28    24    25    1
    29    26    27    1
    30    26    13    2
    31    28    46    1
    32    29    40    2
    33    30    32    1
    34    31    30    1
    35    32    36    1
    36    33    41    1
    37    35    32    1
    38    36    47    1
    39    37    42    1
    40    38    34    1
    41    39    34    1
    42    40    41    1
    43    40    45    1
    44    41    38    1
    45    43    47    1
    46    43    37    1
    47    44    39    1
    48    45    28    1
    49    45    44    1
    50    48    42    2
    51    48    29    1
