@<TRIPOS>MOLECULE
No_3029-gen_results/8p0m/2024-11-27-11-27-31/
 28 30 0 0 0
SMALL
GASTEIGER

@<TRIPOS>ATOM
      1 C         -28.0162   -0.8135   28.8779 C.ar    1  UNL1        0.1452
      2 C         -27.0636   -0.1190   28.6079 C.ar    1  UNL1        0.0309
      3 C         -26.9716    0.7139   27.5060 C.ar    1  UNL1        0.0029
      4 C         -28.1053    0.7744   26.6421 C.ar    1  UNL1        0.0048
      5 C         -29.2041    0.1179   27.0477 C.ar    1  UNL1        0.0584
      6 C         -29.2127   -0.6088   28.1281 C.ar    1  UNL1        0.0421
      7 C         -25.6104    1.3028   27.2626 C.ar    1  UNL1        0.0047
      8 C         -24.5790    0.9447   27.8782 C.ar    1  UNL1        0.0564
      9 C         -24.6716    0.1001   29.0348 C.ar    1  UNL1        0.0008
     10 C         -25.7724   -0.4403   29.3628 C.ar    1  UNL1       -0.0146
     11 C         -23.2449    1.6464   27.6327 C.2     1  UNL1        0.2842
     12 N         -22.3275    1.7046   28.5758 N.am    1  UNL1       -0.0837
     13 O         -22.8679    2.0145   26.4356 O.2     1  UNL1       -0.2667
     14 C         -30.4200    0.3098   26.1979 C.2     1  UNL1        0.2691
     15 O         -31.4531    0.0835   26.5209 O.2     1  UNL1       -0.2680
     16 N         -30.2229    1.0176   25.0330 N.am    1  UNL1       -0.1741
     17 C         -31.3191    1.2452   24.0724 C.2     1  UNL1        0.0889
     18 O         -28.1803   -1.5926   29.9504 O.3     1  UNL1       -0.4508
     19 C         -27.7744   -1.5440   30.9801 C.2     1  UNL1        0.1753
     20 C         -26.3399   -1.2731   31.2715 C.2     1  UNL1        0.0192
     21 C         -25.6197   -1.0011   30.6473 C.3     1  UNL1        0.0557
     22 C         -32.0788    0.4958   23.8182 C.2     1  UNL1        0.0178
     23 C         -31.9606   -0.8146   24.0419 C.2     1  UNL1        0.0019
     24 C         -31.8743   -1.4139   25.1894 C.2     1  UNL1        0.0372
     25 C         -31.5017   -1.1353   26.3883 C.3     1  UNL1        0.2924
     26 O         -31.6232   -1.9576   27.3460 O.3     1  UNL1       -0.3225
     27 C         -31.2451   -2.0139   27.0049 C.3     1  UNL1        0.1773
     28 O         -32.4645   -0.8591   26.5528 O.3     1  UNL1       -0.1847
@<TRIPOS>BOND
     1     8    11    1
     2    11    12   am
     3    11    13    2
     4     5    14    1
     5    14    15    2
     6    14    16   am
     7    16    17    1
     8     1    18    1
     9    18    19    1
    10    19    20    2
    11    10    21    1
    12    20    21    1
    13    17    22    2
    14    22    23    1
    15    23    24    2
    16    24    25    1
    17    25    26    1
    18    26    27    1
    19    25    28    1
    20     1     2   ar
    21     3     4   ar
    22     4     5   ar
    23     5     6   ar
    24     6     1   ar
    25     2     3   ar
    26     3     7   ar
    27     7     8   ar
    28     8     9   ar
    29     9    10   ar
    30    10     2   ar
