@<TRIPOS>MOLECULE
No_303-gen_results/8p0m/2024-11-27-11-27-31/
 14 15 0 0 0
SMALL
GASTEIGER

@<TRIPOS>ATOM
      1 C         -28.0162   -0.8135   28.8779 C.ar    1  UNL1        0.0191
      2 C         -27.0636   -0.1190   28.6079 C.ar    1  UNL1        0.0579
      3 C         -25.7923   -0.4302   29.0761 C.ar    1  UNL1        0.0114
      4 C         -25.5756   -1.5654   29.9363 C.ar    1  UNL1        0.0011
      5 C         -26.7354   -2.3004   30.2173 C.ar    1  UNL1        0.0078
      6 C         -27.9184   -1.9537   29.7629 C.ar    1  UNL1        0.0900
      7 CL        -27.1463    1.2916   27.6407 Cl      1  UNL1       -0.0822
      8 C         -29.0683   -2.7883   30.1813 C.2     1  UNL1        0.3847
      9 N         -28.9567   -4.0769   30.4359 N.2     1  UNL1       -0.0298
     10 C         -30.0665   -4.8365   30.7255 C.2     1  UNL1        0.2368
     11 C         -30.4999   -4.8333   31.7244 C.2     1  UNL1        0.0625
     12 C         -31.4484   -3.7251   31.9977 C.2     1  UNL1        0.0934
     13 N         -30.1523   -2.0368   30.5668 N.2     1  UNL1        0.0139
     14 C         -31.1319   -2.4322   31.1980 C.1     1  UNL1        0.1334
@<TRIPOS>BOND
     1     2     7    1
     2     6     8    1
     3     8     9    2
     4     9    10    1
     5    10    11    2
     6    11    12    1
     7     8    13    1
     8    12    14    2
     9    13    14    2
    10     1     2   ar
    11     2     3   ar
    12     3     4   ar
    13     4     5   ar
    14     5     6   ar
    15     6     1   ar
