@<TRIPOS>MOLECULE
outputs/IAG933/test6/raw/output_3033_IAG933_linker_design_.xyz
 41 44 0 0 0
SMALL
GASTEIGER

@<TRIPOS>ATOM
      1 C         -24.8550   -1.0120   30.1430 C.3     1  UNL1        0.1114
      2 C         -24.9730   -2.5050   29.7880 C.2     1  UNL1       -0.0030
      3 C         -23.9060   -3.1730   29.1460 C.2     1  UNL1       -0.0026
      4 C         -23.9890   -4.5490   28.8530 C.2     1  UNL1       -0.0003
      5 C         -25.1370   -5.2800   29.2050 C.2     1  UNL1       -0.0000
      6 C         -26.2320   -4.6110   29.7840 C.2     1  UNL1       -0.0003
      7 C         -26.1550   -3.2320   30.0650 C.2     1  UNL1       -0.0026
      8 C         -25.3870   -0.6790   31.5710 C.3     1  UNL1        0.0950
      9 C         -25.1890    0.7730   32.0280 C.3     1  UNL1        0.0209
     10 C         -25.3360    0.6840   33.5440 C.3     1  UNL1        0.0203
     11 C         -24.8290   -0.7150   33.9050 C.3     1  UNL1        0.0888
     12 N         -24.7580   -1.4810   32.6460 N.3     1  UNL1       -0.2174
     13 C         -25.6880    1.6140   26.4610 C.3     1  UNL1        0.0936
     14 C         -26.2500    2.9200   26.3950 C.2     1  UNL1        0.0589
     15 C         -25.6420    4.0930   27.1230 C.2     1  UNL1        0.2628
     16 N         -25.6140    5.2520   26.4490 N.am    1  UNL1       -0.2000
     17 C         -25.0260    6.4790   26.9630 C.3     1  UNL1        0.1388
     18 O         -25.1430    3.9660   28.2430 O.2     1  UNL1       -0.2686
     19 C         -27.4380    3.0910   25.6450 C.2     1  UNL1        0.1025
     20 N         -28.0750    2.0890   25.0030 N.2     1  UNL1       -0.2118
     21 C         -27.5430    0.8490   25.0790 C.2     1  UNL1        0.2344
     22 O         -28.1930   -0.2080   24.4770 O.2     1  UNL1       -0.4585
     23 C         -29.4600    0.0050   23.8660 C.3     1  UNL1        0.2423
     24 C         -30.0650   -1.3770   23.5730 C.3     1  UNL1        0.2292
     25 O         -30.7290   -1.8780   24.7210 O.3     1  UNL1       -0.2162
     26 C         -26.3540    0.5760   25.7770 C.3     1  UNL1        0.2440
     27 F         -25.8600   -0.6810   25.7950 F       1  UNL1       -0.2265
     28 C         -28.5737    1.0787   28.8650 C.2     1  UNL1        0.1855
     29 O         -22.0475   -0.1205   29.3979 O.2     1  UNL1       -0.2853
     30 C         -23.8849    0.6340   28.0804 C.2     1  UNL1        0.0839
     31 C         -22.4856    0.6037   28.4076 C.2     1  UNL1        0.2086
     32 N         -24.8093   -0.0540   28.9829 N.pl3   1  UNL1       -0.3014
     33 C         -26.0896    0.7545   29.0497 C.3     1  UNL1        0.0990
     34 C         -23.2191    2.1251   26.1141 C.2     1  UNL1       -0.0024
     35 O         -29.7466    0.9090   28.4277 O.2     1  UNL1       -0.2932
     36 C         -21.8741    2.1466   26.5331 C.2     1  UNL1        0.0031
     37 C         -27.4436    0.0701   28.6817 C.3     1  UNL1        0.0887
     38 C         -21.5115    1.4071   27.6938 C.2     1  UNL1        0.0433
     39 C         -24.2587    1.4487   26.8482 C.2     1  UNL1        0.0014
     40 C         -28.3430    2.0581   29.8065 C.3     1  UNL1        0.2459
     41 O         -27.6066    3.2322   29.5917 O.3     1  UNL1       -0.2119
@<TRIPOS>BOND
     1     1    32    1
     2     2     7    1
     3     2     1    1
     4     3     2    2
     5     4     3    1
     6     4     5    2
     7     5     6    1
     8     6     7    2
     9     8     1    1
    10     8     9    1
    11     8    12    1
    12     9    10    1
    13    10    11    1
    14    12    11    1
    15    13    39    1
    16    14    13    1
    17    14    15    1
    18    15    18    2
    19    16    17    1
    20    16    15    1
    21    19    14    2
    22    20    21    2
    23    20    19    1
    24    21    26    1
    25    22    21    1
    26    23    22    1
    27    24    23    1
    28    24    25    1
    29    26    27    1
    30    26    13    1
    31    28    40    1
    32    30    31    1
    33    30    32    1
    34    31    29    1
    35    32    33    1
    36    34    36    2
    37    34    39    1
    38    35    28    2
    39    36    38    1
    40    37    28    1
    41    37    33    1
    42    38    31    2
    43    39    30    2
    44    41    40    1
