@<TRIPOS>MOLECULE
outputs/IAG933/test6/raw/output_3034_IAG933_linker_design_.xyz
 42 46 0 0 0
SMALL
GASTEIGER

@<TRIPOS>ATOM
      1 C         -24.8550   -1.0120   30.1430 C.3     1  UNL1        0.0451
      2 C         -24.9730   -2.5050   29.7880 C.2     1  UNL1       -0.0207
      3 C         -23.9060   -3.1730   29.1460 C.2     1  UNL1       -0.0042
      4 C         -23.9890   -4.5490   28.8530 C.2     1  UNL1       -0.0003
      5 C         -25.1370   -5.2800   29.2050 C.2     1  UNL1       -0.0000
      6 C         -26.2320   -4.6110   29.7840 C.2     1  UNL1       -0.0003
      7 C         -26.1550   -3.2320   30.0650 C.2     1  UNL1       -0.0042
      8 C         -25.3870   -0.6790   31.5710 C.3     1  UNL1        0.0931
      9 C         -25.1890    0.7730   32.0280 C.3     1  UNL1        0.0926
     10 C         -25.3360    0.6840   33.5440 C.3     1  UNL1        0.0377
     11 C         -24.8290   -0.7150   33.9050 C.3     1  UNL1        0.0902
     12 N         -24.7580   -1.4810   32.6460 N.3     1  UNL1       -0.2177
     13 C         -25.6880    1.6140   26.4610 C.3     1  UNL1        0.0936
     14 C         -26.2500    2.9200   26.3950 C.2     1  UNL1        0.0589
     15 C         -25.6420    4.0930   27.1230 C.2     1  UNL1        0.2628
     16 N         -25.6140    5.2520   26.4490 N.am    1  UNL1       -0.2000
     17 C         -25.0260    6.4790   26.9630 C.3     1  UNL1        0.1388
     18 O         -25.1430    3.9660   28.2430 O.2     1  UNL1       -0.2686
     19 C         -27.4380    3.0910   25.6450 C.2     1  UNL1        0.1025
     20 N         -28.0750    2.0890   25.0030 N.2     1  UNL1       -0.2118
     21 C         -27.5430    0.8490   25.0790 C.2     1  UNL1        0.2344
     22 O         -28.1930   -0.2080   24.4770 O.2     1  UNL1       -0.4585
     23 C         -29.4600    0.0050   23.8660 C.3     1  UNL1        0.2423
     24 C         -30.0650   -1.3770   23.5730 C.3     1  UNL1        0.2292
     25 O         -30.7290   -1.8780   24.7210 O.3     1  UNL1       -0.2162
     26 C         -26.3540    0.5760   25.7770 C.3     1  UNL1        0.2440
     27 F         -25.8600   -0.6810   25.7950 F       1  UNL1       -0.2265
     28 C         -22.0059    1.5742   26.3214 C.2     1  UNL1       -0.0002
     29 C         -23.9990    1.5076   28.2663 C.2     1  UNL1        0.0636
     30 C         -24.9108    6.0289   33.8011 C.2     1  UNL1       -0.0000
     31 C         -24.3177    1.5186   26.9115 C.2     1  UNL1       -0.0001
     32 C         -26.3557    4.5186   32.5808 C.2     1  UNL1       -0.0012
     33 N         -25.1226    1.8919   29.2691 N.pl3   1  UNL1       -0.2175
     34 C         -21.7001    1.3433   27.6534 C.2     1  UNL1        0.0013
     35 C         -24.0122    4.4166   32.2600 C.2     1  UNL1       -0.0012
     36 C         -26.1914    5.5582   33.5160 C.2     1  UNL1       -0.0002
     37 C         -22.7028    1.3106   28.6141 C.2     1  UNL1        0.0158
     38 C         -23.3279    1.6113   25.9244 C.2     1  UNL1       -0.0026
     39 C         -23.8206    5.4877   33.1383 C.2     1  UNL1       -0.0002
     40 N         -25.8569    1.9539   31.5804 N.3     1  UNL1       -0.1949
     41 C         -25.1155    2.8334   30.7519 C.3     1  UNL1        0.1878
     42 C         -25.2515    3.9150   31.9453 C.2     1  UNL1        0.0138
@<TRIPOS>BOND
     1     2     7    1
     2     2     1    1
     3     3     2    2
     4     4     3    1
     5     4     5    2
     6     5     6    1
     7     6     7    2
     8     8     1    1
     9     8     9    1
    10     8    12    1
    11     9    40    1
    12     9    10    1
    13    10    11    1
    14    12    11    1
    15    13    31    1
    16    14    13    1
    17    14    15    1
    18    15    18    2
    19    16    17    1
    20    16    15    1
    21    19    14    2
    22    20    21    2
    23    20    19    1
    24    21    26    1
    25    22    21    1
    26    23    22    1
    27    24    23    1
    28    24    25    1
    29    26    27    1
    30    26    13    1
    31    28    34    1
    32    29    37    1
    33    29    33    1
    34    31    29    2
    35    32    36    2
    36    34    37    2
    37    35    39    1
    38    36    30    1
    39    38    28    2
    40    38    31    1
    41    39    30    2
    42    41    33    1
    43    41    40    1
    44    41    42    1
    45    42    35    2
    46    42    32    1
