@<TRIPOS>MOLECULE
No_3038-gen_results/8p0m/2024-11-27-11-27-31/
 25 28 0 0 0
SMALL
GASTEIGER

@<TRIPOS>ATOM
      1 C         -28.0162   -0.8135   28.8779 C.ar    1  UNL1        0.0046
      2 C         -27.0636   -0.1189   28.6079 C.ar    1  UNL1        0.0001
      3 C         -25.7923   -0.4302   29.0761 C.ar    1  UNL1        0.0000
      4 C         -25.5756   -1.5654   29.9363 C.ar    1  UNL1        0.0001
      5 C         -26.7354   -2.3004   30.2173 C.ar    1  UNL1        0.0046
      6 C         -27.9184   -1.9537   29.7629 C.ar    1  UNL1        0.0554
      7 C         -27.1057    1.1023   27.7593 C.ar    1  UNL1        0.0001
      8 C         -27.8576    1.5309   27.2156 C.ar    1  UNL1        0.0000
      9 C         -27.8433    2.7213   26.2861 C.ar    1  UNL1        0.0000
     10 C         -26.6217    3.3253   26.0566 C.ar    1  UNL1        0.0015
     11 C         -25.4854    2.7960   26.6725 C.ar    1  UNL1        0.0192
     12 C         -25.6222    1.7365   27.5193 C.ar    1  UNL1        0.0030
     13 C         -29.0776   -2.7599   30.2148 C.2     1  UNL1        0.2690
     14 N         -28.9889   -4.0379   30.5192 N.am    1  UNL1       -0.1754
     15 O         -30.2220   -2.2336   30.2321 O.2     1  UNL1       -0.2680
     16 C         -30.0577   -4.9336   30.8329 C.ar    1  UNL1        0.0737
     17 C         -29.8926   -5.6219   31.9648 C.ar    1  UNL1        0.0166
     18 C         -30.8100   -6.7239   32.2558 C.ar    1  UNL1        0.0013
     19 C         -31.8531   -6.9778   31.3456 C.ar    1  UNL1        0.0001
     20 C         -31.9201   -6.1867   30.1788 C.ar    1  UNL1        0.0013
     21 C         -30.9680   -5.1955   29.9055 C.ar    1  UNL1        0.0166
     22 C         -24.1874    3.4150   26.4335 C.ar    1  UNL1        0.0988
     23 N         -23.0934    2.6518   26.8239 N.ar    1  UNL1       -0.2423
     24 C         -23.1346    1.8486   27.8838 C.ar    1  UNL1        0.0989
     25 C         -24.3955    1.2179   28.1429 C.ar    1  UNL1        0.0207
@<TRIPOS>BOND
     1     2     7    1
     2     6    13    1
     3    13    14   am
     4    13    15    2
     5    14    16    1
     6     1     2   ar
     7     2     3   ar
     8     3     4   ar
     9     4     5   ar
    10     5     6   ar
    11     6     1   ar
    12    12    25   ar
    13    25    24   ar
    14    24    23   ar
    15    23    22   ar
    16    22    11   ar
    17     7     8   ar
    18     8     9   ar
    19     9    10   ar
    20    10    11   ar
    21    11    12   ar
    22    12     7   ar
    23    16    17   ar
    24    17    18   ar
    25    18    19   ar
    26    19    20   ar
    27    20    21   ar
    28    21    16   ar
