@<TRIPOS>MOLECULE
outputs/IAG933/test6/raw/output_3042_IAG933_linker_design_.xyz
 42 45 0 0 0
SMALL
GASTEIGER

@<TRIPOS>ATOM
      1 C         -24.8550   -1.0120   30.1430 C.3     1  UNL1        0.0783
      2 C         -24.9730   -2.5050   29.7880 C.2     1  UNL1       -0.0176
      3 C         -23.9060   -3.1730   29.1460 C.2     1  UNL1       -0.0041
      4 C         -23.9890   -4.5490   28.8530 C.2     1  UNL1       -0.0003
      5 C         -25.1370   -5.2800   29.2050 C.2     1  UNL1       -0.0000
      6 C         -26.2320   -4.6110   29.7840 C.2     1  UNL1       -0.0003
      7 C         -26.1550   -3.2320   30.0650 C.2     1  UNL1       -0.0041
      8 C         -25.3870   -0.6790   31.5710 C.3     1  UNL1        0.0803
      9 C         -25.1890    0.7730   32.0280 C.3     1  UNL1        0.0193
     10 C         -25.3360    0.6840   33.5440 C.3     1  UNL1        0.0202
     11 C         -24.8290   -0.7150   33.9050 C.3     1  UNL1        0.0887
     12 N         -24.7580   -1.4810   32.6460 N.3     1  UNL1       -0.2190
     13 C         -25.6880    1.6140   26.4610 C.2     1  UNL1        0.0418
     14 C         -26.2500    2.9200   26.3950 C.2     1  UNL1        0.0767
     15 C         -25.6420    4.0930   27.1230 C.2     1  UNL1        0.2664
     16 N         -25.6140    5.2520   26.4490 N.am    1  UNL1       -0.1997
     17 C         -25.0260    6.4790   26.9630 C.3     1  UNL1        0.1388
     18 O         -25.1430    3.9660   28.2430 O.2     1  UNL1       -0.2683
     19 C         -27.4380    3.0910   25.6450 C.2     1  UNL1        0.1067
     20 N         -28.0750    2.0890   25.0030 N.2     1  UNL1       -0.2081
     21 C         -27.5430    0.8490   25.0790 C.2     1  UNL1        0.2533
     22 O         -28.1930   -0.2080   24.4770 O.2     1  UNL1       -0.4558
     23 C         -29.4600    0.0050   23.8660 C.3     1  UNL1        0.2426
     24 C         -30.0650   -1.3770   23.5730 C.3     1  UNL1        0.2292
     25 O         -30.7290   -1.8780   24.7210 O.3     1  UNL1       -0.2162
     26 C         -26.3540    0.5760   25.7770 C.2     1  UNL1        0.1932
     27 F         -25.8600   -0.6810   25.7950 F       1  UNL1       -0.1992
     28 C         -21.8224    1.5019   27.3211 C.2     1  UNL1        0.0116
     29 C         -28.5849   -0.0052   29.0145 C.3     1  UNL1        0.0085
     30 O         -28.2648    3.6806   29.4971 O.2     1  UNL1       -0.2835
     31 C         -26.0108   -0.3414   29.3699 C.3     1  UNL1        0.1712
     32 C         -24.3744    1.4348   27.2443 C.2     1  UNL1        0.0471
     33 C         -24.3455    0.9917   28.6331 C.2     1  UNL1        0.1392
     34 O         -25.5651    1.0318   29.3090 O.2     1  UNL1       -0.4788
     35 C         -27.2722   -0.5575   28.4418 C.3     1  UNL1        0.0443
     36 C         -29.4957    3.4060   29.8531 C.2     1  UNL1        0.2297
     37 C         -30.1250    2.1825   29.3375 C.2     1  UNL1        0.0192
     38 C         -23.0744    0.6351   29.2244 C.2     1  UNL1        0.0369
     39 C         -21.8231    0.9037   28.6090 C.2     1  UNL1        0.0040
     40 C         -23.0939    1.7084   26.6487 C.2     1  UNL1        0.0606
     41 C         -29.2881    1.2178   28.4759 C.3     1  UNL1        0.0296
     42 CL        -22.9940    2.4596   25.0568 Cl      1  UNL1       -0.0821
@<TRIPOS>BOND
     1     1    31    1
     2     2     7    1
     3     2     1    1
     4     3     2    2
     5     4     3    1
     6     4     5    2
     7     5     6    1
     8     6     7    2
     9     8     1    1
    10     8     9    1
    11     8    12    1
    12     9    10    1
    13    10    11    1
    14    12    11    1
    15    13    32    1
    16    14    13    1
    17    14    15    1
    18    15    18    2
    19    16    17    1
    20    16    15    1
    21    19    14    2
    22    20    21    2
    23    20    19    1
    24    21    26    1
    25    22    21    1
    26    23    22    1
    27    24    23    1
    28    24    25    1
    29    26    27    1
    30    26    13    2
    31    28    39    1
    32    30    36    1
    33    31    35    1
    34    32    33    2
    35    33    38    1
    36    33    34    1
    37    34    31    1
    38    35    29    1
    39    37    36    2
    40    39    38    2
    41    40    32    1
    42    40    28    2
    43    41    29    1
    44    41    37    1
    45    42    40    1
