@<TRIPOS>MOLECULE
outputs/IAG933/test6/raw/output_3043_IAG933_linker_design_.xyz
 41 45 0 0 0
SMALL
GASTEIGER

@<TRIPOS>ATOM
      1 C         -24.8550   -1.0120   30.1430 C.3     1  UNL1        0.0500
      2 C         -24.9730   -2.5050   29.7880 C.2     1  UNL1       -0.0206
      3 C         -23.9060   -3.1730   29.1460 C.2     1  UNL1       -0.0042
      4 C         -23.9890   -4.5490   28.8530 C.2     1  UNL1       -0.0003
      5 C         -25.1370   -5.2800   29.2050 C.2     1  UNL1       -0.0000
      6 C         -26.2320   -4.6110   29.7840 C.2     1  UNL1       -0.0003
      7 C         -26.1550   -3.2320   30.0650 C.2     1  UNL1       -0.0042
      8 C         -25.3870   -0.6790   31.5710 C.3     1  UNL1        0.0774
      9 C         -25.1890    0.7730   32.0280 C.3     1  UNL1        0.0192
     10 C         -25.3360    0.6840   33.5440 C.3     1  UNL1        0.0202
     11 C         -24.8290   -0.7150   33.9050 C.3     1  UNL1        0.0887
     12 N         -24.7580   -1.4810   32.6460 N.3     1  UNL1       -0.2191
     13 C         -25.6880    1.6140   26.4610 C.2     1  UNL1        0.0379
     14 C         -26.2500    2.9200   26.3950 C.2     1  UNL1        0.0765
     15 C         -25.6420    4.0930   27.1230 C.2     1  UNL1        0.2664
     16 N         -25.6140    5.2520   26.4490 N.am    1  UNL1       -0.1997
     17 C         -25.0260    6.4790   26.9630 C.3     1  UNL1        0.1388
     18 O         -25.1430    3.9660   28.2430 O.2     1  UNL1       -0.2683
     19 C         -27.4380    3.0910   25.6450 C.2     1  UNL1        0.1067
     20 N         -28.0750    2.0890   25.0030 N.2     1  UNL1       -0.2081
     21 C         -27.5430    0.8490   25.0790 C.2     1  UNL1        0.2533
     22 O         -28.1930   -0.2080   24.4770 O.2     1  UNL1       -0.4558
     23 C         -29.4600    0.0050   23.8660 C.3     1  UNL1        0.2426
     24 C         -30.0650   -1.3770   23.5730 C.3     1  UNL1        0.2292
     25 O         -30.7290   -1.8780   24.7210 O.3     1  UNL1       -0.2162
     26 C         -26.3540    0.5760   25.7770 C.2     1  UNL1        0.1930
     27 F         -25.8600   -0.6810   25.7950 F       1  UNL1       -0.1992
     28 C         -24.7113    0.5653   28.2436 C.2     1  UNL1       -0.0143
     29 C         -25.5475   -0.1301   29.1845 C.3     1  UNL1        0.1199
     30 C         -22.2390    0.0032   29.2302 C.2     1  UNL1       -0.0001
     31 C         -24.5158    1.2974   27.2336 C.2     1  UNL1        0.0018
     32 C         -27.1922   -0.0851   29.1681 C.3     1  UNL1        0.4300
     33 O         -27.7100   -0.8933   28.4884 O.2     1  UNL1       -0.2667
     34 C         -20.9587    0.4494   28.8152 C.2     1  UNL1        0.0032
     35 C         -23.2996    1.3191   27.3950 C.2     1  UNL1        0.0377
     36 O         -27.5366    1.1426   29.0916 O.2     1  UNL1       -0.2667
     37 C         -20.8111    1.3448   27.6969 C.2     1  UNL1        0.0413
     38 C         -21.9805    1.6661   26.9114 C.2     1  UNL1        0.1888
     39 O         -21.7744    2.2433   25.7263 O.2     1  UNL1       -0.2920
     40 F         -22.9570    2.5505   25.1877 F       1  UNL1        0.0138
     41 C         -23.3607    0.5740   28.4729 C.2     1  UNL1       -0.0007
@<TRIPOS>BOND
     1     1    29    1
     2     2     7    1
     3     2     1    1
     4     3     2    2
     5     4     3    1
     6     4     5    2
     7     5     6    1
     8     6     7    2
     9     8     1    1
    10     8     9    1
    11     8    12    1
    12     9    10    1
    13    10    11    1
    14    12    11    1
    15    13    31    1
    16    14    13    1
    17    14    15    1
    18    15    18    2
    19    16    17    1
    20    16    15    1
    21    19    14    2
    22    20    21    2
    23    20    19    1
    24    21    26    1
    25    22    21    1
    26    23    22    1
    27    24    23    1
    28    24    25    1
    29    26    27    1
    30    26    13    2
    31    28    41    1
    32    28    29    1
    33    29    32    1
    34    31    35    1
    35    31    28    2
    36    33    32    1
    37    34    30    1
    38    35    41    1
    39    36    32    1
    40    37    34    2
    41    38    35    2
    42    38    37    1
    43    39    38    1
    44    40    39    1
    45    41    30    2
