@<TRIPOS>MOLECULE
No_3044-gen_results/8p0m/2024-11-27-11-27-31/
 17 19 0 0 0
SMALL
GASTEIGER

@<TRIPOS>ATOM
      1 C         -28.0162   -0.8135   28.8779 C.ar    1  UNL1       -0.0029
      2 C         -28.4690   -0.7850   29.8287 C.ar    1  UNL1       -0.0061
      3 C         -26.5042   -0.7777   28.8766 C.ar    1  UNL1       -0.0003
      4 C         -25.6540   -0.6597   27.7191 C.ar    1  UNL1       -0.0000
      5 C         -29.9920   -0.8134   29.9579 C.3     1  UNL1        0.0991
      6 C         -24.2081   -0.6354   27.9684 C.ar    1  UNL1       -0.0000
      7 C         -23.7148   -0.7617   29.2554 C.ar    1  UNL1       -0.0000
      8 C         -24.5039   -0.8892   30.3377 C.ar    1  UNL1       -0.0000
      9 C         -25.8377   -0.9206   30.1886 C.ar    1  UNL1       -0.0000
     10 C         -27.9056   -0.8398   31.2429 C.ar    1  UNL1       -0.0029
     11 C         -26.6522   -0.9404   31.3581 C.ar    1  UNL1       -0.0003
     12 N         -30.5693   -0.0591   29.1579 N.3     1  UNL1       -0.2690
     13 C         -30.0257    0.9361   28.5975 C.3     1  UNL1        0.0724
     14 C         -32.0080   -0.3256   28.8554 C.3     1  UNL1        0.0724
     15 C         -30.7310    1.7254   27.5554 C.3     1  UNL1        0.0174
     16 C         -32.6473    0.3523   27.8411 C.3     1  UNL1        0.0174
     17 C         -32.0486    1.5104   27.3320 C.3     1  UNL1        0.0029
@<TRIPOS>BOND
     1     5    12    1
     2    12    13    1
     3    12    14    1
     4    15    17    1
     5    16    17    1
     6     5     2    1
     7    13    15    1
     8    16    14    1
     9     3     4   ar
    10     4     6   ar
    11     6     7   ar
    12     7     8   ar
    13     8     9   ar
    14     1     2   ar
    15     2    10   ar
    16    10    11   ar
    17    11     9   ar
    18     9     3   ar
    19     3     1   ar
