@<TRIPOS>MOLECULE
No_3047-gen_results/8p0m/2024-11-27-11-27-31/
 25 26 0 0 0
SMALL
GASTEIGER

@<TRIPOS>ATOM
      1 C         -28.0162   -0.8135   28.8779 C.ar    1  UNL1        0.0371
      2 C         -27.0636   -0.1189   28.6079 C.ar    1  UNL1        0.0031
      3 C         -25.7923   -0.4302   29.0761 C.ar    1  UNL1        0.0002
      4 C         -25.5756   -1.5654   29.9363 C.ar    1  UNL1        0.0031
      5 C         -26.7354   -2.3004   30.2173 C.ar    1  UNL1        0.0371
      6 C         -27.9184   -1.9537   29.7629 C.ar    1  UNL1        0.1445
      7 O         -29.0001   -2.7012   30.1151 O.3     1  UNL1       -0.4225
      8 C         -24.5290    0.3490   28.7998 C.ar    1  UNL1        0.0008
      9 C         -23.3442    0.0060   29.1658 C.ar    1  UNL1        0.0001
     10 C         -22.1783    0.7811   28.7783 C.ar    1  UNL1        0.0009
     11 C         -22.3218    1.7499   27.7727 C.ar    1  UNL1        0.0114
     12 C         -24.4393    1.2483   27.6172 C.ar    1  UNL1        0.0114
     13 C         -23.4458    1.9563   27.2341 C.ar    1  UNL1        0.0577
     14 C         -30.1253   -2.1334   30.5842 C.3     1  UNL1        0.5031
     15 C         -31.1959   -2.7158   30.1336 C.2     1  UNL1        0.4234
     16 O         -32.1436   -2.6913   30.6429 O.2     1  UNL1       -0.2395
     17 O         -31.1869   -3.4020   28.9748 O.3     1  UNL1       -0.4319
     18 F         -30.0338   -2.1987   32.0068 F       1  UNL1       -0.1536
     19 CL        -23.6111    3.1710   26.0109 Cl      1  UNL1       -0.0822
     20 F         -30.2010   -0.8431   30.4151 F       1  UNL1       -0.1536
     21 C         -32.2112   -3.9374   28.2396 C.3     1  UNL1        0.2944
     22 C         -32.3022   -5.3262   28.6246 C.2     1  UNL1        0.2861
     23 O         -32.6655   -6.0855   27.8428 O.2     1  UNL1       -0.2693
     24 N         -31.8797   -5.8204   29.8480 N.am    1  UNL1       -0.2004
     25 C         -31.8773   -7.2025   30.2390 C.3     1  UNL1        0.1386
@<TRIPOS>BOND
     1     6     7    1
     2     3     8    1
     3     7    14    1
     4    14    15    1
     5    15    16    2
     6    15    17    1
     7    14    18    1
     8    13    19    1
     9    14    20    1
    10    17    21    1
    11    21    22    1
    12    22    23    2
    13    22    24   am
    14    24    25    1
    15     1     2   ar
    16     2     3   ar
    17     3     4   ar
    18     4     5   ar
    19     5     6   ar
    20     6     1   ar
    21     8     9   ar
    22     9    10   ar
    23    10    11   ar
    24    11    13   ar
    25    13    12   ar
    26    12     8   ar
