@<TRIPOS>MOLECULE
No_3048-gen_results/8p0m/2024-11-27-11-27-31/
 21 21 0 0 0
SMALL
GASTEIGER

@<TRIPOS>ATOM
      1 C         -28.0162   -0.8135   28.8779 C.3     1  UNL1        0.4186
      2 C         -27.0636   -0.1190   28.6079 C.ar    1  UNL1        0.0708
      3 C         -27.0010    0.6913   27.4910 C.ar    1  UNL1       -0.0002
      4 C         -25.8548    1.4825   27.0830 C.ar    1  UNL1       -0.0158
      5 C         -24.6901    1.4526   27.8807 C.ar    1  UNL1        0.0719
      6 C         -24.7379    0.6010   29.0416 C.ar    1  UNL1       -0.0159
      7 C         -25.8234   -0.1688   29.3887 C.ar    1  UNL1       -0.0002
      8 F         -29.0018   -0.5559   28.2415 F       1  UNL1       -0.1659
      9 F         -28.3558   -0.6840   30.2688 F       1  UNL1       -0.1659
     10 C         -23.5135    2.2142   27.5784 C.2     1  UNL1        0.3871
     11 O         -22.6175    1.7461   27.1948 O.co2   1  UNL1       -0.2406
     12 O         -23.5657    3.4670   27.9850 O.co2   1  UNL1       -0.2406
     13 C         -23.5064    0.5051   29.8942 C.3     1  UNL1        0.0348
     14 C         -23.3426   -0.5632   30.6799 C.3     1  UNL1        0.1041
     15 C         -23.7811   -0.4307   31.9637 C.3     1  UNL1        0.3213
     16 C         -22.6168   -1.6530   30.1866 C.3     1  UNL1        0.1880
     17 F         -23.4327   -1.3656   32.8141 F       1  UNL1       -0.1983
     18 F         -24.4871    0.4545   32.4130 F       1  UNL1       -0.1983
     19 F         -27.6942   -2.1210   28.8662 F       1  UNL1       -0.1659
     20 O         -21.7318   -1.4574   29.3140 O.3     1  UNL1       -0.2202
     21 C         -25.9159    2.2882   25.9276 C.3     1  UNL1        0.0312
@<TRIPOS>BOND
     1     1     2    1
     2     1     8    1
     3     1     9    1
     4     5    10    1
     5    10    11   ar
     6    10    12   ar
     7     6    13    1
     8    13    14    1
     9    14    15    1
    10    14    16    1
    11    15    17    1
    12    15    18    1
    13     1    19    1
    14    16    20    1
    15     4    21    1
    16     2     3   ar
    17     3     4   ar
    18     4     5   ar
    19     5     6   ar
    20     6     7   ar
    21     7     2   ar
