@<TRIPOS>MOLECULE
outputs/IAG933/test6/raw/output_3050_IAG933_linker_design_.xyz
 43 47 0 0 0
SMALL
GASTEIGER

@<TRIPOS>ATOM
      1 C         -24.8550   -1.0120   30.1430 C.3     1  UNL1        0.1007
      2 C         -24.9730   -2.5050   29.7880 C.2     1  UNL1       -0.0063
      3 C         -23.9060   -3.1730   29.1460 C.2     1  UNL1       -0.0029
      4 C         -23.9890   -4.5490   28.8530 C.2     1  UNL1       -0.0003
      5 C         -25.1370   -5.2800   29.2050 C.2     1  UNL1       -0.0000
      6 C         -26.2320   -4.6110   29.7840 C.2     1  UNL1       -0.0003
      7 C         -26.1550   -3.2320   30.0650 C.2     1  UNL1       -0.0029
      8 C         -25.3870   -0.6790   31.5710 C.3     1  UNL1        0.0917
      9 C         -25.1890    0.7730   32.0280 C.3     1  UNL1        0.0206
     10 C         -25.3360    0.6840   33.5440 C.3     1  UNL1        0.0203
     11 C         -24.8290   -0.7150   33.9050 C.3     1  UNL1        0.0888
     12 N         -24.7580   -1.4810   32.6460 N.3     1  UNL1       -0.2178
     13 C         -25.6880    1.6140   26.4610 C.3     1  UNL1        0.1305
     14 C         -26.2500    2.9200   26.3950 C.2     1  UNL1        0.0697
     15 C         -25.6420    4.0930   27.1230 C.2     1  UNL1        0.2637
     16 N         -25.6140    5.2520   26.4490 N.am    1  UNL1       -0.2000
     17 C         -25.0260    6.4790   26.9630 C.3     1  UNL1        0.1388
     18 O         -25.1430    3.9660   28.2430 O.2     1  UNL1       -0.2686
     19 C         -27.4380    3.0910   25.6450 C.2     1  UNL1        0.1035
     20 N         -28.0750    2.0890   25.0030 N.2     1  UNL1       -0.2118
     21 C         -27.5430    0.8490   25.0790 C.2     1  UNL1        0.2355
     22 O         -28.1930   -0.2080   24.4770 O.2     1  UNL1       -0.4585
     23 C         -29.4600    0.0050   23.8660 C.3     1  UNL1        0.2423
     24 C         -30.0650   -1.3770   23.5730 C.3     1  UNL1        0.2292
     25 O         -30.7290   -1.8780   24.7210 O.3     1  UNL1       -0.2162
     26 C         -26.3540    0.5760   25.7770 C.3     1  UNL1        0.2547
     27 F         -25.8600   -0.6810   25.7950 F       1  UNL1       -0.2254
     28 F         -22.5443    0.4262   30.0799 F       1  UNL1       -0.2174
     29 C         -26.4679    2.0699   29.9686 C.3     1  UNL1        0.0745
     30 C         -28.8244    2.8550   29.4437 C.3     1  UNL1        0.0029
     31 C         -21.3142    1.4554   27.1321 C.2     1  UNL1        0.1322
     32 C         -28.0204    0.5425   28.7079 C.3     1  UNL1        0.0745
     33 N         -26.6769    0.8348   29.0695 N.3     1  UNL1       -0.2481
     34 N         -24.6021   -0.0287   29.0903 N.3     1  UNL1       -0.2161
     35 C         -22.6375    1.9225   26.9327 C.3     1  UNL1        0.2222
     36 C         -25.5048    0.1646   28.5492 C.3     1  UNL1        0.1866
     37 N         -24.8943    1.1881   27.4935 N.3     1  UNL1       -0.2371
     38 N         -20.6227    1.7931   28.2173 N.2     1  UNL1       -0.1484
     39 C         -27.7964    2.6173   30.5566 C.3     1  UNL1        0.0175
     40 C         -23.5444    1.3842   27.8437 C.3     1  UNL1        0.1476
     41 C         -23.4729    0.6305   29.1496 C.3     1  UNL1        0.2419
     42 C         -28.8672    1.7752   28.3803 C.3     1  UNL1        0.0175
     43 F         -22.8704    2.6768   25.8328 F       1  UNL1       -0.2291
@<TRIPOS>BOND
     1     1     2    1
     2     2     7    1
     3     3     2    2
     4     4     3    1
     5     4     5    2
     6     5     6    1
     7     6     7    2
     8     8     1    1
     9     8     9    1
    10     8    12    1
    11     9    10    1
    12    10    11    1
    13    12    11    1
    14    13    14    1
    15    14    15    1
    16    15    18    2
    17    16    17    1
    18    16    15    1
    19    19    14    2
    20    20    21    2
    21    20    19    1
    22    21    26    1
    23    22    21    1
    24    23    22    1
    25    24    23    1
    26    24    25    1
    27    26    27    1
    28    26    13    1
    29    29    39    1
    30    30    39    1
    31    31    38    2
    32    32    33    1
    33    33    29    1
    34    34    41    1
    35    34     1    1
    36    35    43    1
    37    35    31    1
    38    36    33    1
    39    36    34    1
    40    37    13    1
    41    37    40    1
    42    37    36    1
    43    40    35    1
    44    40    41    1
    45    41    28    1
    46    42    32    1
    47    42    30    1
