@<TRIPOS>MOLECULE
No_3051-gen_results/8p0m/2024-11-27-11-27-31/
 18 19 0 0 0
SMALL
GASTEIGER

@<TRIPOS>ATOM
      1 C         -28.0162   -0.8135   28.8779 C.3     1  UNL1        0.0911
      2 C         -27.0636   -0.1190   28.6079 C.ar    1  UNL1       -0.0148
      3 C         -25.7923   -0.4302   29.0761 C.ar    1  UNL1       -0.0038
      4 C         -24.5456    0.3494   28.8225 C.ar    1  UNL1        0.0013
      5 C         -24.6586    1.4196   27.8878 C.ar    1  UNL1        0.0209
      6 C         -25.9471    1.6811   27.3792 C.ar    1  UNL1        0.0013
      7 C         -27.0439    0.9739   27.6871 C.ar    1  UNL1       -0.0038
      8 C         -28.6703   -0.4455   30.2080 C.2     1  UNL1        0.1594
      9 C         -28.5206    0.4800   30.7047 C.3     1  UNL1        0.0911
     10 C         -28.7084    1.1256   31.6359 C.ar    1  UNL1       -0.0148
     11 C         -28.9949    2.3349   32.3302 C.ar    1  UNL1       -0.0038
     12 C         -28.5810    2.3854   33.6867 C.ar    1  UNL1       -0.0003
     13 C         -28.1579    1.3352   34.3835 C.ar    1  UNL1       -0.0000
     14 C         -27.8884    0.1680   33.7812 C.ar    1  UNL1       -0.0003
     15 C         -28.0535    0.1550   32.7228 C.ar    1  UNL1       -0.0038
     16 O         -29.3655   -1.4820   30.7251 O.2     1  UNL1       -0.2954
     17 C         -23.4445    2.1455   27.5508 C.2     1  UNL1        0.1221
     18 N         -22.2313    1.7339   28.0507 N.2     1  UNL1       -0.1464
@<TRIPOS>BOND
     1     1     2    1
     2     1     8    1
     3     8     9    1
     4     8    16    2
     5     5    17    1
     6    17    18    2
     7     9    10    1
     8     2     3   ar
     9     3     4   ar
    10     4     5   ar
    11     5     6   ar
    12     6     7   ar
    13     7     2   ar
    14    10    11   ar
    15    11    12   ar
    16    12    13   ar
    17    13    14   ar
    18    14    15   ar
    19    15    10   ar
