@<TRIPOS>MOLECULE
No_3053-gen_results/8p0m/2024-11-27-11-27-31/
 33 35 0 0 0
SMALL
GASTEIGER

@<TRIPOS>ATOM
      1 C         -28.0162   -0.8135   28.8779 C.ar    1  UNL1        0.0066
      2 C         -27.0636   -0.1190   28.6079 C.ar    1  UNL1        0.0004
      3 C         -26.8756    1.1325   28.9134 C.ar    1  UNL1        0.0062
      4 C         -27.9014    1.8066   29.6436 C.ar    1  UNL1        0.0004
      5 C         -28.9449    1.0388   30.0360 C.ar    1  UNL1        0.0066
      6 C         -29.0273   -0.2890   29.7051 C.ar    1  UNL1        0.0798
      7 C         -25.6027    1.7107   28.5373 C.2     1  UNL1        0.0757
      8 C         -24.8845    1.5376   27.5614 C.2     1  UNL1        0.0064
      9 C         -23.6019    2.1492   27.2917 C.2     1  UNL1        0.0003
     10 C         -22.3933    1.7966   27.3990 C.2     1  UNL1        0.0016
     11 C         -22.1290    0.7172   28.3131 C.ar    1  UNL1        0.0193
     12 C         -20.8087    0.3626   28.6421 C.ar    1  UNL1        0.0988
     13 C         -23.2016   -0.0824   28.7760 C.ar    1  UNL1        0.0077
     14 C         -22.7180   -1.0787   29.7856 C.ar    1  UNL1        0.0742
     15 C         -23.7277   -1.1538   30.7613 C.2     1  UNL1        0.2663
     16 C         -30.2006   -1.1555   30.0891 C.2     1  UNL1        0.3878
     17 O         -29.9633   -2.2295   30.3400 O.co2   1  UNL1       -0.2406
     18 O         -31.3473   -0.6726   30.2200 O.co2   1  UNL1       -0.2406
     19 C         -25.1219    2.8394   29.5220 C.2     1  UNL1        0.3415
     20 N         -20.5276   -0.7374   29.3599 N.ar    1  UNL1       -0.2422
     21 C         -21.4319   -1.1669   30.0243 C.ar    1  UNL1        0.1034
     22 O         -24.6802   -2.0216   30.5222 O.2     1  UNL1       -0.2683
     23 N         -23.7535   -0.5382   31.9920 N.am    1  UNL1       -0.1997
     24 C         -24.7555   -0.6307   33.0375 C.3     1  UNL1        0.1388
     25 O         -25.4729    4.0275   29.1947 O.3     1  UNL1       -0.4404
     26 O         -24.9216    2.5792   30.8086 O.2     1  UNL1       -0.2449
     27 C         -25.7073    5.0179   30.0832 C.3     1  UNL1        0.2354
     28 C         -25.7749    6.3285   29.4632 C.ar    1  UNL1        0.0213
     29 C         -25.8501    6.4467   28.0974 C.ar    1  UNL1       -0.0007
     30 C         -25.7288    7.7299   27.4487 C.ar    1  UNL1       -0.0002
     31 C         -25.5938    8.8718   28.2296 C.ar    1  UNL1       -0.0000
     32 C         -25.5288    8.7751   29.6413 C.ar    1  UNL1       -0.0002
     33 C         -25.5829    7.5561   30.2272 C.ar    1  UNL1       -0.0007
@<TRIPOS>BOND
     1     3     7    1
     2     7     8    2
     3     8     9    1
     4     9    10    2
     5    10    11    1
     6    14    15    1
     7     6    16    1
     8    16    17   ar
     9    16    18   ar
    10     7    19    1
    11    15    22    2
    12    15    23   am
    13    23    24    1
    14    19    25    1
    15    19    26    2
    16    25    27    1
    17    27    28    1
    18    28    29   ar
    19    29    30   ar
    20    30    31   ar
    21    31    32   ar
    22    32    33   ar
    23    33    28   ar
    24     1     2   ar
    25     2     3   ar
    26     3     4   ar
    27     4     5   ar
    28     5     6   ar
    29     6     1   ar
    30    11    12   ar
    31    12    20   ar
    32    20    21   ar
    33    21    14   ar
    34    14    13   ar
    35    13    11   ar
