@<TRIPOS>MOLECULE
No_3054-gen_results/8p0m/2024-11-27-11-27-31/
 17 18 0 0 0
SMALL
GASTEIGER

@<TRIPOS>ATOM
      1 C         -28.0162   -0.8135   28.8779 C.ar    1  UNL1        0.0002
      2 C         -27.0636   -0.1189   28.6079 C.ar    1  UNL1        0.0064
      3 C         -25.7647   -0.3897   29.0360 C.ar    1  UNL1        0.0002
      4 C         -24.5516    0.4058   28.7646 C.ar    1  UNL1        0.0039
      5 C         -24.6957    1.4480   27.7988 C.ar    1  UNL1        0.0716
      6 C         -25.9755    1.7250   27.3077 C.ar    1  UNL1        0.0104
      7 C         -27.0718    1.0134   27.6535 C.ar    1  UNL1        0.0797
      8 C         -27.9653   -1.6216   30.1356 C.ar    1  UNL1        0.0000
      9 C         -26.6745   -2.1506   30.4965 C.ar    1  UNL1       -0.0000
     10 C         -25.5535   -1.4129   30.0823 C.ar    1  UNL1       -0.0000
     11 C         -23.4812    2.2323   27.4585 C.3     1  UNL1        0.4186
     12 F         -23.6679    3.4143   27.5828 F       1  UNL1       -0.1659
     13 F         -22.4630    1.9916   28.3754 F       1  UNL1       -0.1659
     14 F         -23.0317    1.9032   26.2483 F       1  UNL1       -0.1659
     15 C         -28.3587    1.3144   27.0110 C.2     1  UNL1        0.3877
     16 O         -29.2620    1.6179   27.6235 O.co2   1  UNL1       -0.2406
     17 O         -28.3364    1.2503   25.7148 O.co2   1  UNL1       -0.2406
@<TRIPOS>BOND
     1     5    11    1
     2    11    12    1
     3    11    13    1
     4    11    14    1
     5     7    15    1
     6    15    16   ar
     7    15    17   ar
     8     3     4   ar
     9     4     5   ar
    10     5     6   ar
    11     6     7   ar
    12     7     2   ar
    13     1     2   ar
    14     2     3   ar
    15     3    10   ar
    16    10     9   ar
    17     9     8   ar
    18     8     1   ar
