@<TRIPOS>MOLECULE
No_3055-gen_results/8p0m/2024-11-27-11-27-31/
 13 14 0 0 0
SMALL
GASTEIGER

@<TRIPOS>ATOM
      1 C         -28.0162   -0.8135   28.8779 C.ar    1  UNL1        0.0000
      2 C         -28.4690   -0.7850   29.8287 C.ar    1  UNL1        0.0000
      3 C         -26.5455   -0.8762   28.8500 C.ar    1  UNL1       -0.0000
      4 C         -25.8041   -1.0324   30.0571 C.ar    1  UNL1       -0.0000
      5 C         -26.5373   -1.0386   31.2171 C.ar    1  UNL1       -0.0000
      6 C         -27.8843   -0.9532   31.1862 C.ar    1  UNL1        0.0000
      7 C         -24.3655   -1.1134   30.0483 C.ar    1  UNL1       -0.0000
      8 C         -23.7447   -1.3690   30.8125 C.ar    1  UNL1       -0.0003
      9 C         -22.2072   -1.2504   30.8577 C.ar    1  UNL1       -0.0043
     10 C         -21.6856   -0.8191   29.6527 C.ar    1  UNL1       -0.0218
     11 C         -23.8081   -0.7876   28.6694 C.ar    1  UNL1       -0.0003
     12 C         -20.2593   -0.5621   29.4009 C.3     1  UNL1        0.0310
     13 C         -22.5425   -0.5404   28.5523 C.ar    1  UNL1       -0.0043
@<TRIPOS>BOND
     1     4     7    1
     2    10    12    1
     3     1     2   ar
     4     2     6   ar
     5     6     5   ar
     6     5     4   ar
     7     4     3   ar
     8     3     1   ar
     9     7     8   ar
    10     8     9   ar
    11     9    10   ar
    12    10    13   ar
    13    13    11   ar
    14    11     7   ar
