@<TRIPOS>MOLECULE
outputs/IAG933/test6/raw/output_3057_IAG933_linker_design_.xyz
 42 45 0 0 0
SMALL
GASTEIGER

@<TRIPOS>ATOM
      1 C         -24.8550   -1.0120   30.1430 C.3     1  UNL1        0.0565
      2 C         -24.9730   -2.5050   29.7880 C.2     1  UNL1       -0.0195
      3 C         -23.9060   -3.1730   29.1460 C.2     1  UNL1       -0.0042
      4 C         -23.9890   -4.5490   28.8530 C.2     1  UNL1       -0.0003
      5 C         -25.1370   -5.2800   29.2050 C.2     1  UNL1       -0.0000
      6 C         -26.2320   -4.6110   29.7840 C.2     1  UNL1       -0.0003
      7 C         -26.1550   -3.2320   30.0650 C.2     1  UNL1       -0.0042
      8 C         -25.3870   -0.6790   31.5710 C.3     1  UNL1        0.0784
      9 C         -25.1890    0.7730   32.0280 C.3     1  UNL1        0.0192
     10 C         -25.3360    0.6840   33.5440 C.3     1  UNL1        0.0202
     11 C         -24.8290   -0.7150   33.9050 C.3     1  UNL1        0.0887
     12 N         -24.7580   -1.4810   32.6460 N.3     1  UNL1       -0.2191
     13 C         -25.6880    1.6140   26.4610 C.3     1  UNL1        0.0899
     14 C         -26.2500    2.9200   26.3950 C.2     1  UNL1        0.0565
     15 C         -25.6420    4.0930   27.1230 C.2     1  UNL1        0.2625
     16 N         -25.6140    5.2520   26.4490 N.am    1  UNL1       -0.2000
     17 C         -25.0260    6.4790   26.9630 C.3     1  UNL1        0.1388
     18 O         -25.1430    3.9660   28.2430 O.2     1  UNL1       -0.2687
     19 C         -27.4380    3.0910   25.6450 C.2     1  UNL1        0.1022
     20 N         -28.0750    2.0890   25.0030 N.2     1  UNL1       -0.2119
     21 C         -27.5430    0.8490   25.0790 C.2     1  UNL1        0.2341
     22 O         -28.1930   -0.2080   24.4770 O.2     1  UNL1       -0.4585
     23 C         -29.4600    0.0050   23.8660 C.3     1  UNL1        0.2423
     24 C         -30.0650   -1.3770   23.5730 C.3     1  UNL1        0.2292
     25 O         -30.7290   -1.8780   24.7210 O.3     1  UNL1       -0.2162
     26 C         -26.3540    0.5760   25.7770 C.3     1  UNL1        0.2417
     27 F         -25.8600   -0.6810   25.7950 F       1  UNL1       -0.2268
     28 O         -23.0901    1.2355   29.9237 O.2     1  UNL1       -0.2749
     29 C         -25.6620   -0.1316   29.1608 C.3     1  UNL1        0.0807
     30 C         -30.3722    3.4463   29.1953 C.2     1  UNL1        0.1676
     31 C         -29.3188    1.2976   27.9924 C.3     1  UNL1        0.0295
     32 C         -23.4465    1.0812   28.7870 C.2     1  UNL1        0.2256
     33 C         -28.0216    1.2138   28.8534 C.3     1  UNL1        0.0098
     34 C         -30.5541    1.9643   28.6794 C.2     1  UNL1        0.0138
     35 C         -27.6890    2.2579   29.8014 C.3     1  UNL1        0.0477
     36 C         -22.5013    1.4162   27.5491 C.3     1  UNL1        0.0853
     37 O         -29.1079    4.1430   28.9879 O.2     1  UNL1       -0.4727
     38 C         -21.0276    1.3907   27.9355 C.3     1  UNL1        0.0101
     39 C         -25.0785    1.0650   27.4952 C.3     1  UNL1        0.1011
     40 N         -24.6804    0.4368   28.3075 N.am    1  UNL1       -0.2804
     41 C         -27.8085    3.7739   29.5621 C.3     1  UNL1        0.2055
     42 C         -27.1866   -0.0725   28.8621 C.3     1  UNL1        0.0206
@<TRIPOS>BOND
     1     1    29    1
     2     2     7    1
     3     2     1    1
     4     3     2    2
     5     4     3    1
     6     4     5    2
     7     5     6    1
     8     6     7    2
     9     8     1    1
    10     8     9    1
    11     8    12    1
    12     9    10    1
    13    10    11    1
    14    12    11    1
    15    13    39    1
    16    14    13    1
    17    14    15    1
    18    15    18    2
    19    16    17    1
    20    16    15    1
    21    19    14    2
    22    20    21    2
    23    20    19    1
    24    21    26    1
    25    22    21    1
    26    23    22    1
    27    24    23    1
    28    24    25    1
    29    26    27    1
    30    26    13    1
    31    29    42    1
    32    31    34    1
    33    31    33    1
    34    32    28    2
    35    33    42    1
    36    33    35    1
    37    34    30    2
    38    36    38    1
    39    36    32    1
    40    37    30    1
    41    37    41    1
    42    39    40    1
    43    40    32   am
    44    40    29    1
    45    41    35    1
