@<TRIPOS>MOLECULE
outputs/IAG933/test6/raw/output_3058_IAG933_linker_design_.xyz
 45 49 0 0 0
SMALL
GASTEIGER

@<TRIPOS>ATOM
      1 C         -24.8550   -1.0120   30.1430 C.3     1  UNL1        0.0438
      2 C         -24.9730   -2.5050   29.7880 C.2     1  UNL1       -0.0208
      3 C         -23.9060   -3.1730   29.1460 C.2     1  UNL1       -0.0042
      4 C         -23.9890   -4.5490   28.8530 C.2     1  UNL1       -0.0003
      5 C         -25.1370   -5.2800   29.2050 C.2     1  UNL1       -0.0000
      6 C         -26.2320   -4.6110   29.7840 C.2     1  UNL1       -0.0003
      7 C         -26.1550   -3.2320   30.0650 C.2     1  UNL1       -0.0042
      8 C         -25.3870   -0.6790   31.5710 C.3     1  UNL1        0.0810
      9 C         -25.1890    0.7730   32.0280 C.3     1  UNL1        0.0637
     10 C         -25.3360    0.6840   33.5440 C.3     1  UNL1        0.0242
     11 C         -24.8290   -0.7150   33.9050 C.3     1  UNL1        0.0888
     12 N         -24.7580   -1.4810   32.6460 N.3     1  UNL1       -0.2190
     13 C         -25.6880    1.6140   26.4610 C.2     1  UNL1        0.0429
     14 C         -26.2500    2.9200   26.3950 C.2     1  UNL1        0.0747
     15 C         -25.6420    4.0930   27.1230 C.2     1  UNL1        0.2662
     16 N         -25.6140    5.2520   26.4490 N.am    1  UNL1       -0.1997
     17 C         -25.0260    6.4790   26.9630 C.3     1  UNL1        0.1388
     18 O         -25.1430    3.9660   28.2430 O.2     1  UNL1       -0.2683
     19 C         -27.4380    3.0910   25.6450 C.2     1  UNL1        0.1065
     20 N         -28.0750    2.0890   25.0030 N.2     1  UNL1       -0.2081
     21 C         -27.5430    0.8490   25.0790 C.2     1  UNL1        0.2530
     22 O         -28.1930   -0.2080   24.4770 O.2     1  UNL1       -0.4558
     23 C         -29.4600    0.0050   23.8660 C.3     1  UNL1        0.2426
     24 C         -30.0650   -1.3770   23.5730 C.3     1  UNL1        0.2292
     25 O         -30.7290   -1.8780   24.7210 O.3     1  UNL1       -0.2162
     26 C         -26.3540    0.5760   25.7770 C.2     1  UNL1        0.1913
     27 F         -25.8600   -0.6810   25.7950 F       1  UNL1       -0.1995
     28 C         -23.1880    1.8164   26.7024 C.2     1  UNL1        0.0891
     29 N         -24.7238    1.6836   28.6921 N.2     1  UNL1       -0.2632
     30 F         -20.8458    1.9251   26.6818 F       1  UNL1       -0.2035
     31 CL        -23.0094    2.4310   25.0660 Cl      1  UNL1       -0.0823
     32 C         -26.6652    5.5457   33.4459 C.2     1  UNL1        0.0298
     33 C         -23.8951    1.5283   29.7535 C.2     1  UNL1        0.0941
     34 C         -24.4926    1.6018   27.3491 C.3     1  UNL1        0.1626
     35 C         -24.2781    1.6372   31.1760 C.3     1  UNL1        0.2063
     36 C         -22.4831    1.1621   29.6851 C.2     1  UNL1        0.0202
     37 O         -24.9356    2.8726   30.9697 O.2     1  UNL1       -0.4731
     38 F         -24.4359    6.3121   33.9203 F       1  UNL1       -0.2041
     39 C         -26.9022    3.7074   31.9281 C.2     1  UNL1        0.0371
     40 C         -21.9838    1.6499   27.3254 C.2     1  UNL1        0.1488
     41 C         -25.2852    5.4285   33.4098 C.2     1  UNL1        0.1432
     42 C         -21.7395    1.2374   28.5924 C.2     1  UNL1        0.0316
     43 C         -25.4998    3.5912   31.9248 C.2     1  UNL1        0.1412
     44 C         -27.4721    4.6890   32.7050 C.2     1  UNL1        0.0054
     45 C         -24.7148    4.3485   32.7604 C.2     1  UNL1        0.0665
@<TRIPOS>BOND
     1     2     7    1
     2     2     1    1
     3     3     2    2
     4     4     3    1
     5     4     5    2
     6     5     6    1
     7     6     7    2
     8     8     1    1
     9     8     9    1
    10     8    12    1
    11     9    35    1
    12     9    10    1
    13    10    11    1
    14    12    11    1
    15    14    13    1
    16    14    15    1
    17    15    18    2
    18    16    17    1
    19    16    15    1
    20    19    14    2
    21    20    21    2
    22    20    19    1
    23    21    26    1
    24    22    21    1
    25    23    22    1
    26    24    23    1
    27    24    25    1
    28    26    27    1
    29    26    13    2
    30    28    40    2
    31    28    34    1
    32    29    33    2
    33    30    40    1
    34    31    28    1
    35    33    35    1
    36    34    13    1
    37    34    29    1
    38    35    37    1
    39    36    33    1
    40    37    43    1
    41    39    44    1
    42    40    42    1
    43    41    32    1
    44    41    38    1
    45    42    36    2
    46    43    39    2
    47    43    45    1
    48    44    32    2
    49    45    41    2
