@<TRIPOS>MOLECULE
outputs/IAG933/test6/raw/output_3059_IAG933_linker_design_.xyz
 45 49 0 0 0
SMALL
GASTEIGER

@<TRIPOS>ATOM
      1 C         -24.8550   -1.0120   30.1430 C.3     1  UNL1        0.1533
      2 C         -24.9730   -2.5050   29.7880 C.2     1  UNL1        0.0059
      3 C         -23.9060   -3.1730   29.1460 C.2     1  UNL1       -0.0019
      4 C         -23.9890   -4.5490   28.8530 C.2     1  UNL1       -0.0002
      5 C         -25.1370   -5.2800   29.2050 C.2     1  UNL1       -0.0000
      6 C         -26.2320   -4.6110   29.7840 C.2     1  UNL1       -0.0002
      7 C         -26.1550   -3.2320   30.0650 C.2     1  UNL1       -0.0019
      8 C         -25.3870   -0.6790   31.5710 C.3     1  UNL1        0.1041
      9 C         -25.1890    0.7730   32.0280 C.3     1  UNL1        0.0217
     10 C         -25.3360    0.6840   33.5440 C.3     1  UNL1        0.0203
     11 C         -24.8290   -0.7150   33.9050 C.3     1  UNL1        0.0888
     12 N         -24.7580   -1.4810   32.6460 N.3     1  UNL1       -0.2166
     13 C         -25.6880    1.6140   26.4610 C.2     1  UNL1        0.0329
     14 C         -26.2500    2.9200   26.3950 C.2     1  UNL1        0.0713
     15 C         -25.6420    4.0930   27.1230 C.2     1  UNL1        0.2217
     16 N         -25.6140    5.2520   26.4490 N.2     1  UNL1       -0.2357
     17 C         -25.0260    6.4790   26.9630 C.3     1  UNL1        0.1550
     18 O         -25.1430    3.9660   28.2430 O.2     1  UNL1       -0.4578
     19 C         -27.4380    3.0910   25.6450 C.2     1  UNL1        0.1065
     20 N         -28.0750    2.0890   25.0030 N.2     1  UNL1       -0.2081
     21 C         -27.5430    0.8490   25.0790 C.2     1  UNL1        0.2530
     22 O         -28.1930   -0.2080   24.4770 O.2     1  UNL1       -0.4558
     23 C         -29.4600    0.0050   23.8660 C.3     1  UNL1        0.2426
     24 C         -30.0650   -1.3770   23.5730 C.3     1  UNL1        0.2292
     25 O         -30.7290   -1.8780   24.7210 O.3     1  UNL1       -0.2162
     26 C         -26.3540    0.5760   25.7770 C.2     1  UNL1        0.1900
     27 F         -25.8600   -0.6810   25.7950 F       1  UNL1       -0.1996
     28 C         -25.2399    0.9079   28.6283 C.3     1  UNL1        0.1627
     29 C         -25.4727    3.9000   29.4893 C.3     1  UNL1        0.2363
     30 O         -29.5614    4.1566   29.6791 O.2     1  UNL1       -0.2890
     31 C         -22.8213    0.9295   28.3380 C.2     1  UNL1        0.1176
     32 C         -28.0770    4.4962   31.6308 C.3     1  UNL1        0.2104
     33 C         -21.4972    1.4855   27.8176 C.3     1  UNL1        0.2522
     34 O         -26.6832    4.2040   31.7048 O.3     1  UNL1       -0.3443
     35 C         -26.7659    6.7834   30.4541 C.3     1  UNL1        0.0317
     36 O         -23.5098    2.4673   25.2291 O.2     1  UNL1       -0.2493
     37 N         -23.1355    0.1561   28.8839 N.2     1  UNL1       -0.1526
     38 C         -24.4105    1.3618   27.3596 C.3     1  UNL1        0.1742
     39 C         -23.2254    2.0306   26.3636 C.2     1  UNL1        0.3279
     40 O         -25.6628   -0.1690   29.2869 O.3     1  UNL1       -0.3491
     41 C         -28.5521    4.9206   30.2333 C.2     1  UNL1        0.1987
     42 C         -27.8158    6.1123   29.5960 C.2     1  UNL1        0.0140
     43 O         -21.7509    2.0365   26.6771 O.3     1  UNL1       -0.4416
     44 C         -25.8326    4.6293   30.6440 C.3     1  UNL1        0.1597
     45 C         -25.4256    6.0815   30.7058 C.3     1  UNL1        0.0382
@<TRIPOS>BOND
     1     1    40    1
     2     2     7    1
     3     2     1    1
     4     3     2    2
     5     4     3    1
     6     4     5    2
     7     5     6    1
     8     6     7    2
     9     8     1    1
    10     8     9    1
    11     8    12    1
    12     9    10    1
    13    10    11    1
    14    12    11    1
    15    13    38    1
    16    14    13    1
    17    14    15    1
    18    15    18    1
    19    16    17    1
    20    16    15    2
    21    18    29    1
    22    19    14    2
    23    20    21    2
    24    20    19    1
    25    21    26    1
    26    22    21    1
    27    23    22    1
    28    24    23    1
    29    24    25    1
    30    26    27    1
    31    26    13    2
    32    28    40    1
    33    30    41    1
    34    31    37    2
    35    32    34    1
    36    33    31    1
    37    35    45    1
    38    36    39    2
    39    38    31    1
    40    38    28    1
    41    39    43    1
    42    39    38    1
    43    41    32    1
    44    42    41    2
    45    42    35    1
    46    43    33    1
    47    44    29    1
    48    44    45    1
    49    44    34    1
