@<TRIPOS>MOLECULE
outputs/IAG933/test6/raw/output_306_IAG933_linker_design_.xyz
 44 49 0 0 0
SMALL
GASTEIGER

@<TRIPOS>ATOM
      1 C         -24.8550   -1.0120   30.1430 C.3     1  UNL1        0.0891
      2 C         -24.9730   -2.5050   29.7880 C.2     1  UNL1       -0.0169
      3 C         -23.9060   -3.1730   29.1460 C.2     1  UNL1       -0.0041
      4 C         -23.9890   -4.5490   28.8530 C.2     1  UNL1       -0.0003
      5 C         -25.1370   -5.2800   29.2050 C.2     1  UNL1       -0.0000
      6 C         -26.2320   -4.6110   29.7840 C.2     1  UNL1       -0.0003
      7 C         -26.1550   -3.2320   30.0650 C.2     1  UNL1       -0.0041
      8 C         -25.3870   -0.6790   31.5710 C.3     1  UNL1        0.0811
      9 C         -25.1890    0.7730   32.0280 C.3     1  UNL1        0.0193
     10 C         -25.3360    0.6840   33.5440 C.3     1  UNL1        0.0202
     11 C         -24.8290   -0.7150   33.9050 C.3     1  UNL1        0.0887
     12 N         -24.7580   -1.4810   32.6460 N.3     1  UNL1       -0.2190
     13 C         -25.6880    1.6140   26.4610 C.3     1  UNL1        0.0763
     14 C         -26.2500    2.9200   26.3950 C.2     1  UNL1        0.0552
     15 C         -25.6420    4.0930   27.1230 C.2     1  UNL1        0.2625
     16 N         -25.6140    5.2520   26.4490 N.am    1  UNL1       -0.2000
     17 C         -25.0260    6.4790   26.9630 C.3     1  UNL1        0.1388
     18 O         -25.1430    3.9660   28.2430 O.2     1  UNL1       -0.2687
     19 C         -27.4380    3.0910   25.6450 C.2     1  UNL1        0.1021
     20 N         -28.0750    2.0890   25.0030 N.2     1  UNL1       -0.2119
     21 C         -27.5430    0.8490   25.0790 C.2     1  UNL1        0.2341
     22 O         -28.1930   -0.2080   24.4770 O.2     1  UNL1       -0.4585
     23 C         -29.4600    0.0050   23.8660 C.3     1  UNL1        0.2423
     24 C         -30.0650   -1.3770   23.5730 C.3     1  UNL1        0.2292
     25 O         -30.7290   -1.8780   24.7210 O.3     1  UNL1       -0.2162
     26 C         -26.3540    0.5760   25.7770 C.3     1  UNL1        0.2404
     27 F         -25.8600   -0.6810   25.7950 F       1  UNL1       -0.2269
     28 O         -21.1269    1.7942   26.8939 O.2     1  UNL1       -0.2588
     29 C         -27.0635    2.9568   29.8696 C.2     1  UNL1        0.0868
     30 C         -29.2704    3.5270   29.1887 C.2     1  UNL1        0.0412
     31 N         -25.9411    1.8904   29.8224 N.pl3   1  UNL1       -0.2352
     32 C         -22.3598    1.9456   26.4761 C.2     1  UNL1        0.1844
     33 C         -22.5411    0.8365   28.4140 C.2     1  UNL1        0.4146
     34 N         -23.0208    0.0249   29.3945 N.2     1  UNL1       -0.0594
     35 C         -28.3027    2.5372   29.4186 C.2     1  UNL1        0.0186
     36 C         -26.8865    4.2564   30.3573 C.3     1  UNL1        0.2480
     37 C         -25.1321    1.0756   28.9162 C.3     1  UNL1        0.1461
     38 C         -24.7327    1.3962   27.5950 C.3     1  UNL1        0.0645
     39 O         -27.8517    5.1840   30.1733 O.2     1  UNL1       -0.4662
     40 C         -29.0376    4.8525   29.5584 C.2     1  UNL1        0.1728
     41 C         -22.8062    2.4838   25.0786 C.3     1  UNL1        0.0778
     42 C         -23.3260    1.4437   27.3985 C.2     1  UNL1        0.1067
     43 C         -24.3768   -0.0218   29.4668 C.3     1  UNL1        0.2404
     44 N         -21.2390    1.1223   28.1703 N.3     1  UNL1        0.1654
@<TRIPOS>BOND
     1     1     2    1
     2     2     7    1
     3     3     2    2
     4     4     3    1
     5     4     5    2
     6     5     6    1
     7     6     7    2
     8     8     1    1
     9     8     9    1
    10     8    12    1
    11     9    10    1
    12    10    11    1
    13    12    11    1
    14    13    14    1
    15    13    38    1
    16    14    15    1
    17    15    18    2
    18    16    17    1
    19    16    15    1
    20    19    14    2
    21    20    21    2
    22    20    19    1
    23    21    26    1
    24    22    21    1
    25    23    22    1
    26    24    23    1
    27    24    25    1
    28    26    27    1
    29    26    13    1
    30    28    44    1
    31    29    36    1
    32    30    35    1
    33    30    40    2
    34    31    29    1
    35    32    28    1
    36    32    42    2
    37    33    34    2
    38    34    43    1
    39    35    29    2
    40    37    43    1
    41    37    31    1
    42    38    42    1
    43    38    37    1
    44    39    36    1
    45    40    39    1
    46    41    32    1
    47    42    33    1
    48    43     1    1
    49    44    33    1
