@<TRIPOS>MOLECULE
outputs/IAG933/test6/raw/output_3061_IAG933_linker_design_.xyz
 44 49 0 0 0
SMALL
GASTEIGER

@<TRIPOS>ATOM
      1 C         -24.8550   -1.0120   30.1430 C.3     1  UNL1        0.0442
      2 C         -24.9730   -2.5050   29.7880 C.2     1  UNL1       -0.0208
      3 C         -23.9060   -3.1730   29.1460 C.2     1  UNL1       -0.0042
      4 C         -23.9890   -4.5490   28.8530 C.2     1  UNL1       -0.0003
      5 C         -25.1370   -5.2800   29.2050 C.2     1  UNL1       -0.0000
      6 C         -26.2320   -4.6110   29.7840 C.2     1  UNL1       -0.0003
      7 C         -26.1550   -3.2320   30.0650 C.2     1  UNL1       -0.0042
      8 C         -25.3870   -0.6790   31.5710 C.3     1  UNL1        0.0772
      9 C         -25.1890    0.7730   32.0280 C.3     1  UNL1        0.0192
     10 C         -25.3360    0.6840   33.5440 C.3     1  UNL1        0.0202
     11 C         -24.8290   -0.7150   33.9050 C.3     1  UNL1        0.0887
     12 N         -24.7580   -1.4810   32.6460 N.3     1  UNL1       -0.2191
     13 C         -25.6880    1.6140   26.4610 C.2     1  UNL1        0.0171
     14 C         -26.2500    2.9200   26.3950 C.2     1  UNL1        0.0726
     15 C         -25.6420    4.0930   27.1230 C.2     1  UNL1        0.2661
     16 N         -25.6140    5.2520   26.4490 N.am    1  UNL1       -0.1997
     17 C         -25.0260    6.4790   26.9630 C.3     1  UNL1        0.1388
     18 O         -25.1430    3.9660   28.2430 O.2     1  UNL1       -0.2683
     19 C         -27.4380    3.0910   25.6450 C.2     1  UNL1        0.1064
     20 N         -28.0750    2.0890   25.0030 N.2     1  UNL1       -0.2081
     21 C         -27.5430    0.8490   25.0790 C.2     1  UNL1        0.2530
     22 O         -28.1930   -0.2080   24.4770 O.2     1  UNL1       -0.4558
     23 C         -29.4600    0.0050   23.8660 C.3     1  UNL1        0.2426
     24 C         -30.0650   -1.3770   23.5730 C.3     1  UNL1        0.2292
     25 O         -30.7290   -1.8780   24.7210 O.3     1  UNL1       -0.2162
     26 C         -26.3540    0.5760   25.7770 C.2     1  UNL1        0.1891
     27 F         -25.8600   -0.6810   25.7950 F       1  UNL1       -0.1996
     28 O         -28.7210   -0.1655   27.6708 O.2     1  UNL1       -0.2317
     29 F         -23.0563    1.1167   24.0813 F       1  UNL1       -0.2043
     30 C         -25.3873    0.0840   29.0834 C.3     1  UNL1        0.0527
     31 N         -23.0772    0.6748   29.1530 N.3     1  UNL1       -0.2188
     32 C         -21.0853    1.2545   27.4230 C.3     1  UNL1        0.0244
     33 C         -24.3969    1.2843   27.1482 C.3     1  UNL1        0.0467
     34 C         -22.8470    1.6586   25.3235 C.3     1  UNL1        0.2643
     35 C         -22.0184    1.5145   26.1018 C.3     1  UNL1        0.0684
     36 C         -26.6828    0.5615   28.8809 C.2     1  UNL1        0.0610
     37 C         -27.9081    0.1402   28.2597 C.1     1  UNL1        0.1271
     38 C         -24.2523    0.6664   28.4518 C.3     1  UNL1        0.0818
     39 C         -21.6464    0.7130   28.6957 C.3     1  UNL1        0.0889
     40 C         -28.4323    2.2499   29.3846 C.3     1  UNL1        0.1769
     41 F         -23.0235    3.0170   24.8427 F       1  UNL1       -0.2043
     42 O         -26.9905    2.3250   30.2275 O.3     1  UNL1       -0.3459
     43 C         -27.1555    1.7556   29.1162 C.3     1  UNL1        0.1731
     44 C         -23.2871    1.4633   26.3004 C.3     1  UNL1        0.0721
@<TRIPOS>BOND
     1     1    30    1
     2     2     7    1
     3     2     1    1
     4     3     2    2
     5     4     3    1
     6     4     5    2
     7     5     6    1
     8     6     7    2
     9     8     1    1
    10     8     9    1
    11     8    12    1
    12     9    10    1
    13    10    11    1
    14    12    11    1
    15    14    13    1
    16    14    15    1
    17    15    18    2
    18    16    17    1
    19    16    15    1
    20    19    14    2
    21    20    21    2
    22    20    19    1
    23    21    26    1
    24    22    21    1
    25    23    22    1
    26    24    23    1
    27    24    25    1
    28    26    27    1
    29    26    13    2
    30    28    37    2
    31    29    34    1
    32    30    36    1
    33    32    39    1
    34    33    13    1
    35    33    38    1
    36    34    35    1
    37    35    44    1
    38    35    32    1
    39    37    36    2
    40    38    30    1
    41    38    31    1
    42    39    31    1
    43    40    42    1
    44    41    34    1
    45    43    36    1
    46    43    40    1
    47    43    42    1
    48    44    34    1
    49    44    33    1
