@<TRIPOS>MOLECULE
outputs/IAG933/test6/raw/output_3063_IAG933_linker_design_.xyz
 42 45 0 0 0
SMALL
GASTEIGER

@<TRIPOS>ATOM
      1 C         -24.8550   -1.0120   30.1430 C.3     1  UNL1        0.0964
      2 C         -24.9730   -2.5050   29.7880 C.2     1  UNL1       -0.0064
      3 C         -23.9060   -3.1730   29.1460 C.2     1  UNL1       -0.0029
      4 C         -23.9890   -4.5490   28.8530 C.2     1  UNL1       -0.0003
      5 C         -25.1370   -5.2800   29.2050 C.2     1  UNL1       -0.0000
      6 C         -26.2320   -4.6110   29.7840 C.2     1  UNL1       -0.0003
      7 C         -26.1550   -3.2320   30.0650 C.2     1  UNL1       -0.0029
      8 C         -25.3870   -0.6790   31.5710 C.3     1  UNL1        0.0916
      9 C         -25.1890    0.7730   32.0280 C.3     1  UNL1        0.0206
     10 C         -25.3360    0.6840   33.5440 C.3     1  UNL1        0.0203
     11 C         -24.8290   -0.7150   33.9050 C.3     1  UNL1        0.0888
     12 N         -24.7580   -1.4810   32.6460 N.3     1  UNL1       -0.2178
     13 C         -25.6880    1.6140   26.4610 C.2     1  UNL1        0.0212
     14 C         -26.2500    2.9200   26.3950 C.2     1  UNL1        0.0729
     15 C         -25.6420    4.0930   27.1230 C.2     1  UNL1        0.2661
     16 N         -25.6140    5.2520   26.4490 N.am    1  UNL1       -0.1997
     17 C         -25.0260    6.4790   26.9630 C.3     1  UNL1        0.1388
     18 O         -25.1430    3.9660   28.2430 O.2     1  UNL1       -0.2683
     19 C         -27.4380    3.0910   25.6450 C.2     1  UNL1        0.1064
     20 N         -28.0750    2.0890   25.0030 N.2     1  UNL1       -0.2081
     21 C         -27.5430    0.8490   25.0790 C.2     1  UNL1        0.2530
     22 O         -28.1930   -0.2080   24.4770 O.2     1  UNL1       -0.4558
     23 C         -29.4600    0.0050   23.8660 C.3     1  UNL1        0.2426
     24 C         -30.0650   -1.3770   23.5730 C.3     1  UNL1        0.2292
     25 O         -30.7290   -1.8780   24.7210 O.3     1  UNL1       -0.2162
     26 C         -26.3540    0.5760   25.7770 C.2     1  UNL1        0.1895
     27 F         -25.8600   -0.6810   25.7950 F       1  UNL1       -0.1996
     28 N         -25.4765   -0.0044   29.2518 N.3     1  UNL1       -0.2638
     29 F         -22.7269    0.0725   30.4878 F       1  UNL1       -0.1803
     30 F         -21.5641    2.3925   25.3150 F       1  UNL1       -0.1935
     31 F         -23.3756    1.5891   24.4658 F       1  UNL1       -0.1935
     32 F         -21.0041    1.6962   27.5361 F       1  UNL1       -0.1867
     33 C         -22.7272    1.9258   25.5489 C.3     1  UNL1        0.3409
     34 C         -24.4073    1.3862   27.2859 C.3     1  UNL1        0.0739
     35 C         -27.5997    1.1522   29.0247 C.3     1  UNL1        0.0188
     36 C         -23.0250    0.3678   29.0840 C.3     1  UNL1        0.3585
     37 C         -26.7917   -0.0788   28.6188 C.3     1  UNL1        0.0726
     38 C         -22.2944    1.6704   27.8172 C.2     1  UNL1        0.2095
     39 C         -23.1885    1.7096   26.8425 C.2     1  UNL1        0.0699
     40 F         -22.2980   -0.6575   28.5536 F       1  UNL1       -0.1803
     41 C         -24.4403    0.1694   28.2485 C.3     1  UNL1        0.1489
     42 N         -22.5564    1.5119   28.9366 N.pl3   1  UNL1       -0.1541
@<TRIPOS>BOND
     1     1    28    1
     2     2     7    1
     3     2     1    1
     4     3     2    2
     5     4     3    1
     6     4     5    2
     7     5     6    1
     8     6     7    2
     9     8     1    1
    10     8     9    1
    11     8    12    1
    12     9    10    1
    13    10    11    1
    14    12    11    1
    15    14    13    1
    16    14    15    1
    17    15    18    2
    18    16    17    1
    19    16    15    1
    20    19    14    2
    21    20    21    2
    22    20    19    1
    23    21    26    1
    24    22    21    1
    25    23    22    1
    26    24    23    1
    27    24    25    1
    28    26    27    1
    29    26    13    2
    30    30    33    1
    31    31    33    1
    32    32    38    1
    33    33    39    1
    34    34    13    1
    35    34    41    1
    36    36    29    1
    37    37    35    1
    38    37    28    1
    39    38    42    1
    40    39    34    1
    41    39    38    2
    42    40    36    1
    43    41    36    1
    44    41    28    1
    45    42    36    1
