@<TRIPOS>MOLECULE
No_3064-gen_results/8p0m/2024-11-27-11-27-31/
 14 15 0 0 0
SMALL
GASTEIGER

@<TRIPOS>ATOM
      1 C         -28.0162   -0.8135   28.8779 C.ar    1  UNL1        0.0375
      2 C         -28.4690   -0.7850   29.8287 C.ar    1  UNL1        0.0031
      3 C         -28.1960    0.3478   28.0550 C.ar    1  UNL1        0.1453
      4 C         -29.0191    1.3501   28.3782 C.ar    1  UNL1        0.0375
      5 C         -29.4107    0.1803   30.3782 C.ar    1  UNL1        0.0002
      6 C         -29.6059    1.2495   29.6193 C.ar    1  UNL1        0.0031
      7 O         -27.5003    0.3576   26.8164 O.3     1  UNL1       -0.4535
      8 C         -26.1366    0.3585   26.7616 C.ar    1  UNL1        0.1461
      9 C         -25.5338    1.1635   25.8167 C.ar    1  UNL1        0.0375
     10 C         -25.2964   -0.4598   27.5936 C.ar    1  UNL1        0.0489
     11 C         -24.0889    1.1654   25.7151 C.ar    1  UNL1        0.0040
     12 C         -23.9149   -0.2626   27.6346 C.ar    1  UNL1        0.0607
     13 C         -23.3102    0.6266   26.7177 C.ar    1  UNL1        0.0116
     14 CL        -22.9325   -0.9640   28.8018 Cl      1  UNL1       -0.0821
@<TRIPOS>BOND
     1     3     7    1
     2     7     8    1
     3    12    14    1
     4     8     9   ar
     5     9    11   ar
     6    11    13   ar
     7    13    12   ar
     8    12    10   ar
     9    10     8   ar
    10     1     2   ar
    11     2     5   ar
    12     5     6   ar
    13     6     4   ar
    14     4     3   ar
    15     3     1   ar
