@<TRIPOS>MOLECULE
No_3067-gen_results/8p0m/2024-11-27-11-27-31/
 24 26 0 0 0
SMALL
GASTEIGER

@<TRIPOS>ATOM
      1 CL        -28.1493   -0.8198   28.9079 Cl      1  UNL1       -0.0823
      2 C         -26.9116   -0.0797   28.9452 C.ar    1  UNL1        0.0572
      3 C         -25.9665   -0.2123   29.6235 C.ar    1  UNL1        0.0123
      4 C         -24.7040    0.5534   29.6218 C.ar    1  UNL1        0.0420
      5 C         -24.6011    1.5437   28.6212 C.ar    1  UNL1       -0.0002
      6 C         -23.4834    2.3847   28.4981 C.3     1  UNL1        0.1511
      7 C         -25.6818    1.7361   27.7552 C.ar    1  UNL1       -0.0180
      8 C         -26.7771    0.9556   27.8653 C.ar    1  UNL1        0.0061
      9 N         -23.0537    2.7280   27.2714 N.2     1  UNL1       -0.2684
     10 C         -24.0511    3.1324   26.3715 C.2     1  UNL1        0.0714
     11 C         -25.2889    2.3594   26.4892 C.3     1  UNL1        0.0670
     12 C         -27.8415    1.0639   26.8334 C.2     1  UNL1       -0.0076
     13 C         -28.0201    2.0729   26.3093 C.2     1  UNL1       -0.0391
     14 C         -26.6342    2.7987   25.7854 C.3     1  UNL1        0.0327
     15 C         -23.6437    0.4462   30.6855 C.3     1  UNL1        0.3408
     16 F         -22.9079   -0.4880   30.4946 F       1  UNL1       -0.1933
     17 F         -23.4434    1.1947   31.3499 F       1  UNL1       -0.1933
     18 C         -29.0068    2.4053   25.2671 C.3     1  UNL1        0.0480
     19 C         -29.8513    3.4695   25.6701 C.2     1  UNL1       -0.0218
     20 C         -29.5235    4.4114   26.4269 C.2     1  UNL1       -0.0042
     21 C         -30.4536    5.5584   26.7544 C.2     1  UNL1       -0.0003
     22 C         -30.0559    6.6622   27.5285 C.2     1  UNL1       -0.0000
     23 C         -28.7263    6.6908   27.9902 C.2     1  UNL1       -0.0000
     24 C         -27.8341    5.6748   27.6922 C.2     1  UNL1       -0.0000
@<TRIPOS>BOND
     1     1     2    1
     2     2     3   ar
     3     3     4   ar
     4     4     5   ar
     5     5     6    1
     6     5     7   ar
     7     2     8   ar
     8     7     8   ar
     9     6     9    1
    10     9    10    2
    11     7    11    1
    12    10    11    1
    13     8    12    1
    14    12    13    2
    15    11    14    1
    16    13    14    1
    17     4    15    1
    18    15    16    1
    19    15    17    1
    20    13    18    1
    21    18    19    1
    22    19    20    2
    23    20    21    1
    24    21    22    2
    25    22    23    1
    26    23    24    2
