@<TRIPOS>MOLECULE
No_307-gen_results/8p0m/2024-11-27-11-27-31/
 15 15 0 0 0
SMALL
GASTEIGER

@<TRIPOS>ATOM
      1 C         -28.0162   -0.8135   28.8779 C.ar    1  UNL1       -0.0003
      2 C         -28.4690   -0.7850   29.8287 C.ar    1  UNL1       -0.0000
      3 C         -26.5042   -0.7777   28.8766 C.ar    1  UNL1       -0.0043
      4 C         -25.8103   -0.8531   30.1028 C.ar    1  UNL1       -0.0221
      5 C         -27.9906   -0.8916   31.2257 C.ar    1  UNL1       -0.0003
      6 C         -26.6042   -0.8676   31.2652 C.ar    1  UNL1       -0.0043
      7 C         -24.3894   -0.8050   30.1639 C.3     1  UNL1        0.0282
      8 C         -23.8172    0.4762   29.9118 C.3     1  UNL1        0.0280
      9 C         -24.1955    1.5984   30.1917 C.3     1  UNL1        0.1126
     10 N         -25.2178    1.7588   31.0540 N.pl3   1  UNL1       -0.2365
     11 C         -25.1684    2.0788   32.1801 C.2     1  UNL1        0.0811
     12 C         -26.1620    2.8269   32.8393 C.2     1  UNL1        0.0622
     13 C         -26.2123    4.0638   32.6194 C.3     1  UNL1        0.3422
     14 F         -26.3744    4.8011   33.5564 F       1  UNL1       -0.1932
     15 F         -25.1083    4.5213   31.9932 F       1  UNL1       -0.1932
@<TRIPOS>BOND
     1     4     7    1
     2     7     8    1
     3     8     9    1
     4     9    10    1
     5    10    11    1
     6    11    12    2
     7    12    13    1
     8    13    14    1
     9    13    15    1
    10     1     2   ar
    11     2     5   ar
    12     5     6   ar
    13     6     4   ar
    14     4     3   ar
    15     3     1   ar
