@<TRIPOS>MOLECULE
outputs/IAG933/test6/raw/output_3071_IAG933_linker_design_.xyz
 43 47 0 0 0
SMALL
GASTEIGER

@<TRIPOS>ATOM
      1 C         -24.8550   -1.0120   30.1430 C.3     1  UNL1        0.0619
      2 C         -24.9730   -2.5050   29.7880 C.2     1  UNL1       -0.0170
      3 C         -23.9060   -3.1730   29.1460 C.2     1  UNL1       -0.0039
      4 C         -23.9890   -4.5490   28.8530 C.2     1  UNL1       -0.0003
      5 C         -25.1370   -5.2800   29.2050 C.2     1  UNL1       -0.0000
      6 C         -26.2320   -4.6110   29.7840 C.2     1  UNL1       -0.0003
      7 C         -26.1550   -3.2320   30.0650 C.2     1  UNL1       -0.0039
      8 C         -25.3870   -0.6790   31.5710 C.3     1  UNL1        0.0809
      9 C         -25.1890    0.7730   32.0280 C.3     1  UNL1        0.0195
     10 C         -25.3360    0.6840   33.5440 C.3     1  UNL1        0.0203
     11 C         -24.8290   -0.7150   33.9050 C.3     1  UNL1        0.0887
     12 N         -24.7580   -1.4810   32.6460 N.3     1  UNL1       -0.2188
     13 C         -25.6880    1.6140   26.4610 C.3     1  UNL1        0.0959
     14 C         -26.2500    2.9200   26.3950 C.2     1  UNL1        0.0590
     15 C         -25.6420    4.0930   27.1230 C.2     1  UNL1        0.2628
     16 N         -25.6140    5.2520   26.4490 N.am    1  UNL1       -0.2000
     17 C         -25.0260    6.4790   26.9630 C.3     1  UNL1        0.1388
     18 O         -25.1430    3.9660   28.2430 O.2     1  UNL1       -0.2686
     19 C         -27.4380    3.0910   25.6450 C.2     1  UNL1        0.1025
     20 N         -28.0750    2.0890   25.0030 N.2     1  UNL1       -0.2118
     21 C         -27.5430    0.8490   25.0790 C.2     1  UNL1        0.2344
     22 O         -28.1930   -0.2080   24.4770 O.2     1  UNL1       -0.4585
     23 C         -29.4600    0.0050   23.8660 C.3     1  UNL1        0.2423
     24 C         -30.0650   -1.3770   23.5730 C.3     1  UNL1        0.2292
     25 O         -30.7290   -1.8780   24.7210 O.3     1  UNL1       -0.2162
     26 C         -26.3540    0.5760   25.7770 C.3     1  UNL1        0.2441
     27 F         -25.8600   -0.6810   25.7950 F       1  UNL1       -0.2265
     28 C         -28.9450    1.2237   29.3728 C.3     1  UNL1        0.0969
     29 C         -27.5771    2.6209   30.8216 C.2     1  UNL1        0.2601
     30 C         -24.2745    0.0163   29.3270 C.2     1  UNL1        0.0004
     31 C         -25.2532    0.7714   28.6736 C.2     1  UNL1        0.0697
     32 N         -26.4922    1.0988   29.3079 N.am    1  UNL1       -0.1656
     33 C         -22.8707    0.2788   29.1135 C.2     1  UNL1        0.0293
     34 N         -26.5273    2.2816   30.0294 N.am    1  UNL1       -0.1033
     35 C         -22.4280    1.1085   27.9447 C.2     1  UNL1        0.1669
     36 O         -27.4245    3.3178   31.8960 O.2     1  UNL1       -0.2717
     37 C         -24.7642    1.2877   27.3930 C.2     1  UNL1        0.0297
     38 F         -22.9649    2.0048   25.8996 F       1  UNL1       -0.2021
     39 C         -27.7786    0.3003   29.1094 C.2     1  UNL1        0.2471
     40 O         -27.9710   -1.0503   28.6944 O.2     1  UNL1       -0.2729
     41 C         -28.8800    2.2699   30.3543 C.3     1  UNL1        0.0981
     42 C         -23.3909    1.5092   27.0711 C.2     1  UNL1        0.1650
     43 F         -21.1663    1.5367   27.6756 F       1  UNL1       -0.2018
@<TRIPOS>BOND
     1     1    30    1
     2     2     7    1
     3     2     1    1
     4     3     2    2
     5     4     3    1
     6     4     5    2
     7     5     6    1
     8     6     7    2
     9     8     1    1
    10     8     9    1
    11     8    12    1
    12     9    10    1
    13    10    11    1
    14    12    11    1
    15    13    37    1
    16    14    13    1
    17    14    15    1
    18    15    18    2
    19    16    17    1
    20    16    15    1
    21    19    14    2
    22    20    21    2
    23    20    19    1
    24    21    26    1
    25    22    21    1
    26    23    22    1
    27    24    23    1
    28    24    25    1
    29    26    27    1
    30    26    13    1
    31    28    41    1
    32    29    36    2
    33    31    32    1
    34    31    30    2
    35    32    34    1
    36    33    30    1
    37    34    29    1
    38    35    33    2
    39    37    31    1
    40    38    42    1
    41    39    32   am
    42    39    28    1
    43    40    39    2
    44    41    29    1
    45    42    37    2
    46    42    35    1
    47    43    35    1
