@<TRIPOS>MOLECULE
outputs/IAG933/test6/raw/output_3074_IAG933_linker_design_.xyz
 44 48 0 0 0
SMALL
GASTEIGER

@<TRIPOS>ATOM
      1 C         -24.8550   -1.0120   30.1430 C.3     1  UNL1        0.0612
      2 C         -24.9730   -2.5050   29.7880 C.2     1  UNL1       -0.0194
      3 C         -23.9060   -3.1730   29.1460 C.2     1  UNL1       -0.0042
      4 C         -23.9890   -4.5490   28.8530 C.2     1  UNL1       -0.0003
      5 C         -25.1370   -5.2800   29.2050 C.2     1  UNL1       -0.0000
      6 C         -26.2320   -4.6110   29.7840 C.2     1  UNL1       -0.0003
      7 C         -26.1550   -3.2320   30.0650 C.2     1  UNL1       -0.0042
      8 C         -25.3870   -0.6790   31.5710 C.3     1  UNL1        0.0786
      9 C         -25.1890    0.7730   32.0280 C.3     1  UNL1        0.0193
     10 C         -25.3360    0.6840   33.5440 C.3     1  UNL1        0.0202
     11 C         -24.8290   -0.7150   33.9050 C.3     1  UNL1        0.0887
     12 N         -24.7580   -1.4810   32.6460 N.3     1  UNL1       -0.2191
     13 C         -25.6880    1.6140   26.4610 C.3     1  UNL1        0.0921
     14 C         -26.2500    2.9200   26.3950 C.2     1  UNL1        0.0589
     15 C         -25.6420    4.0930   27.1230 C.2     1  UNL1        0.2628
     16 N         -25.6140    5.2520   26.4490 N.am    1  UNL1       -0.2000
     17 C         -25.0260    6.4790   26.9630 C.3     1  UNL1        0.1388
     18 O         -25.1430    3.9660   28.2430 O.2     1  UNL1       -0.2686
     19 C         -27.4380    3.0910   25.6450 C.2     1  UNL1        0.1025
     20 N         -28.0750    2.0890   25.0030 N.2     1  UNL1       -0.2118
     21 C         -27.5430    0.8490   25.0790 C.2     1  UNL1        0.2344
     22 O         -28.1930   -0.2080   24.4770 O.2     1  UNL1       -0.4585
     23 C         -29.4600    0.0050   23.8660 C.3     1  UNL1        0.2423
     24 C         -30.0650   -1.3770   23.5730 C.3     1  UNL1        0.2292
     25 O         -30.7290   -1.8780   24.7210 O.3     1  UNL1       -0.2162
     26 C         -26.3540    0.5760   25.7770 C.3     1  UNL1        0.2440
     27 F         -25.8600   -0.6810   25.7950 F       1  UNL1       -0.2265
     28 C         -23.4965    1.8802   25.5178 C.2     1  UNL1        0.0502
     29 C         -25.0706    0.0783   29.1051 C.3     1  UNL1        0.1352
     30 C         -24.1507    1.4901   26.7011 C.2     1  UNL1       -0.0115
     31 F         -21.6467    2.6277   24.5464 F       1  UNL1       -0.1833
     32 C         -23.2581    1.1022   27.8278 C.2     1  UNL1        0.0429
     33 C         -27.1043    1.3732   29.4521 C.2     1  UNL1        0.2440
     34 C         -22.2089    2.0998   25.6195 C.3     1  UNL1        0.3508
     35 C         -27.6744    2.8067   29.8940 C.3     1  UNL1        0.1189
     36 O         -25.4115    4.4392   30.5012 O.3     1  UNL1       -0.3506
     37 C         -26.1826    3.7064   31.7132 C.3     1  UNL1        0.1720
     38 O         -27.7725    0.3797   29.2573 O.2     1  UNL1       -0.2733
     39 C         -26.7621    4.2255   30.3610 C.3     1  UNL1        0.1539
     40 O         -21.3590    1.8619   26.6033 O.2     1  UNL1       -0.4432
     41 C         -21.8589    1.4910   27.7462 C.2     1  UNL1        0.1735
     42 N         -25.7208    1.4588   29.1946 N.am    1  UNL1       -0.2038
     43 C         -23.5489    0.4500   28.8418 C.3     1  UNL1        0.1971
     44 O         -22.7090    0.0061   29.7476 O.3     1  UNL1       -0.2163
@<TRIPOS>BOND
     1     1    29    1
     2     2     7    1
     3     2     1    1
     4     3     2    2
     5     4     3    1
     6     4     5    2
     7     5     6    1
     8     6     7    2
     9     8     1    1
    10     8     9    1
    11     8    12    1
    12     9    10    1
    13    10    11    1
    14    12    11    1
    15    13    30    1
    16    14    13    1
    17    14    15    1
    18    15    18    2
    19    16    17    1
    20    16    15    1
    21    19    14    2
    22    20    21    2
    23    20    19    1
    24    21    26    1
    25    22    21    1
    26    23    22    1
    27    24    23    1
    28    24    25    1
    29    26    27    1
    30    26    13    1
    31    28    34    1
    32    28    30    2
    33    29    42    1
    34    30    32    1
    35    32    43    1
    36    33    35    1
    37    34    31    1
    38    34    40    1
    39    36    37    1
    40    38    33    2
    41    39    35    1
    42    39    36    1
    43    39    37    1
    44    40    41    1
    45    41    32    2
    46    42    33    1
    47    43    29    1
    48    43    44    1
