@<TRIPOS>MOLECULE
outputs/IAG933/test6/raw/output_3076_IAG933_linker_design_.xyz
 42 46 0 0 0
SMALL
GASTEIGER

@<TRIPOS>ATOM
      1 C         -24.8550   -1.0120   30.1430 C.3     1  UNL1        0.0432
      2 C         -24.9730   -2.5050   29.7880 C.2     1  UNL1       -0.0210
      3 C         -23.9060   -3.1730   29.1460 C.2     1  UNL1       -0.0042
      4 C         -23.9890   -4.5490   28.8530 C.2     1  UNL1       -0.0003
      5 C         -25.1370   -5.2800   29.2050 C.2     1  UNL1       -0.0000
      6 C         -26.2320   -4.6110   29.7840 C.2     1  UNL1       -0.0003
      7 C         -26.1550   -3.2320   30.0650 C.2     1  UNL1       -0.0042
      8 C         -25.3870   -0.6790   31.5710 C.3     1  UNL1        0.0874
      9 C         -25.1890    0.7730   32.0280 C.3     1  UNL1        0.1167
     10 C         -25.3360    0.6840   33.5440 C.3     1  UNL1        0.0313
     11 C         -24.8290   -0.7150   33.9050 C.3     1  UNL1        0.0893
     12 N         -24.7580   -1.4810   32.6460 N.3     1  UNL1       -0.2186
     13 C         -25.6880    1.6140   26.4610 C.3     1  UNL1        0.0885
     14 C         -26.2500    2.9200   26.3950 C.2     1  UNL1        0.0564
     15 C         -25.6420    4.0930   27.1230 C.2     1  UNL1        0.2625
     16 N         -25.6140    5.2520   26.4490 N.am    1  UNL1       -0.2000
     17 C         -25.0260    6.4790   26.9630 C.3     1  UNL1        0.1388
     18 O         -25.1430    3.9660   28.2430 O.2     1  UNL1       -0.2687
     19 C         -27.4380    3.0910   25.6450 C.2     1  UNL1        0.1022
     20 N         -28.0750    2.0890   25.0030 N.2     1  UNL1       -0.2119
     21 C         -27.5430    0.8490   25.0790 C.2     1  UNL1        0.2341
     22 O         -28.1930   -0.2080   24.4770 O.2     1  UNL1       -0.4585
     23 C         -29.4600    0.0050   23.8660 C.3     1  UNL1        0.2423
     24 C         -30.0650   -1.3770   23.5730 C.3     1  UNL1        0.2292
     25 O         -30.7290   -1.8780   24.7210 O.3     1  UNL1       -0.2162
     26 C         -26.3540    0.5760   25.7770 C.3     1  UNL1        0.2416
     27 F         -25.8600   -0.6810   25.7950 F       1  UNL1       -0.2268
     28 F         -20.6759    0.3593   28.1845 F       1  UNL1       -0.1865
     29 N         -23.6173    1.6498   27.2249 N.am    1  UNL1       -0.2395
     30 C         -22.7454    1.6881   28.3148 C.3     1  UNL1        0.1859
     31 C         -23.0969    0.3941   29.0417 C.3     1  UNL1        0.1875
     32 C         -26.1779    1.7259   31.3521 C.2     1  UNL1        0.3180
     33 O         -21.5444    1.5604   26.2098 O.3     1  UNL1       -0.4042
     34 F         -22.7250    0.3153   30.1803 F       1  UNL1       -0.2352
     35 C         -22.9721    1.5570   25.9544 C.2     1  UNL1        0.4071
     36 C         -27.8038    1.1492   29.6756 C.3     1  UNL1        0.2556
     37 C         -21.4234    1.4131   27.7232 C.3     1  UNL1        0.3513
     38 O         -26.4424    1.5578   30.0305 O.3     1  UNL1       -0.4444
     39 C         -24.6279    0.0136   28.8815 C.3     1  UNL1        0.0587
     40 O         -26.7490    2.5677   32.0048 O.2     1  UNL1       -0.2501
     41 C         -24.9209    1.1174   27.7018 C.3     1  UNL1        0.0892
     42 O         -23.5081    1.4329   24.8787 O.2     1  UNL1       -0.2261
@<TRIPOS>BOND
     1     1     2    1
     2     2     7    1
     3     3     2    2
     4     4     3    1
     5     4     5    2
     6     5     6    1
     7     6     7    2
     8     8     1    1
     9     8     9    1
    10     8    12    1
    11     9    32    1
    12     9    10    1
    13    10    11    1
    14    12    11    1
    15    13    14    1
    16    13    41    1
    17    14    15    1
    18    15    18    2
    19    16    17    1
    20    16    15    1
    21    19    14    2
    22    20    21    2
    23    20    19    1
    24    21    26    1
    25    22    21    1
    26    23    22    1
    27    24    23    1
    28    24    25    1
    29    26    27    1
    30    26    13    1
    31    30    29    1
    32    30    31    1
    33    31    34    1
    34    32    40    2
    35    33    37    1
    36    35    33    1
    37    35    29   am
    38    36    38    1
    39    37    28    1
    40    37    30    1
    41    38    32    1
    42    39    31    1
    43    39     1    1
    44    41    29    1
    45    41    39    1
    46    42    35    2
