@<TRIPOS>MOLECULE
No_3078-gen_results/8p0m/2024-11-27-11-27-31/
 18 20 0 0 0
SMALL
GASTEIGER

@<TRIPOS>ATOM
      1 C         -28.0162   -0.8135   28.8779 C.3     1  UNL1        0.0990
      2 C         -27.0636   -0.1189   28.6079 C.ar    1  UNL1       -0.0075
      3 C         -26.8756    1.1325   28.9134 C.ar    1  UNL1        0.0084
      4 C         -25.6883    1.9515   28.5672 C.ar    1  UNL1       -0.0007
      5 C         -24.6394    1.2834   27.8753 C.ar    1  UNL1        0.0433
      6 C         -24.8181   -0.0802   27.6166 C.ar    1  UNL1        0.0008
      7 C         -25.9311   -0.7717   27.9696 C.ar    1  UNL1       -0.0033
      8 N         -28.7345   -0.6152   30.0397 N.3     1  UNL1       -0.2675
      9 C         -29.8769   -1.3513   30.4487 C.3     1  UNL1        0.0724
     10 C         -23.4482    1.9714   27.4807 C.3     1  UNL1        0.3410
     11 F         -22.4673    1.5023   27.6162 F       1  UNL1       -0.1933
     12 F         -23.6712    3.0178   26.7511 F       1  UNL1       -0.1933
     13 C         -30.4407   -1.0739   31.6709 C.3     1  UNL1        0.0174
     14 C         -29.9048   -0.0283   32.4039 C.3     1  UNL1        0.0029
     15 C         -28.7962    0.6747   32.0624 C.3     1  UNL1        0.0192
     16 C         -28.1837    0.3580   30.8686 C.3     1  UNL1        0.0948
     17 C         -27.2313    1.2667   30.3169 C.3     1  UNL1        0.1974
     18 F         -26.9124    2.3445   31.0004 F       1  UNL1       -0.2310
@<TRIPOS>BOND
     1     1     8    1
     2     8     9    1
     3     5    10    1
     4    10    11    1
     5    10    12    1
     6    13    14    1
     7     8    16    1
     8    15    16    1
     9     3    17    1
    10    16    17    1
    11    17    18    1
    12     1     2    1
    13     9    13    1
    14    14    15    1
    15     2     3   ar
    16     3     4   ar
    17     4     5   ar
    18     5     6   ar
    19     6     7   ar
    20     7     2   ar
