@<TRIPOS>MOLECULE
No_3086-gen_results/8p0m/2024-11-27-11-27-31/
 26 28 0 0 0
SMALL
GASTEIGER

@<TRIPOS>ATOM
      1 F         -28.0727   -1.2542   28.5316 F       1  UNL1       -0.2010
      2 C         -27.3591   -0.3792   28.7224 C.ar    1  UNL1        0.1738
      3 C         -26.8100    0.1885   27.6513 C.ar    1  UNL1        0.1694
      4 C         -25.6015    0.9529   27.6828 C.ar    1  UNL1        0.0252
      5 C         -25.0371    1.2332   29.0000 C.ar    1  UNL1        0.0531
      6 C         -25.6162    0.5855   30.0870 C.ar    1  UNL1       -0.0051
      7 C         -26.6061   -0.2296   29.9624 C.ar    1  UNL1        0.0297
      8 CL        -23.7078    2.2692   29.0985 Cl      1  UNL1       -0.0828
      9 O         -27.2585    0.0305   26.3891 O.3     1  UNL1       -0.4492
     10 C         -28.3091    0.7669   26.1046 C.ar    1  UNL1        0.1726
     11 C         -28.9691    0.4136   24.9577 C.ar    1  UNL1        0.1744
     12 C         -30.1873    1.1366   24.5981 C.ar    1  UNL1        0.0328
     13 C         -30.4975    2.3227   25.3417 C.ar    1  UNL1        0.0025
     14 C         -28.7685    1.9300   26.7745 C.ar    1  UNL1        0.0398
     15 C         -29.7862    2.6685   26.4420 C.ar    1  UNL1        0.0033
     16 F         -28.7311   -0.6195   24.2516 F       1  UNL1       -0.2009
     17 C         -25.0383    1.6747   26.5412 C.3     1  UNL1        0.0352
     18 C         -24.8995    0.8173   31.4331 C.3     1  UNL1        0.0532
     19 C         -25.2024    1.9219   32.0963 C.2     1  UNL1       -0.0214
     20 C         -26.2210    2.0563   33.1688 C.2     1  UNL1       -0.0042
     21 C         -26.9749    0.9269   33.4089 C.ar    1  UNL1       -0.0003
     22 C         -28.0849    1.0451   34.2466 C.ar    1  UNL1       -0.0000
     23 C         -28.9288   -0.0036   34.3968 C.ar    1  UNL1       -0.0000
     24 C         -28.7156   -1.1884   33.6248 C.ar    1  UNL1       -0.0000
     25 C         -27.6505   -1.2518   32.7368 C.ar    1  UNL1       -0.0000
     26 C         -26.7408   -0.2289   32.6848 C.ar    1  UNL1       -0.0000
@<TRIPOS>BOND
     1     1     2    1
     2     5     8    1
     3     3     9    1
     4     9    10    1
     5    11    16    1
     6     4    17    1
     7     6    18    1
     8    18    19    1
     9    19    20    2
    10    20    21    1
    11     2     3   ar
    12     3     4   ar
    13     4     5   ar
    14     5     6   ar
    15     6     7   ar
    16     7     2   ar
    17    10    11   ar
    18    11    12   ar
    19    12    13   ar
    20    13    15   ar
    21    15    14   ar
    22    14    10   ar
    23    21    22   ar
    24    22    23   ar
    25    23    24   ar
    26    24    25   ar
    27    25    26   ar
    28    26    21   ar
