@<TRIPOS>MOLECULE
outputs/IAG933/test6/raw/output_3088_IAG933_linker_design_.xyz
 46 50 0 0 0
SMALL
GASTEIGER

@<TRIPOS>ATOM
      1 C         -24.8550   -1.0120   30.1430 C.3     1  UNL1        0.1111
      2 C         -24.9730   -2.5050   29.7880 C.2     1  UNL1       -0.0030
      3 C         -23.9060   -3.1730   29.1460 C.2     1  UNL1       -0.0026
      4 C         -23.9890   -4.5490   28.8530 C.2     1  UNL1       -0.0003
      5 C         -25.1370   -5.2800   29.2050 C.2     1  UNL1       -0.0000
      6 C         -26.2320   -4.6110   29.7840 C.2     1  UNL1       -0.0003
      7 C         -26.1550   -3.2320   30.0650 C.2     1  UNL1       -0.0026
      8 C         -25.3870   -0.6790   31.5710 C.3     1  UNL1        0.0950
      9 C         -25.1890    0.7730   32.0280 C.3     1  UNL1        0.0209
     10 C         -25.3360    0.6840   33.5440 C.3     1  UNL1        0.0203
     11 C         -24.8290   -0.7150   33.9050 C.3     1  UNL1        0.0888
     12 N         -24.7580   -1.4810   32.6460 N.3     1  UNL1       -0.2174
     13 C         -25.6880    1.6140   26.4610 C.2     1  UNL1        0.0385
     14 C         -26.2500    2.9200   26.3950 C.2     1  UNL1        0.0764
     15 C         -25.6420    4.0930   27.1230 C.2     1  UNL1        0.2664
     16 N         -25.6140    5.2520   26.4490 N.am    1  UNL1       -0.1997
     17 C         -25.0260    6.4790   26.9630 C.3     1  UNL1        0.1388
     18 O         -25.1430    3.9660   28.2430 O.2     1  UNL1       -0.2683
     19 C         -27.4380    3.0910   25.6450 C.2     1  UNL1        0.1067
     20 N         -28.0750    2.0890   25.0030 N.2     1  UNL1       -0.2081
     21 C         -27.5430    0.8490   25.0790 C.2     1  UNL1        0.2533
     22 O         -28.1930   -0.2080   24.4770 O.2     1  UNL1       -0.4558
     23 C         -29.4600    0.0050   23.8660 C.3     1  UNL1        0.2426
     24 C         -30.0650   -1.3770   23.5730 C.3     1  UNL1        0.2292
     25 O         -30.7290   -1.8780   24.7210 O.3     1  UNL1       -0.2162
     26 C         -26.3540    0.5760   25.7770 C.2     1  UNL1        0.1929
     27 F         -25.8600   -0.6810   25.7950 F       1  UNL1       -0.1992
     28 C         -28.7988    0.0879   27.3722 C.2     1  UNL1       -0.0038
     29 C         -26.7046    0.2654   28.7855 C.3     1  UNL1        0.0412
     30 C         -29.3945    1.5326   30.6799 C.3     1  UNL1        0.0097
     31 C         -21.9956    0.4050   28.4450 C.3     1  UNL1        0.1653
     32 C         -30.3389    1.6725   28.4391 C.3     1  UNL1        0.2790
     33 CL        -22.8031    2.2954   25.4330 Cl      1  UNL1       -0.0773
     34 C         -27.4513    0.0167   29.7901 C.3     1  UNL1        0.0102
     35 C         -29.5099    1.5462   32.2021 C.3     1  UNL1        0.0005
     36 F         -30.4768    2.1502   27.2104 F       1  UNL1       -0.1999
     37 C         -23.3253    1.6800   26.9310 C.3     1  UNL1        0.2182
     38 C         -22.8384    0.4373   29.6999 C.3     1  UNL1        0.1231
     39 N         -24.2768    0.0277   29.2922 N.pl3   1  UNL1       -0.3051
     40 F         -31.4976    1.0872   28.6199 F       1  UNL1       -0.1999
     41 C         -24.5996    1.2060   27.4252 C.2     1  UNL1        0.0319
     42 C         -25.2071    0.5137   28.5013 C.2     1  UNL1        0.0246
     43 C         -28.6514    0.6950   29.7867 C.3     1  UNL1        0.0240
     44 C         -29.2000    0.8264   28.4455 C.2     1  UNL1        0.0152
     45 C         -30.2506    2.3885   29.7669 C.3     1  UNL1        0.0711
     46 O         -22.2495    1.6708   27.8579 O.3     1  UNL1       -0.3352
@<TRIPOS>BOND
     1     1     2    1
     2     2     7    1
     3     3     2    2
     4     4     3    1
     5     4     5    2
     6     5     6    1
     7     6     7    2
     8     8     1    1
     9     8     9    1
    10     8    12    1
    11     9    10    1
    12    10    11    1
    13    12    11    1
    14    13    41    1
    15    14    13    1
    16    14    15    1
    17    15    18    2
    18    16    17    1
    19    16    15    1
    20    19    14    2
    21    20    21    2
    22    20    19    1
    23    21    26    1
    24    22    21    1
    25    23    22    1
    26    24    23    1
    27    24    25    1
    28    26    27    1
    29    26    13    2
    30    28    44    2
    31    29    34    1
    32    30    35    1
    33    31    38    1
    34    32    44    1
    35    32    40    1
    36    32    45    1
    37    36    32    1
    38    37    33    1
    39    37    41    1
    40    37    46    1
    41    39    38    1
    42    39     1    1
    43    41    42    2
    44    42    29    1
    45    42    39    1
    46    43    34    1
    47    43    30    1
    48    44    43    1
    49    45    30    1
    50    46    31    1
