@<TRIPOS>MOLECULE
No_3089-gen_results/8p0m/2024-11-27-11-27-31/
 15 17 0 0 0
SMALL
GASTEIGER

@<TRIPOS>ATOM
      1 C         -28.0162   -0.8135   28.8779 C.ar    1  UNL1        0.0191
      2 C         -27.0636   -0.1190   28.6079 C.ar    1  UNL1        0.0812
      3 C         -26.8756    1.1325   28.9134 C.ar    1  UNL1        0.0177
      4 C         -27.9014    1.8066   29.6436 C.ar    1  UNL1        0.0015
      5 C         -28.9449    1.0388   30.0360 C.ar    1  UNL1        0.0001
      6 C         -29.0273   -0.2890   29.7051 C.ar    1  UNL1        0.0015
      7 C         -25.6959    1.9505   28.4764 C.ar    1  UNL1        0.0030
      8 C         -25.0886    1.8635   27.5900 C.ar    1  UNL1        0.0178
      9 C         -23.8796    2.3891   27.2214 C.ar    1  UNL1        0.0024
     10 C         -22.6223    1.9732   27.1591 C.ar    1  UNL1        0.0115
     11 C         -22.3248    0.9247   28.0860 C.ar    1  UNL1        0.0592
     12 C         -23.1844    0.0264   28.6566 C.ar    1  UNL1        0.0305
     13 C         -24.4936    0.3686   28.0757 C.ar    1  UNL1        0.0821
     14 N         -25.7424   -0.6527   28.0726 N.ar    1  UNL1       -0.2453
     15 CL        -20.5939    0.5466   28.3014 Cl      1  UNL1       -0.0822
@<TRIPOS>BOND
     1    11    15    1
     2     3     7   ar
     3     7     8   ar
     4    13    14   ar
     5    14     2   ar
     6     1     2   ar
     7     2     3   ar
     8     3     4   ar
     9     4     5   ar
    10     5     6   ar
    11     6     1   ar
    12     8     9   ar
    13     9    10   ar
    14    10    11   ar
    15    11    12   ar
    16    12    13   ar
    17    13     8   ar
