@<TRIPOS>MOLECULE
outputs/IAG933/test6/raw/output_309_IAG933_linker_design_.xyz
 42 45 0 0 0
SMALL
GASTEIGER

@<TRIPOS>ATOM
      1 C         -24.8550   -1.0120   30.1430 C.3     1  UNL1        0.1002
      2 C         -24.9730   -2.5050   29.7880 C.2     1  UNL1       -0.0139
      3 C         -23.9060   -3.1730   29.1460 C.2     1  UNL1       -0.0038
      4 C         -23.9890   -4.5490   28.8530 C.2     1  UNL1       -0.0003
      5 C         -25.1370   -5.2800   29.2050 C.2     1  UNL1       -0.0000
      6 C         -26.2320   -4.6110   29.7840 C.2     1  UNL1       -0.0003
      7 C         -26.1550   -3.2320   30.0650 C.2     1  UNL1       -0.0038
      8 C         -25.3870   -0.6790   31.5710 C.3     1  UNL1        0.0841
      9 C         -25.1890    0.7730   32.0280 C.3     1  UNL1        0.0196
     10 C         -25.3360    0.6840   33.5440 C.3     1  UNL1        0.0203
     11 C         -24.8290   -0.7150   33.9050 C.3     1  UNL1        0.0887
     12 N         -24.7580   -1.4810   32.6460 N.3     1  UNL1       -0.2187
     13 C         -25.6880    1.6140   26.4610 C.2     1  UNL1        0.0523
     14 C         -26.2500    2.9200   26.3950 C.2     1  UNL1        0.0778
     15 C         -25.6420    4.0930   27.1230 C.2     1  UNL1        0.2665
     16 N         -25.6140    5.2520   26.4490 N.am    1  UNL1       -0.1997
     17 C         -25.0260    6.4790   26.9630 C.3     1  UNL1        0.1388
     18 O         -25.1430    3.9660   28.2430 O.2     1  UNL1       -0.2683
     19 C         -27.4380    3.0910   25.6450 C.2     1  UNL1        0.1068
     20 N         -28.0750    2.0890   25.0030 N.2     1  UNL1       -0.2081
     21 C         -27.5430    0.8490   25.0790 C.2     1  UNL1        0.2533
     22 O         -28.1930   -0.2080   24.4770 O.2     1  UNL1       -0.4558
     23 C         -29.4600    0.0050   23.8660 C.3     1  UNL1        0.2426
     24 C         -30.0650   -1.3770   23.5730 C.3     1  UNL1        0.2292
     25 O         -30.7290   -1.8780   24.7210 O.3     1  UNL1       -0.2162
     26 C         -26.3540    0.5760   25.7770 C.2     1  UNL1        0.1943
     27 F         -25.8600   -0.6810   25.7950 F       1  UNL1       -0.1992
     28 C         -25.4847   -0.0837   29.0569 C.2     1  UNL1        0.1815
     29 C         -23.0747    1.8592   25.3942 C.2     1  UNL1        0.4011
     30 O         -23.1647    3.0446   25.2718 O.2     1  UNL1       -0.2353
     31 O         -26.7061   -0.0826   28.8316 O.2     1  UNL1       -0.2908
     32 F         -22.6205    1.1179   24.5187 F       1  UNL1       -0.1430
     33 C         -24.5232    1.2310   27.1704 C.2     1  UNL1        0.0681
     34 C         -23.3156    0.6551   29.2252 C.2     1  UNL1        0.1860
     35 N         -23.2529    1.4281   26.5686 N.am    1  UNL1       -0.2055
     36 F         -23.0241    1.8314   29.8268 F       1  UNL1       -0.2005
     37 O         -21.4587   -1.2210   29.5474 O.2     1  UNL1       -0.2807
     38 C         -24.5619    0.6731   28.4085 C.2     1  UNL1        0.0799
     39 C         -21.9493    1.6727   27.3146 C.2     1  UNL1        0.1199
     40 C         -21.2215    0.4561   27.9374 C.2     1  UNL1        0.2517
     41 O         -19.9182    0.2114   28.5313 O.2     1  UNL1       -0.2817
     42 C         -22.1715   -0.2596   28.9221 C.2     1  UNL1        0.2628
@<TRIPOS>BOND
     1     1    28    1
     2     2     7    1
     3     2     1    1
     4     3     2    2
     5     4     3    1
     6     4     5    2
     7     5     6    1
     8     6     7    2
     9     8     1    1
    10     8     9    1
    11     8    12    1
    12     9    10    1
    13    10    11    1
    14    12    11    1
    15    13    33    1
    16    14    13    1
    17    14    15    1
    18    15    18    2
    19    16    17    1
    20    16    15    1
    21    19    14    2
    22    20    21    2
    23    20    19    1
    24    21    26    1
    25    22    21    1
    26    23    22    1
    27    24    23    1
    28    24    25    1
    29    26    27    1
    30    26    13    2
    31    29    35   am
    32    30    29    2
    33    31    28    2
    34    32    29    1
    35    33    38    2
    36    34    36    1
    37    35    33    1
    38    35    39    1
    39    38    28    1
    40    38    34    1
    41    39    40    2
    42    40    41    1
    43    40    42    1
    44    42    34    2
    45    42    37    1
