@<TRIPOS>MOLECULE
No_3090-gen_results/8p0m/2024-11-27-11-27-31/
 21 23 0 0 0
SMALL
GASTEIGER

@<TRIPOS>ATOM
      1 C         -28.0162   -0.8135   28.8779 C.ar    1  UNL1        0.0068
      2 C         -27.0636   -0.1189   28.6079 C.ar    1  UNL1        0.0064
      3 C         -27.0010    0.6913   27.4910 C.ar    1  UNL1        0.0756
      4 C         -25.7770    1.0214   26.9135 C.ar    1  UNL1        0.0064
      5 C         -24.5088    0.7364   27.5686 C.ar    1  UNL1        0.0002
      6 C         -24.5930   -0.0361   28.7390 C.ar    1  UNL1        0.0000
      7 C         -25.8114   -0.4771   29.1584 C.ar    1  UNL1        0.0002
      8 C         -28.1069   -1.4831   30.2046 C.ar    1  UNL1        0.0798
      9 C         -26.9076   -1.8560   30.8505 C.ar    1  UNL1        0.0066
     10 C         -25.7217   -1.3535   30.3451 C.ar    1  UNL1        0.0002
     11 C         -23.2385   -0.3070   29.3552 C.ar    1  UNL1        0.0000
     12 C         -22.0883    0.2455   28.8761 C.ar    1  UNL1        0.0000
     13 C         -22.1278    1.1026   27.7552 C.ar    1  UNL1        0.0000
     14 C         -23.3125    1.4202   27.1157 C.ar    1  UNL1        0.0000
     15 C         -28.2237    1.0427   26.7512 C.2     1  UNL1        0.3413
     16 O         -29.0959    1.4008   27.1916 O.2     1  UNL1       -0.2449
     17 O         -28.2322    0.4398   25.4719 O.3     1  UNL1       -0.4413
     18 C         -29.3823   -2.0491   30.6631 C.2     1  UNL1        0.3878
     19 O         -29.4951   -3.1223   31.0179 O.co2   1  UNL1       -0.2406
     20 O         -30.4143   -1.2683   30.6009 O.co2   1  UNL1       -0.2406
     21 C         -29.3908    0.1448   24.8535 C.3     1  UNL1        0.2560
@<TRIPOS>BOND
     1     3    15    1
     2    15    16    2
     3    15    17    1
     4     8    18    1
     5    18    19   ar
     6    18    20   ar
     7    17    21    1
     8     2     3   ar
     9     3     4   ar
    10     4     5   ar
    11     6     7   ar
    12     1     2   ar
    13     2     7   ar
    14     7    10   ar
    15    10     9   ar
    16     9     8   ar
    17     8     1   ar
    18     5     6   ar
    19     6    11   ar
    20    11    12   ar
    21    12    13   ar
    22    13    14   ar
    23    14     5   ar
