@<TRIPOS>MOLECULE
No_3091-gen_results/8p0m/2024-11-27-11-27-31/
 11 11 0 0 0
SMALL
GASTEIGER

@<TRIPOS>ATOM
      1 C         -28.0162   -0.8135   28.8779 C.ar    1  UNL1        0.0128
      2 C         -28.4690   -0.7850   29.8287 C.ar    1  UNL1        0.0578
      3 C         -26.5042   -0.7777   28.8766 C.ar    1  UNL1        0.0209
      4 C         -25.8103   -0.8531   30.1028 C.ar    1  UNL1        0.1251
      5 C         -27.9906   -0.8916   31.2257 C.ar    1  UNL1        0.0128
      6 C         -26.6042   -0.8676   31.2652 C.ar    1  UNL1        0.0209
      7 CL        -30.2656   -0.7636   29.6521 Cl      1  UNL1       -0.0822
      8 S         -24.1162   -0.8403   30.1584 S.O2    1  UNL1        0.0935
      9 O         -23.7076    0.2257   30.9591 O.2     1  UNL1       -0.1503
     10 O         -23.6487   -0.6129   28.7322 O.2     1  UNL1       -0.1503
     11 N         -23.6221   -2.2339   30.6768 N.3     1  UNL1        0.0392
@<TRIPOS>BOND
     1     2     7    1
     2     4     8    1
     3     8     9    2
     4     8    10    2
     5     8    11    1
     6     1     2   ar
     7     2     5   ar
     8     5     6   ar
     9     6     4   ar
    10     4     3   ar
    11     3     1   ar
