@<TRIPOS>MOLECULE
No_3095-gen_results/8p0m/2024-11-27-11-27-31/
 28 30 0 0 0
SMALL
GASTEIGER

@<TRIPOS>ATOM
      1 C         -28.0162   -0.8135   28.8779 C.2     1  UNL1        0.0129
      2 C         -27.0636   -0.1190   28.6079 C.3     1  UNL1        0.1604
      3 F         -27.0788    0.9846   29.1738 F       1  UNL1       -0.2348
      4 C         -25.6585   -0.7381   28.9306 C.3     1  UNL1        0.0633
      5 C         -27.0246    0.2131   27.0611 C.3     1  UNL1        0.0609
      6 C         -24.5632   -0.0543   28.6394 C.ar    1  UNL1       -0.0202
      7 C         -23.2527   -0.3304   29.2255 C.ar    1  UNL1        0.0380
      8 C         -22.1169    0.3790   28.7896 C.ar    1  UNL1        0.0026
      9 C         -22.1953    1.3041   27.7606 C.ar    1  UNL1       -0.0045
     10 C         -23.4652    1.6835   27.2320 C.ar    1  UNL1       -0.0261
     11 C         -24.5383    0.9963   27.6679 C.ar    1  UNL1       -0.0295
     12 C         -28.1714    0.5903   26.4503 C.ar    1  UNL1       -0.0191
     13 C         -25.7557    0.3348   26.3867 C.3     1  UNL1        0.0331
     14 C         -27.9346   -1.4846   30.1868 C.2     1  UNL1        0.0842
     15 C         -28.9161   -2.5507   30.5359 C.2     1  UNL1        0.3877
     16 O         -28.6462   -3.3333   31.2254 O.co2   1  UNL1       -0.2406
     17 O         -30.0058   -2.4777   29.8811 O.co2   1  UNL1       -0.2406
     18 C         -28.4053    0.0732   25.1654 C.ar    1  UNL1       -0.0042
     19 C         -29.6070    0.1083   24.5114 C.ar    1  UNL1       -0.0001
     20 C         -29.2691    1.2357   27.0443 C.ar    1  UNL1        0.0024
     21 C         -30.4957    1.3745   26.4065 C.ar    1  UNL1        0.0795
     22 C         -30.6311    0.8560   25.1053 C.ar    1  UNL1        0.0066
     23 C         -23.5734    2.7082   26.1828 C.3     1  UNL1        0.0307
     24 C         -31.6269    2.0612   27.0281 C.2     1  UNL1        0.3877
     25 O         -31.5499    2.8981   27.8078 O.co2   1  UNL1       -0.2406
     26 O         -32.7916    1.6211   26.6541 O.co2   1  UNL1       -0.2406
     27 C         -23.1383   -1.2796   30.3083 C.2     1  UNL1        0.2338
     28 O         -23.7466   -0.9575   31.3545 O.2     1  UNL1       -0.2832
@<TRIPOS>BOND
     1     1     2    1
     2     2     3    1
     3     2     4    1
     4     2     5    1
     5     4     6    1
     6     5    12    1
     7     5    13    1
     8    11    13    1
     9     1    14    2
    10    14    15    1
    11    15    16   ar
    12    15    17   ar
    13    10    23    1
    14    21    24    1
    15    24    25   ar
    16    24    26   ar
    17     7    27    1
    18    27    28    2
    19     6     7   ar
    20     7     8   ar
    21     8     9   ar
    22     9    10   ar
    23    10    11   ar
    24    11     6   ar
    25    12    18   ar
    26    18    19   ar
    27    19    22   ar
    28    22    21   ar
    29    21    20   ar
    30    20    12   ar
