@<TRIPOS>MOLECULE
outputs/IAG933/test6/raw/output_3099_IAG933_linker_design_.xyz
 44 48 0 0 0
SMALL
GASTEIGER

@<TRIPOS>ATOM
      1 C         -24.8550   -1.0120   30.1430 C.3     1  UNL1        0.0437
      2 C         -24.9730   -2.5050   29.7880 C.2     1  UNL1       -0.0208
      3 C         -23.9060   -3.1730   29.1460 C.2     1  UNL1       -0.0042
      4 C         -23.9890   -4.5490   28.8530 C.2     1  UNL1       -0.0003
      5 C         -25.1370   -5.2800   29.2050 C.2     1  UNL1       -0.0000
      6 C         -26.2320   -4.6110   29.7840 C.2     1  UNL1       -0.0003
      7 C         -26.1550   -3.2320   30.0650 C.2     1  UNL1       -0.0042
      8 C         -25.3870   -0.6790   31.5710 C.3     1  UNL1        0.0772
      9 C         -25.1890    0.7730   32.0280 C.3     1  UNL1        0.0205
     10 C         -25.3360    0.6840   33.5440 C.3     1  UNL1        0.0203
     11 C         -24.8290   -0.7150   33.9050 C.3     1  UNL1        0.0887
     12 N         -24.7580   -1.4810   32.6460 N.3     1  UNL1       -0.2191
     13 C         -25.6880    1.6140   26.4610 C.3     1  UNL1        0.1450
     14 C         -26.2500    2.9200   26.3950 C.2     1  UNL1        0.0731
     15 C         -25.6420    4.0930   27.1230 C.2     1  UNL1        0.2640
     16 N         -25.6140    5.2520   26.4490 N.am    1  UNL1       -0.1999
     17 C         -25.0260    6.4790   26.9630 C.3     1  UNL1        0.1388
     18 O         -25.1430    3.9660   28.2430 O.2     1  UNL1       -0.2686
     19 C         -27.4380    3.0910   25.6450 C.2     1  UNL1        0.1038
     20 N         -28.0750    2.0890   25.0030 N.2     1  UNL1       -0.2118
     21 C         -27.5430    0.8490   25.0790 C.2     1  UNL1        0.2358
     22 O         -28.1930   -0.2080   24.4770 O.2     1  UNL1       -0.4585
     23 C         -29.4600    0.0050   23.8660 C.3     1  UNL1        0.2423
     24 C         -30.0650   -1.3770   23.5730 C.3     1  UNL1        0.2292
     25 O         -30.7290   -1.8780   24.7210 O.3     1  UNL1       -0.2162
     26 C         -26.3540    0.5760   25.7770 C.3     1  UNL1        0.2581
     27 F         -25.8600   -0.6810   25.7950 F       1  UNL1       -0.2251
     28 C         -26.5747    4.7454   32.3786 C.2     1  UNL1       -0.0043
     29 C         -27.2756    5.3351   33.4353 C.2     1  UNL1       -0.0003
     30 C         -23.1221    1.6815   28.5537 C.3     1  UNL1        0.1394
     31 C         -25.2564    5.4721   34.6997 C.2     1  UNL1       -0.0003
     32 C         -21.9964    2.0441   26.4420 C.2     1  UNL1        0.0215
     33 C         -24.0236    0.9869   27.9247 C.3     1  UNL1        0.1229
     34 F         -23.4080    1.7801   24.5490 F       1  UNL1       -0.1882
     35 C         -26.6167    5.5945   34.6125 C.2     1  UNL1       -0.0000
     36 O         -23.5449    2.1924   29.7772 O.3     1  UNL1       -0.3541
     37 C         -23.2417    1.7882   25.8667 C.2     1  UNL1        0.1881
     38 C         -25.2591    4.3980   32.5834 C.2     1  UNL1       -0.0221
     39 C         -25.3712    2.1763   31.4069 C.3     1  UNL1        0.0354
     40 C         -24.5259    3.3814   31.8337 C.3     1  UNL1        0.0289
     41 C         -24.8713    1.8218   30.0233 C.3     1  UNL1        0.1424
     42 C         -24.5806    4.9168   33.6488 C.2     1  UNL1       -0.0043
     43 N         -24.3089    1.4996   26.7067 N.pl3   1  UNL1       -0.2776
     44 C         -21.9369    1.9490   27.8435 C.3     1  UNL1        0.0610
@<TRIPOS>BOND
     1     2     7    1
     2     2     1    1
     3     3     2    2
     4     4     3    1
     5     4     5    2
     6     5     6    1
     7     6     7    2
     8     8     1    1
     9     8     9    1
    10     8    12    1
    11     9    39    1
    12     9    10    1
    13    10    11    1
    14    12    11    1
    15    13    43    1
    16    14    13    1
    17    14    15    1
    18    15    18    2
    19    16    17    1
    20    16    15    1
    21    19    14    2
    22    20    21    2
    23    20    19    1
    24    21    26    1
    25    22    21    1
    26    23    22    1
    27    24    23    1
    28    24    25    1
    29    26    27    1
    30    26    13    1
    31    28    38    2
    32    28    29    1
    33    29    35    2
    34    30    36    1
    35    32    44    1
    36    33    30    1
    37    34    37    1
    38    35    31    1
    39    36    41    1
    40    37    32    2
    41    37    43    1
    42    38    42    1
    43    39    41    1
    44    39    40    1
    45    40    38    1
    46    42    31    2
    47    43    33    1
    48    44    30    1
