@<TRIPOS>MOLECULE
No_3100-gen_results/8p0m/2024-11-27-11-27-31/
 9 9 0 0 0
SMALL
GASTEIGER

@<TRIPOS>ATOM
      1 C         -28.0162   -0.8135   28.8779 C.ar    1  UNL1       -0.0000
      2 C         -28.4690   -0.7850   29.8287 C.ar    1  UNL1       -0.0000
      3 C         -26.5455   -0.8762   28.8500 C.ar    1  UNL1       -0.0000
      4 C         -25.8041   -1.0324   30.0571 C.ar    1  UNL1       -0.0003
      5 C         -27.9437   -0.9869   31.2075 C.ar    1  UNL1       -0.0000
      6 C         -26.5825   -1.0386   31.2231 C.ar    1  UNL1       -0.0000
      7 C         -24.3810   -1.1082   30.0855 C.2     1  UNL1       -0.0046
      8 C         -23.6421   -1.1177   29.0487 C.2     1  UNL1       -0.0258
      9 C         -22.1825   -0.9779   29.1035 C.3     1  UNL1        0.0307
@<TRIPOS>BOND
     1     4     7    1
     2     7     8    2
     3     8     9    1
     4     1     2   ar
     5     2     5   ar
     6     5     6   ar
     7     6     4   ar
     8     4     3   ar
     9     3     1   ar
