@<TRIPOS>MOLECULE
outputs/IAG933/test6/raw/output_3102_IAG933_linker_design_.xyz
 44 47 0 0 0
SMALL
GASTEIGER

@<TRIPOS>ATOM
      1 C         -24.8550   -1.0120   30.1430 C.3     1  UNL1        0.1167
      2 C         -24.9730   -2.5050   29.7880 C.2     1  UNL1       -0.0125
      3 C         -23.9060   -3.1730   29.1460 C.2     1  UNL1       -0.0038
      4 C         -23.9890   -4.5490   28.8530 C.2     1  UNL1       -0.0003
      5 C         -25.1370   -5.2800   29.2050 C.2     1  UNL1       -0.0000
      6 C         -26.2320   -4.6110   29.7840 C.2     1  UNL1       -0.0003
      7 C         -26.1550   -3.2320   30.0650 C.2     1  UNL1       -0.0038
      8 C         -25.3870   -0.6790   31.5710 C.3     1  UNL1        0.0855
      9 C         -25.1890    0.7730   32.0280 C.3     1  UNL1        0.0197
     10 C         -25.3360    0.6840   33.5440 C.3     1  UNL1        0.0203
     11 C         -24.8290   -0.7150   33.9050 C.3     1  UNL1        0.0887
     12 N         -24.7580   -1.4810   32.6460 N.3     1  UNL1       -0.2186
     13 C         -25.6880    1.6140   26.4610 C.2     1  UNL1        0.1086
     14 C         -26.2500    2.9200   26.3950 C.2     1  UNL1        0.0896
     15 C         -25.6420    4.0930   27.1230 C.2     1  UNL1        0.2245
     16 N         -25.6140    5.2520   26.4490 N.2     1  UNL1       -0.2356
     17 C         -25.0260    6.4790   26.9630 C.3     1  UNL1        0.1550
     18 O         -25.1430    3.9660   28.2430 O.2     1  UNL1       -0.4443
     19 C         -27.4380    3.0910   25.6450 C.2     1  UNL1        0.1081
     20 N         -28.0750    2.0890   25.0030 N.2     1  UNL1       -0.2080
     21 C         -27.5430    0.8490   25.0790 C.2     1  UNL1        0.2546
     22 O         -28.1930   -0.2080   24.4770 O.2     1  UNL1       -0.4558
     23 C         -29.4600    0.0050   23.8660 C.3     1  UNL1        0.2426
     24 C         -30.0650   -1.3770   23.5730 C.3     1  UNL1        0.2292
     25 O         -30.7290   -1.8780   24.7210 O.3     1  UNL1       -0.2162
     26 C         -26.3540    0.5760   25.7770 C.2     1  UNL1        0.2082
     27 F         -25.8600   -0.6810   25.7950 F       1  UNL1       -0.1978
     28 F         -23.6542    1.1320   24.4757 F       1  UNL1       -0.2004
     29 F         -20.7473    0.1828   28.7460 F       1  UNL1       -0.2027
     30 O         -28.1171    3.7797   29.8916 O.3     1  UNL1       -0.0965
     31 N         -27.0099    3.1243   29.5737 N.3     1  UNL1       -0.0048
     32 O         -22.4524   -0.6617   30.3060 O.2     1  UNL1       -0.2726
     33 C         -21.6190    0.9314   27.9581 C.2     1  UNL1        0.1590
     34 F         -21.8286    3.0054   25.0637 F       1  UNL1       -0.2017
     35 N         -23.7916    0.6892   29.1760 N.am    1  UNL1       -0.1752
     36 N         -24.5169    1.3335   26.9450 N.pl3   1  UNL1       -0.2061
     37 C         -23.6044    0.9371   26.9376 C.2     1  UNL1        0.1176
     38 C         -23.6044   -0.3376   29.8945 C.2     1  UNL1        0.2507
     39 C         -23.1628    1.3458   26.0020 C.2     1  UNL1        0.1839
     40 C         -25.7502    3.8277   29.4614 C.3     1  UNL1        0.2719
     41 C         -25.9663    5.0824   30.1800 C.3     1  UNL1        0.0705
     42 C         -21.9914    1.9732   25.8991 C.2     1  UNL1        0.1710
     43 C         -22.9570    0.8014   28.1423 C.2     1  UNL1        0.1182
     44 C         -21.1313    1.6244   26.8679 C.2     1  UNL1        0.0630
@<TRIPOS>BOND
     1     1    38    1
     2     2     7    1
     3     2     1    1
     4     3     2    2
     5     4     3    1
     6     4     5    2
     7     5     6    1
     8     6     7    2
     9     8     1    1
    10     8     9    1
    11     8    12    1
    12     9    10    1
    13    10    11    1
    14    12    11    1
    15    13    36    1
    16    14    13    1
    17    14    15    1
    18    15    18    1
    19    16    17    1
    20    16    15    2
    21    18    40    1
    22    19    14    2
    23    20    21    2
    24    20    19    1
    25    21    26    1
    26    22    21    1
    27    23    22    1
    28    24    23    1
    29    24    25    1
    30    26    27    1
    31    26    13    2
    32    28    39    1
    33    31    30    1
    34    33    43    1
    35    33    29    1
    36    34    42    1
    37    35    38    1
    38    37    36    1
    39    37    43    2
    40    38    32    2
    41    39    37    1
    42    40    31    1
    43    40    41    1
    44    42    39    2
    45    42    44    1
    46    43    35    1
    47    44    33    2
