@<TRIPOS>MOLECULE
outputs/IAG933/test6/raw/output_3104_IAG933_linker_design_.xyz
 40 44 0 0 0
SMALL
GASTEIGER

@<TRIPOS>ATOM
      1 C         -24.8550   -1.0120   30.1430 C.3     1  UNL1        0.2007
      2 C         -24.9730   -2.5050   29.7880 C.2     1  UNL1        0.0214
      3 C         -23.9060   -3.1730   29.1460 C.2     1  UNL1       -0.0004
      4 C         -23.9890   -4.5490   28.8530 C.2     1  UNL1       -0.0002
      5 C         -25.1370   -5.2800   29.2050 C.2     1  UNL1       -0.0000
      6 C         -26.2320   -4.6110   29.7840 C.2     1  UNL1       -0.0002
      7 C         -26.1550   -3.2320   30.0650 C.2     1  UNL1       -0.0004
      8 C         -25.3870   -0.6790   31.5710 C.3     1  UNL1        0.1198
      9 C         -25.1890    0.7730   32.0280 C.3     1  UNL1        0.0233
     10 C         -25.3360    0.6840   33.5440 C.3     1  UNL1        0.0204
     11 C         -24.8290   -0.7150   33.9050 C.3     1  UNL1        0.0889
     12 N         -24.7580   -1.4810   32.6460 N.3     1  UNL1       -0.2150
     13 C         -25.6880    1.6140   26.4610 C.2     1  UNL1        0.0232
     14 C         -26.2500    2.9200   26.3950 C.2     1  UNL1        0.0728
     15 C         -25.6420    4.0930   27.1230 C.2     1  UNL1        0.2661
     16 N         -25.6140    5.2520   26.4490 N.am    1  UNL1       -0.1997
     17 C         -25.0260    6.4790   26.9630 C.3     1  UNL1        0.1388
     18 O         -25.1430    3.9660   28.2430 O.2     1  UNL1       -0.2683
     19 C         -27.4380    3.0910   25.6450 C.2     1  UNL1        0.1064
     20 N         -28.0750    2.0890   25.0030 N.2     1  UNL1       -0.2081
     21 C         -27.5430    0.8490   25.0790 C.2     1  UNL1        0.2530
     22 O         -28.1930   -0.2080   24.4770 O.2     1  UNL1       -0.4558
     23 C         -29.4600    0.0050   23.8660 C.3     1  UNL1        0.2426
     24 C         -30.0650   -1.3770   23.5730 C.3     1  UNL1        0.2292
     25 O         -30.7290   -1.8780   24.7210 O.3     1  UNL1       -0.2162
     26 C         -26.3540    0.5760   25.7770 C.2     1  UNL1        0.1893
     27 F         -25.8600   -0.6810   25.7950 F       1  UNL1       -0.1996
     28 C         -22.9485    0.2175   28.9483 C.2     1  UNL1        0.3607
     29 O         -26.5143    0.1121   28.6401 O.3     1  UNL1       -0.1712
     30 C         -22.7327    2.4155   26.0592 C.2     1  UNL1        0.3723
     31 C         -23.3305    1.5622   27.1515 C.3     1  UNL1        0.1787
     32 O         -21.0786    0.8774   27.9550 O.2     1  UNL1       -0.4094
     33 O         -23.4235    3.2194   25.4592 O.co2   1  UNL1       -0.2452
     34 C         -20.7715   -0.0456   28.8359 C.2     1  UNL1        0.4261
     35 C         -22.3860    0.9375   27.9825 C.2     1  UNL1        0.2195
     36 O         -21.5479    2.2676   25.7434 O.co2   1  UNL1       -0.2452
     37 C         -24.6801    1.3369   27.3036 C.3     1  UNL1        0.1187
     38 N         -21.7637   -0.4818   29.5557 N.2     1  UNL1        0.0088
     39 C         -25.2135    0.7791   28.6047 C.3     1  UNL1        0.3178
     40 N         -24.2636    0.0698   29.1670 N.pl3   1  UNL1       -0.1636
@<TRIPOS>BOND
     1     1     2    1
     2     2     7    1
     3     3     2    2
     4     4     3    1
     5     4     5    2
     6     5     6    1
     7     6     7    2
     8     8     1    1
     9     8     9    1
    10     8    12    1
    11     9    10    1
    12    10    11    1
    13    12    11    1
    14    14    13    1
    15    14    15    1
    16    15    18    2
    17    16    17    1
    18    16    15    1
    19    19    14    2
    20    20    21    2
    21    20    19    1
    22    21    26    1
    23    22    21    1
    24    23    22    1
    25    24    23    1
    26    24    25    1
    27    26    27    1
    28    26    13    2
    29    28    40    1
    30    28    38    1
    31    31    30    1
    32    31    37    1
    33    31    35    1
    34    32    35    1
    35    32    34    1
    36    33    30   ar
    37    34    38    2
    38    35    28    2
    39    36    30   ar
    40    37    13    1
    41    37    39    1
    42    39    29    1
    43    39    40    1
    44    40     1    1
