@<TRIPOS>MOLECULE
outputs/IAG933/test6/raw/output_3105_IAG933_linker_design_.xyz
 46 50 0 0 0
SMALL
GASTEIGER

@<TRIPOS>ATOM
      1 C         -24.8550   -1.0120   30.1430 C.3     1  UNL1        0.0685
      2 C         -24.9730   -2.5050   29.7880 C.2     1  UNL1       -0.0186
      3 C         -23.9060   -3.1730   29.1460 C.2     1  UNL1       -0.0041
      4 C         -23.9890   -4.5490   28.8530 C.2     1  UNL1       -0.0003
      5 C         -25.1370   -5.2800   29.2050 C.2     1  UNL1       -0.0000
      6 C         -26.2320   -4.6110   29.7840 C.2     1  UNL1       -0.0003
      7 C         -26.1550   -3.2320   30.0650 C.2     1  UNL1       -0.0041
      8 C         -25.3870   -0.6790   31.5710 C.3     1  UNL1        0.0793
      9 C         -25.1890    0.7730   32.0280 C.3     1  UNL1        0.0193
     10 C         -25.3360    0.6840   33.5440 C.3     1  UNL1        0.0202
     11 C         -24.8290   -0.7150   33.9050 C.3     1  UNL1        0.0887
     12 N         -24.7580   -1.4810   32.6460 N.3     1  UNL1       -0.2190
     13 C         -25.6880    1.6140   26.4610 C.3     1  UNL1        0.1072
     14 C         -26.2500    2.9200   26.3950 C.2     1  UNL1        0.0602
     15 C         -25.6420    4.0930   27.1230 C.2     1  UNL1        0.2628
     16 N         -25.6140    5.2520   26.4490 N.am    1  UNL1       -0.2000
     17 C         -25.0260    6.4790   26.9630 C.3     1  UNL1        0.1388
     18 O         -25.1430    3.9660   28.2430 O.2     1  UNL1       -0.2686
     19 C         -27.4380    3.0910   25.6450 C.2     1  UNL1        0.1025
     20 N         -28.0750    2.0890   25.0030 N.2     1  UNL1       -0.2118
     21 C         -27.5430    0.8490   25.0790 C.2     1  UNL1        0.2345
     22 O         -28.1930   -0.2080   24.4770 O.2     1  UNL1       -0.4585
     23 C         -29.4600    0.0050   23.8660 C.3     1  UNL1        0.2423
     24 C         -30.0650   -1.3770   23.5730 C.3     1  UNL1        0.2292
     25 O         -30.7290   -1.8780   24.7210 O.3     1  UNL1       -0.2162
     26 C         -26.3540    0.5760   25.7770 C.3     1  UNL1        0.2453
     27 F         -25.8600   -0.6810   25.7950 F       1  UNL1       -0.2265
     28 C         -28.8118   -0.3356   29.0892 C.3     1  UNL1        0.1139
     29 O         -28.4787    2.3466   29.7627 O.3     1  UNL1       -0.3357
     30 CL        -22.7341    2.6263   25.2523 Cl      1  UNL1       -0.0718
     31 S         -27.2144   -0.9022   28.6414 S.3     1  UNL1       -0.1035
     32 C         -29.9317    0.3445   30.1236 C.3     1  UNL1        0.0610
     33 N         -25.0702    0.6213   28.3694 N.pl3   1  UNL1       -0.2320
     34 F         -21.0117    2.0329   27.1901 F       1  UNL1       -0.2142
     35 C         -22.3828    1.9157   26.8061 C.3     1  UNL1        0.2644
     36 C         -30.3627    0.5445   27.2672 C.3     1  UNL1        0.2224
     37 C         -22.5135    0.9421   28.8882 C.2     1  UNL1        0.1227
     38 C         -25.5839   -0.2297   29.0610 C.3     1  UNL1        0.1456
     39 C         -28.9974    1.7914   28.6827 C.3     1  UNL1        0.2061
     40 C         -29.1151    3.5273   30.4004 C.3     1  UNL1        0.1759
     41 C         -24.6741    1.2554   27.5633 C.2     1  UNL1        0.0523
     42 C         -30.3583    1.5911   29.3913 C.3     1  UNL1        0.1619
     43 N         -22.7830    1.0381   30.1087 N.2     1  UNL1       -0.1465
     44 N         -28.9549    0.5112   28.0439 N.3     1  UNL1       -0.2150
     45 O         -31.0908    1.3618   28.2058 O.3     1  UNL1       -0.3357
     46 C         -23.2485    1.4363   27.6740 C.2     1  UNL1        0.0576
@<TRIPOS>BOND
     1     1    38    1
     2     2     7    1
     3     2     1    1
     4     3     2    2
     5     4     3    1
     6     4     5    2
     7     5     6    1
     8     6     7    2
     9     8     1    1
    10     8     9    1
    11     8    12    1
    12     9    10    1
    13    10    11    1
    14    12    11    1
    15    13    41    1
    16    14    13    1
    17    14    15    1
    18    15    18    2
    19    16    17    1
    20    16    15    1
    21    19    14    2
    22    20    21    2
    23    20    19    1
    24    21    26    1
    25    22    21    1
    26    23    22    1
    27    24    23    1
    28    24    25    1
    29    26    27    1
    30    26    13    1
    31    28    31    1
    32    28    32    1
    33    29    40    1
    34    31    38    1
    35    35    30    1
    36    35    34    1
    37    35    46    1
    38    36    45    1
    39    37    43    2
    40    38    33    1
    41    39    42    1
    42    39    29    1
    43    41    46    2
    44    41    33    1
    45    42    32    1
    46    44    36    1
    47    44    39    1
    48    44    28    1
    49    45    42    1
    50    46    37    1
