@<TRIPOS>MOLECULE
No_3106-gen_results/8p0m/2024-11-27-11-27-31/
 21 22 0 0 0
SMALL
GASTEIGER

@<TRIPOS>ATOM
      1 C         -28.0162   -0.8135   28.8779 C.ar    1  UNL1        0.0371
      2 C         -27.0636   -0.1189   28.6079 C.ar    1  UNL1        0.0028
      3 C         -25.7647   -0.3897   29.0360 C.ar    1  UNL1       -0.0038
      4 C         -25.5296   -1.5302   29.9014 C.ar    1  UNL1       -0.0188
      5 C         -26.6577   -2.2915   30.2035 C.ar    1  UNL1        0.0328
      6 C         -27.8548   -1.9555   29.7630 C.ar    1  UNL1        0.1439
      7 C         -24.5349    0.4128   28.7431 C.ar    1  UNL1       -0.0003
      8 C         -23.3062    0.0366   29.0393 C.ar    1  UNL1       -0.0000
      9 C         -22.1759    0.8277   28.6836 C.ar    1  UNL1       -0.0000
     10 C         -22.3552    1.8290   27.6875 C.ar    1  UNL1       -0.0000
     11 C         -24.5941    1.4954   27.7678 C.ar    1  UNL1       -0.0000
     12 C         -23.5500    2.1700   27.3300 C.ar    1  UNL1       -0.0000
     13 O         -28.9345   -2.7051   30.1299 O.3     1  UNL1       -0.4243
     14 C         -29.2563   -2.8253   31.4702 C.3     1  UNL1        0.4999
     15 C         -29.8166   -4.1369   31.7480 C.3     1  UNL1        0.4968
     16 F         -29.3932   -5.0808   31.0951 F       1  UNL1       -0.1619
     17 F         -31.1925   -4.1226   31.4812 F       1  UNL1       -0.1619
     18 F         -29.6603   -4.5627   33.0288 F       1  UNL1       -0.1619
     19 F         -28.2076   -2.5474   32.2457 F       1  UNL1       -0.1557
     20 F         -30.1851   -1.8757   31.7833 F       1  UNL1       -0.1557
     21 C         -24.1883   -1.8776   30.3842 C.3     1  UNL1        0.0311
@<TRIPOS>BOND
     1     3     7    1
     2     6    13    1
     3    13    14    1
     4    14    15    1
     5    15    16    1
     6    15    17    1
     7    15    18    1
     8    14    19    1
     9    14    20    1
    10     4    21    1
    11     7     8   ar
    12     8     9   ar
    13     9    10   ar
    14    10    12   ar
    15    12    11   ar
    16    11     7   ar
    17     1     2   ar
    18     2     3   ar
    19     3     4   ar
    20     4     5   ar
    21     5     6   ar
    22     6     1   ar
