@<TRIPOS>MOLECULE
No_3107-gen_results/8p0m/2024-11-27-11-27-31/
 16 17 0 0 0
SMALL
GASTEIGER

@<TRIPOS>ATOM
      1 O         -28.1229   -1.3353   28.4874 O.2     1  UNL1       -0.2728
      2 C         -27.0637   -0.8242   28.8687 C.2     1  UNL1        0.2498
      3 C         -26.9592    0.0926   29.7582 C.3     1  UNL1        0.1572
      4 N         -25.8472   -1.5491   28.6589 N.am    1  UNL1       -0.2021
      5 C         -25.7222    0.7177   30.1925 C.3     1  UNL1        0.0555
      6 C         -24.5852   -1.0823   29.0632 C.3     1  UNL1        0.1503
      7 C         -24.5116    0.0344   29.8223 C.3     1  UNL1        0.1835
      8 F         -23.3646    0.4849   30.2019 F       1  UNL1       -0.2354
      9 C         -28.1980    0.8859   30.1090 C.2     1  UNL1        0.2341
     10 N         -28.6734    1.7322   29.3137 N.am    1  UNL1       -0.2792
     11 C         -27.9848    2.3727   28.5577 C.3     1  UNL1        0.0934
     12 C         -28.6316    3.3810   27.6164 C.3     1  UNL1        0.0216
     13 C         -30.0950    1.8796   29.3102 C.3     1  UNL1        0.0934
     14 C         -30.7374    2.7956   28.4355 C.3     1  UNL1        0.0216
     15 C         -29.9452    3.6040   27.6394 C.3     1  UNL1        0.0035
     16 O         -28.6699    0.4760   31.2256 O.2     1  UNL1       -0.2744
@<TRIPOS>BOND
     1     1     2    2
     2     2     3    1
     3     2     4   am
     4     4     6    1
     5     5     7    1
     6     6     7    1
     7     7     8    1
     8     3     9    1
     9     9    10   am
    10    10    11    1
    11    10    13    1
    12    12    15    1
    13    14    15    1
    14     9    16    2
    15    11    12    1
    16    14    13    1
    17     3     5    1
