@<TRIPOS>MOLECULE
No_3108-gen_results/8p0m/2024-11-27-11-27-31/
 19 21 0 0 0
SMALL
GASTEIGER

@<TRIPOS>ATOM
      1 O         -28.1229   -1.3353   28.4874 O.2     1  UNL1       -0.2488
      2 C         -27.4806   -0.4044   28.7094 C.2     1  UNL1        0.3451
      3 N         -27.2412    0.3910   29.5098 N.am    1  UNL1       -0.1837
      4 N         -26.4810   -0.1429   27.5424 N.am    1  UNL1       -0.1424
      5 C         -25.5872    0.8054   27.6401 C.ar    1  UNL1        0.1537
      6 C         -25.5480    1.6270   28.7298 C.ar    1  UNL1        0.0313
      7 C         -26.3607    1.3809   29.7635 C.3     1  UNL1        0.1258
      8 N         -24.6846    0.7871   26.6481 N.ar    1  UNL1       -0.2275
      9 C         -23.6912    1.6205   26.5956 C.ar    1  UNL1        0.1004
     10 C         -23.4193    2.4680   27.7219 C.ar    1  UNL1        0.0205
     11 C         -24.3260    2.4925   28.7079 C.ar    1  UNL1        0.0018
     12 C         -26.3657    2.1895   30.9902 C.3     1  UNL1        0.0466
     13 C         -27.3713    2.7498   31.3516 C.ar    1  UNL1       -0.0205
     14 C         -28.3457    2.9085   31.1806 C.ar    1  UNL1       -0.0042
     15 C         -29.3037    3.5929   31.4426 C.ar    1  UNL1       -0.0003
     16 C         -29.1049    4.4155   32.6469 C.ar    1  UNL1       -0.0000
     17 C         -27.8774    4.3801   33.2213 C.ar    1  UNL1       -0.0003
     18 C         -26.8771    3.6346   32.6417 C.ar    1  UNL1       -0.0042
     19 C         -25.0235    2.0151   31.6918 C.3     1  UNL1        0.0068
@<TRIPOS>BOND
     1     1     2    2
     2     2     3   am
     3     2     4   am
     4     4     5    1
     5     3     7    1
     6     6     7    1
     7     7    12    1
     8    12    13    1
     9    12    19    1
    10    13    14   ar
    11    14    15   ar
    12    15    16   ar
    13    16    17   ar
    14    17    18   ar
    15    18    13   ar
    16     5     6   ar
    17     6    11   ar
    18    11    10   ar
    19    10     9   ar
    20     9     8   ar
    21     8     5   ar
