@<TRIPOS>MOLECULE
outputs/IAG933/test6/raw/output_3109_IAG933_linker_design_.xyz
 42 46 0 0 0
SMALL
GASTEIGER

@<TRIPOS>ATOM
      1 C         -24.8550   -1.0120   30.1430 C.3     1  UNL1        0.1178
      2 C         -24.9730   -2.5050   29.7880 C.2     1  UNL1       -0.0028
      3 C         -23.9060   -3.1730   29.1460 C.2     1  UNL1       -0.0026
      4 C         -23.9890   -4.5490   28.8530 C.2     1  UNL1       -0.0003
      5 C         -25.1370   -5.2800   29.2050 C.2     1  UNL1       -0.0000
      6 C         -26.2320   -4.6110   29.7840 C.2     1  UNL1       -0.0003
      7 C         -26.1550   -3.2320   30.0650 C.2     1  UNL1       -0.0026
      8 C         -25.3870   -0.6790   31.5710 C.3     1  UNL1        0.0953
      9 C         -25.1890    0.7730   32.0280 C.3     1  UNL1        0.0209
     10 C         -25.3360    0.6840   33.5440 C.3     1  UNL1        0.0203
     11 C         -24.8290   -0.7150   33.9050 C.3     1  UNL1        0.0888
     12 N         -24.7580   -1.4810   32.6460 N.3     1  UNL1       -0.2174
     13 C         -25.6880    1.6140   26.4610 C.3     1  UNL1        0.1453
     14 C         -26.2500    2.9200   26.3950 C.2     1  UNL1        0.0731
     15 C         -25.6420    4.0930   27.1230 C.2     1  UNL1        0.2640
     16 N         -25.6140    5.2520   26.4490 N.am    1  UNL1       -0.1999
     17 C         -25.0260    6.4790   26.9630 C.3     1  UNL1        0.1388
     18 O         -25.1430    3.9660   28.2430 O.2     1  UNL1       -0.2686
     19 C         -27.4380    3.0910   25.6450 C.2     1  UNL1        0.1038
     20 N         -28.0750    2.0890   25.0030 N.2     1  UNL1       -0.2118
     21 C         -27.5430    0.8490   25.0790 C.2     1  UNL1        0.2358
     22 O         -28.1930   -0.2080   24.4770 O.2     1  UNL1       -0.4585
     23 C         -29.4600    0.0050   23.8660 C.3     1  UNL1        0.2423
     24 C         -30.0650   -1.3770   23.5730 C.3     1  UNL1        0.2292
     25 O         -30.7290   -1.8780   24.7210 O.3     1  UNL1       -0.2162
     26 C         -26.3540    0.5760   25.7770 C.3     1  UNL1        0.2581
     27 F         -25.8600   -0.6810   25.7950 F       1  UNL1       -0.2251
     28 C         -21.5759    2.0141   26.1505 C.2     1  UNL1        0.0175
     29 C         -22.3560    2.0840   25.0057 C.2     1  UNL1        0.0309
     30 O         -22.4987   -0.3169   30.2277 O.2     1  UNL1       -0.2708
     31 C         -23.6725    1.6657   25.0716 C.3     1  UNL1        0.2606
     32 C         -22.6644    0.3802   29.2042 C.2     1  UNL1        0.2694
     33 N         -24.2558    1.5275   26.2796 N.pl3   1  UNL1       -0.2734
     34 O         -27.4037   -0.5219   28.6668 O.co2   1  UNL1       -0.2223
     35 C         -23.5940    1.2665   27.3668 C.2     1  UNL1        0.0702
     36 N         -21.5828    0.9630   28.4606 N.am    1  UNL1       -0.1765
     37 O         -26.6880    1.5249   28.8713 O.co2   1  UNL1       -0.2223
     38 C         -23.9775    0.6402   28.5423 C.3     1  UNL1        0.1943
     39 C         -26.4941    0.3487   28.8425 C.2     1  UNL1        0.4480
     40 N         -25.1384    0.0152   29.1177 N.am    1  UNL1       -0.2279
     41 C         -22.1838    1.5082   27.3040 C.2     1  UNL1        0.0845
     42 F         -24.3135    1.2401   24.0060 F       1  UNL1       -0.2097
@<TRIPOS>BOND
     1     1    40    1
     2     2     7    1
     3     2     1    1
     4     3     2    2
     5     4     3    1
     6     4     5    2
     7     5     6    1
     8     6     7    2
     9     8     1    1
    10     8     9    1
    11     8    12    1
    12     9    10    1
    13    10    11    1
    14    12    11    1
    15    13    33    1
    16    14    13    1
    17    14    15    1
    18    15    18    2
    19    16    17    1
    20    16    15    1
    21    19    14    2
    22    20    21    2
    23    20    19    1
    24    21    26    1
    25    22    21    1
    26    23    22    1
    27    24    23    1
    28    24    25    1
    29    26    27    1
    30    26    13    1
    31    28    41    1
    32    29    31    1
    33    29    28    2
    34    31    42    1
    35    31    33    1
    36    32    30    2
    37    33    35    1
    38    34    39   ar
    39    35    38    1
    40    36    32    1
    41    38    40    1
    42    38    32    1
    43    39    37   ar
    44    39    40   am
    45    41    35    2
    46    41    36    1
