@<TRIPOS>MOLECULE
outputs/IAG933/test6/raw/output_3111_IAG933_linker_design_.xyz
 42 45 0 0 0
SMALL
GASTEIGER

@<TRIPOS>ATOM
      1 C         -24.8550   -1.0120   30.1430 C.3     1  UNL1        0.1001
      2 C         -24.9730   -2.5050   29.7880 C.2     1  UNL1       -0.0139
      3 C         -23.9060   -3.1730   29.1460 C.2     1  UNL1       -0.0038
      4 C         -23.9890   -4.5490   28.8530 C.2     1  UNL1       -0.0003
      5 C         -25.1370   -5.2800   29.2050 C.2     1  UNL1       -0.0000
      6 C         -26.2320   -4.6110   29.7840 C.2     1  UNL1       -0.0003
      7 C         -26.1550   -3.2320   30.0650 C.2     1  UNL1       -0.0038
      8 C         -25.3870   -0.6790   31.5710 C.3     1  UNL1        0.0841
      9 C         -25.1890    0.7730   32.0280 C.3     1  UNL1        0.0196
     10 C         -25.3360    0.6840   33.5440 C.3     1  UNL1        0.0203
     11 C         -24.8290   -0.7150   33.9050 C.3     1  UNL1        0.0887
     12 N         -24.7580   -1.4810   32.6460 N.3     1  UNL1       -0.2187
     13 C         -25.6880    1.6140   26.4610 C.2     1  UNL1        0.0381
     14 C         -26.2500    2.9200   26.3950 C.2     1  UNL1        0.0765
     15 C         -25.6420    4.0930   27.1230 C.2     1  UNL1        0.2664
     16 N         -25.6140    5.2520   26.4490 N.am    1  UNL1       -0.1997
     17 C         -25.0260    6.4790   26.9630 C.3     1  UNL1        0.1388
     18 O         -25.1430    3.9660   28.2430 O.2     1  UNL1       -0.2683
     19 C         -27.4380    3.0910   25.6450 C.2     1  UNL1        0.1067
     20 N         -28.0750    2.0890   25.0030 N.2     1  UNL1       -0.2081
     21 C         -27.5430    0.8490   25.0790 C.2     1  UNL1        0.2533
     22 O         -28.1930   -0.2080   24.4770 O.2     1  UNL1       -0.4558
     23 C         -29.4600    0.0050   23.8660 C.3     1  UNL1        0.2426
     24 C         -30.0650   -1.3770   23.5730 C.3     1  UNL1        0.2292
     25 O         -30.7290   -1.8780   24.7210 O.3     1  UNL1       -0.2162
     26 C         -26.3540    0.5760   25.7770 C.2     1  UNL1        0.1930
     27 F         -25.8600   -0.6810   25.7950 F       1  UNL1       -0.1992
     28 O         -21.4165   -1.2112   28.7553 O.3     1  UNL1       -0.2151
     29 C         -25.3042   -0.0062   29.0612 C.2     1  UNL1        0.1779
     30 C         -21.7439    1.0100   27.8890 C.ar    1  UNL1        0.1658
     31 O         -24.3175    3.3600   24.9866 O.3     1  UNL1       -0.1790
     32 C         -22.3769   -0.5488   29.4836 C.3     1  UNL1        0.2110
     33 C         -24.2364    0.6707   28.2356 C.ar    1  UNL1        0.0358
     34 C         -24.4044    1.3290   27.0954 C.ar    1  UNL1        0.0084
     35 O         -26.5362    0.2048   28.8667 O.2     1  UNL1       -0.2910
     36 C         -23.2581    2.6132   25.0375 C.3     1  UNL1        0.3344
     37 F         -20.3754    1.0400   28.3425 F       1  UNL1       -0.2021
     38 C         -21.9904    1.6732   26.7339 C.ar    1  UNL1        0.1682
     39 F         -22.4201    2.4940   24.3532 F       1  UNL1       -0.1958
     40 F         -20.9029    2.0508   26.0570 F       1  UNL1       -0.2020
     41 C         -22.8981    0.3854   28.5111 C.ar    1  UNL1        0.0431
     42 C         -23.3038    1.8407   26.2921 C.ar    1  UNL1        0.0711
@<TRIPOS>BOND
     1     1    29    1
     2     2     7    1
     3     2     1    1
     4     3     2    2
     5     4     3    1
     6     4     5    2
     7     5     6    1
     8     6     7    2
     9     8     1    1
    10     8     9    1
    11     8    12    1
    12     9    10    1
    13    10    11    1
    14    12    11    1
    15    13    34    1
    16    14    13    1
    17    14    15    1
    18    15    18    2
    19    16    17    1
    20    16    15    1
    21    19    14    2
    22    20    21    2
    23    20    19    1
    24    21    26    1
    25    22    21    1
    26    23    22    1
    27    24    23    1
    28    24    25    1
    29    26    27    1
    30    26    13    2
    31    28    32    1
    32    30    37    1
    33    30    41   ar
    34    31    36    1
    35    33    41   ar
    36    33    29    1
    37    34    33   ar
    38    35    29    2
    39    36    39    1
    40    36    42    1
    41    38    30   ar
    42    40    38    1
    43    41    32    1
    44    42    38   ar
    45    42    34   ar
