@<TRIPOS>MOLECULE
outputs/IAG933/test6/raw/output_3114_IAG933_linker_design_.xyz
 45 49 0 0 0
SMALL
GASTEIGER

@<TRIPOS>ATOM
      1 C         -24.8550   -1.0120   30.1430 C.3     1  UNL1        0.0697
      2 C         -24.9730   -2.5050   29.7880 C.2     1  UNL1       -0.0184
      3 C         -23.9060   -3.1730   29.1460 C.2     1  UNL1       -0.0041
      4 C         -23.9890   -4.5490   28.8530 C.2     1  UNL1       -0.0003
      5 C         -25.1370   -5.2800   29.2050 C.2     1  UNL1       -0.0000
      6 C         -26.2320   -4.6110   29.7840 C.2     1  UNL1       -0.0003
      7 C         -26.1550   -3.2320   30.0650 C.2     1  UNL1       -0.0041
      8 C         -25.3870   -0.6790   31.5710 C.3     1  UNL1        0.0795
      9 C         -25.1890    0.7730   32.0280 C.3     1  UNL1        0.0193
     10 C         -25.3360    0.6840   33.5440 C.3     1  UNL1        0.0202
     11 C         -24.8290   -0.7150   33.9050 C.3     1  UNL1        0.0887
     12 N         -24.7580   -1.4810   32.6460 N.3     1  UNL1       -0.2190
     13 C         -25.6880    1.6140   26.4610 C.3     1  UNL1        0.0900
     14 C         -26.2500    2.9200   26.3950 C.2     1  UNL1        0.0586
     15 C         -25.6420    4.0930   27.1230 C.2     1  UNL1        0.2627
     16 N         -25.6140    5.2520   26.4490 N.am    1  UNL1       -0.2000
     17 C         -25.0260    6.4790   26.9630 C.3     1  UNL1        0.1388
     18 O         -25.1430    3.9660   28.2430 O.2     1  UNL1       -0.2686
     19 C         -27.4380    3.0910   25.6450 C.2     1  UNL1        0.1025
     20 N         -28.0750    2.0890   25.0030 N.2     1  UNL1       -0.2118
     21 C         -27.5430    0.8490   25.0790 C.2     1  UNL1        0.2344
     22 O         -28.1930   -0.2080   24.4770 O.2     1  UNL1       -0.4585
     23 C         -29.4600    0.0050   23.8660 C.3     1  UNL1        0.2423
     24 C         -30.0650   -1.3770   23.5730 C.3     1  UNL1        0.2292
     25 O         -30.7290   -1.8780   24.7210 O.3     1  UNL1       -0.2162
     26 C         -26.3540    0.5760   25.7770 C.3     1  UNL1        0.2437
     27 F         -25.8600   -0.6810   25.7950 F       1  UNL1       -0.2265
     28 F         -22.2215    2.5628   24.4342 F       1  UNL1       -0.1932
     29 C         -28.1984   -0.6676   29.0673 C.3     1  UNL1        0.0757
     30 C         -22.8304    1.0108   28.3196 C.2     1  UNL1        0.1643
     31 N         -27.0940    0.2674   29.4327 N.3     1  UNL1       -0.2351
     32 C         -25.7014   -0.2611   29.1119 C.3     1  UNL1        0.1398
     33 C         -24.0976    0.6438   27.8936 C.3     1  UNL1        0.1449
     34 O         -27.3812    2.6966   30.0851 O.3     1  UNL1       -0.2049
     35 F         -22.3806    0.6849   29.4139 F       1  UNL1       -0.2047
     36 C         -24.3791    1.3925   26.8379 C.2     1  UNL1       -0.0115
     37 F         -23.6928    0.9310   24.1546 F       1  UNL1       -0.1932
     38 C         -29.3532    1.3803   29.7812 C.3     1  UNL1        0.0516
     39 C         -23.1847    1.7262   26.2609 C.2     1  UNL1        0.0672
     40 C         -29.6126   -0.0805   29.3103 C.3     1  UNL1        0.0215
     41 C         -27.8472    1.3517   30.2664 C.3     1  UNL1        0.2137
     42 N         -25.1038   -0.2999   27.9836 N.3     1  UNL1       -0.1935
     43 C         -22.2468    1.6334   27.2998 C.2     1  UNL1        0.1656
     44 F         -20.9909    1.9657   27.4288 F       1  UNL1       -0.2023
     45 C         -22.9961    1.7728   24.8805 C.3     1  UNL1        0.3427
@<TRIPOS>BOND
     1     1    32    1
     2     2     7    1
     3     2     1    1
     4     3     2    2
     5     4     3    1
     6     4     5    2
     7     5     6    1
     8     6     7    2
     9     8     1    1
    10     8     9    1
    11     8    12    1
    12     9    10    1
    13    10    11    1
    14    12    11    1
    15    13    36    1
    16    14    13    1
    17    14    15    1
    18    15    18    2
    19    16    17    1
    20    16    15    1
    21    19    14    2
    22    20    21    2
    23    20    19    1
    24    21    26    1
    25    22    21    1
    26    23    22    1
    27    24    23    1
    28    24    25    1
    29    26    27    1
    30    26    13    1
    31    28    45    1
    32    29    40    1
    33    29    31    1
    34    30    35    1
    35    31    41    1
    36    32    42    1
    37    32    31    1
    38    33    42    1
    39    33    30    1
    40    36    33    1
    41    37    45    1
    42    38    41    1
    43    39    36    2
    44    39    43    1
    45    40    38    1
    46    41    34    1
    47    43    44    1
    48    43    30    2
    49    45    39    1
