@<TRIPOS>MOLECULE
outputs/IAG933/test6/raw/output_3115_IAG933_linker_design_.xyz
 48 51 0 0 0
SMALL
GASTEIGER

@<TRIPOS>ATOM
      1 C         -24.8550   -1.0120   30.1430 C.3     1  UNL1        0.0437
      2 C         -24.9730   -2.5050   29.7880 C.2     1  UNL1       -0.0208
      3 C         -23.9060   -3.1730   29.1460 C.2     1  UNL1       -0.0042
      4 C         -23.9890   -4.5490   28.8530 C.2     1  UNL1       -0.0003
      5 C         -25.1370   -5.2800   29.2050 C.2     1  UNL1       -0.0000
      6 C         -26.2320   -4.6110   29.7840 C.2     1  UNL1       -0.0003
      7 C         -26.1550   -3.2320   30.0650 C.2     1  UNL1       -0.0042
      8 C         -25.3870   -0.6790   31.5710 C.3     1  UNL1        0.0775
      9 C         -25.1890    0.7730   32.0280 C.3     1  UNL1        0.0237
     10 C         -25.3360    0.6840   33.5440 C.3     1  UNL1        0.0206
     11 C         -24.8290   -0.7150   33.9050 C.3     1  UNL1        0.0887
     12 N         -24.7580   -1.4810   32.6460 N.3     1  UNL1       -0.2191
     13 C         -25.6880    1.6140   26.4610 C.3     1  UNL1        0.0702
     14 C         -26.2500    2.9200   26.3950 C.2     1  UNL1        0.0548
     15 C         -25.6420    4.0930   27.1230 C.2     1  UNL1        0.2624
     16 N         -25.6140    5.2520   26.4490 N.am    1  UNL1       -0.2000
     17 C         -25.0260    6.4790   26.9630 C.3     1  UNL1        0.1388
     18 O         -25.1430    3.9660   28.2430 O.2     1  UNL1       -0.2687
     19 C         -27.4380    3.0910   25.6450 C.2     1  UNL1        0.1021
     20 N         -28.0750    2.0890   25.0030 N.2     1  UNL1       -0.2119
     21 C         -27.5430    0.8490   25.0790 C.2     1  UNL1        0.2341
     22 O         -28.1930   -0.2080   24.4770 O.2     1  UNL1       -0.4585
     23 C         -29.4600    0.0050   23.8660 C.3     1  UNL1        0.2423
     24 C         -30.0650   -1.3770   23.5730 C.3     1  UNL1        0.2292
     25 O         -30.7290   -1.8780   24.7210 O.3     1  UNL1       -0.2162
     26 C         -26.3540    0.5760   25.7770 C.3     1  UNL1        0.2400
     27 F         -25.8600   -0.6810   25.7950 F       1  UNL1       -0.2269
     28 C         -29.3019    2.9890   36.0197 C.3     1  UNL1        0.1763
     29 C         -23.9486    1.5416   28.8845 C.3     1  UNL1        0.1251
     30 C         -23.3221    1.7858   27.5551 C.3     1  UNL1        0.0274
     31 N         -28.7334    3.3338   32.4555 N.pl3   1  UNL1       -0.2563
     32 N         -25.4574    1.5990   29.0472 N.2     1  UNL1       -0.2747
     33 C         -30.0110    4.8628   33.7485 C.3     1  UNL1        0.3937
     34 C         -28.6317    2.1465   30.3589 C.2     1  UNL1        0.0186
     35 C         -29.4181    2.7320   31.3509 C.2     1  UNL1        0.0675
     36 O         -31.2818    4.1882   33.7195 O.2     1  UNL1       -0.2708
     37 C         -27.3367    2.2712   30.8214 C.2     1  UNL1        0.0293
     38 C         -29.9250    5.7751   34.9921 C.3     1  UNL1        0.1041
     39 C         -24.3680    1.2953   26.5645 C.3     1  UNL1        0.0099
     40 C         -27.4041    2.8882   32.1451 C.2     1  UNL1        0.0685
     41 C         -21.0928    0.9935   28.1119 C.3     1  UNL1        0.1822
     42 C         -29.0490    3.7832   33.6977 C.3     1  UNL1        0.2828
     43 C         -25.0394    2.1596   31.3666 C.3     1  UNL1        0.0468
     44 O         -21.9528    0.0277   28.7240 O.3     1  UNL1       -0.2204
     45 O         -30.1443    5.4919   32.5395 O.2     1  UNL1       -0.2708
     46 C         -21.8698    1.8107   27.0771 C.3     1  UNL1        0.0375
     47 O         -28.4798    3.4895   34.9106 O.3     1  UNL1       -0.3290
     48 C         -26.2386    1.9329   30.3109 C.2     1  UNL1        0.0550
@<TRIPOS>BOND
     1     2     7    1
     2     2     1    1
     3     3     2    2
     4     4     3    1
     5     4     5    2
     6     5     6    1
     7     6     7    2
     8     8     1    1
     9     8     9    1
    10     8    12    1
    11     9    43    1
    12     9    10    1
    13    10    11    1
    14    12    11    1
    15    13    39    1
    16    14    13    1
    17    14    15    1
    18    15    18    2
    19    16    17    1
    20    16    15    1
    21    19    14    2
    22    20    21    2
    23    20    19    1
    24    21    26    1
    25    22    21    1
    26    23    22    1
    27    24    23    1
    28    24    25    1
    29    26    27    1
    30    26    13    1
    31    29    32    1
    32    30    39    1
    33    30    29    1
    34    31    42    1
    35    32    48    2
    36    33    38    1
    37    34    37    1
    38    34    35    2
    39    35    31    1
    40    36    33    1
    41    37    40    2
    42    40    31    1
    43    41    44    1
    44    42    33    1
    45    42    47    1
    46    45    33    1
    47    46    30    1
    48    46    41    1
    49    47    28    1
    50    48    37    1
    51    48    43    1
