@<TRIPOS>MOLECULE
No_3116-gen_results/8p0m/2024-11-27-11-27-31/
 35 38 0 0 0
SMALL
GASTEIGER

@<TRIPOS>ATOM
      1 C         -28.0162   -0.8135   28.8779 C.3     1  UNL1        0.0560
      2 C         -27.0636   -0.1190   28.6079 C.ar    1  UNL1        0.0256
      3 C         -25.7647   -0.3897   29.0360 C.ar    1  UNL1        0.1923
      4 C         -24.5516    0.4058   28.7646 C.ar    1  UNL1        0.0463
      5 C         -24.6957    1.4480   27.7988 C.ar    1  UNL1        0.0600
      6 C         -25.9755    1.7250   27.3077 C.ar    1  UNL1        0.0091
      7 C         -27.0718    1.0134   27.6535 C.ar    1  UNL1        0.0550
      8 C         -28.6178   -0.4695   30.2207 C.ar    1  UNL1       -0.0177
      9 C         -28.3113    0.5057   30.7868 C.ar    1  UNL1       -0.0039
     10 C         -28.9472    0.8433   32.1556 C.ar    1  UNL1       -0.0003
     11 C         -23.4917    2.2077   27.4742 C.2     1  UNL1        0.2843
     12 O         -23.5883    3.1811   26.7507 O.2     1  UNL1       -0.2667
     13 N         -22.2967    1.9627   28.0578 N.am    1  UNL1       -0.0837
     14 C         -29.8141   -0.0797   32.6773 C.ar    1  UNL1       -0.0000
     15 C         -29.4949   -1.5650   30.8135 C.ar    1  UNL1       -0.0039
     16 C         -30.0999   -1.2837   32.0480 C.ar    1  UNL1       -0.0003
     17 O         -25.2896   -1.3815   29.8499 O.3     1  UNL1       -0.2869
     18 C         -28.3913    1.4120   27.0504 C.2     1  UNL1        0.2688
     19 O         -29.1479    1.9298   27.5393 O.2     1  UNL1       -0.2680
     20 N         -28.2917    1.2830   25.6758 N.am    1  UNL1       -0.1738
     21 C         -29.4607    1.5475   24.8721 C.2     1  UNL1        0.0982
     22 C         -29.8708    0.3712   24.2239 C.2     1  UNL1        0.1277
     23 C         -29.2841   -0.8456   24.4428 C.2     1  UNL1        0.1579
     24 N         -29.9100   -1.9483   23.8219 N.2     1  UNL1       -0.0322
     25 N         -30.9261   -1.3182   23.2152 N.2     1  UNL1        0.0842
     26 C         -30.9859   -0.0468   23.4305 C.2     1  UNL1        0.3919
     27 N         -31.9793    0.8168   23.0808 N.pl3   1  UNL1       -0.0114
     28 C         -32.9044    1.2601   23.9515 C.3     1  UNL1        0.3063
     29 C         -33.4704    0.9160   24.7179 C.ar    1  UNL1        0.0401
     30 C         -34.2177    1.1766   25.5542 C.ar    1  UNL1        0.0010
     31 C         -34.8092    0.4713   26.7374 C.ar    1  UNL1       -0.0002
     32 C         -34.3824   -0.8261   26.8762 C.ar    1  UNL1       -0.0000
     33 C         -33.4681   -1.3646   25.9972 C.ar    1  UNL1       -0.0002
     34 C         -32.9451   -0.6190   25.0087 C.ar    1  UNL1        0.0010
     35 CL        -33.1388    2.9574   23.5789 Cl      1  UNL1       -0.0563
@<TRIPOS>BOND
     1     1     8    1
     2     5    11    1
     3    11    12    2
     4    11    13   am
     5     3    17    1
     6     7    18    1
     7    18    19    2
     8    18    20   am
     9    20    21    1
    10    21    22    2
    11    22    23    1
    12    23    24    2
    13    24    25    1
    14    22    26    1
    15    25    26    2
    16    26    27    1
    17    27    28    1
    18    28    35    1
    19    28    29    1
    20     1     2    1
    21    29    30   ar
    22    30    31   ar
    23    31    32   ar
    24    32    33   ar
    25    33    34   ar
    26    34    29   ar
    27     2     3   ar
    28     3     4   ar
    29     4     5   ar
    30     5     6   ar
    31     6     7   ar
    32     7     2   ar
    33     8     9   ar
    34     9    10   ar
    35    10    14   ar
    36    14    16   ar
    37    16    15   ar
    38    15     8   ar
