@<TRIPOS>MOLECULE
outputs/IAG933/test6/raw/output_3118_IAG933_linker_design_.xyz
 42 46 0 0 0
SMALL
GASTEIGER

@<TRIPOS>ATOM
      1 C         -24.8550   -1.0120   30.1430 C.3     1  UNL1        0.0451
      2 C         -24.9730   -2.5050   29.7880 C.2     1  UNL1       -0.0207
      3 C         -23.9060   -3.1730   29.1460 C.2     1  UNL1       -0.0042
      4 C         -23.9890   -4.5490   28.8530 C.2     1  UNL1       -0.0003
      5 C         -25.1370   -5.2800   29.2050 C.2     1  UNL1       -0.0000
      6 C         -26.2320   -4.6110   29.7840 C.2     1  UNL1       -0.0003
      7 C         -26.1550   -3.2320   30.0650 C.2     1  UNL1       -0.0042
      8 C         -25.3870   -0.6790   31.5710 C.3     1  UNL1        0.0931
      9 C         -25.1890    0.7730   32.0280 C.3     1  UNL1        0.0905
     10 C         -25.3360    0.6840   33.5440 C.3     1  UNL1        0.0376
     11 C         -24.8290   -0.7150   33.9050 C.3     1  UNL1        0.0902
     12 N         -24.7580   -1.4810   32.6460 N.3     1  UNL1       -0.2177
     13 C         -25.6880    1.6140   26.4610 C.3     1  UNL1        0.1264
     14 C         -26.2500    2.9200   26.3950 C.2     1  UNL1        0.0620
     15 C         -25.6420    4.0930   27.1230 C.2     1  UNL1        0.2629
     16 N         -25.6140    5.2520   26.4490 N.am    1  UNL1       -0.2000
     17 C         -25.0260    6.4790   26.9630 C.3     1  UNL1        0.1388
     18 O         -25.1430    3.9660   28.2430 O.2     1  UNL1       -0.2686
     19 C         -27.4380    3.0910   25.6450 C.2     1  UNL1        0.1026
     20 N         -28.0750    2.0890   25.0030 N.2     1  UNL1       -0.2118
     21 C         -27.5430    0.8490   25.0790 C.2     1  UNL1        0.2345
     22 O         -28.1930   -0.2080   24.4770 O.2     1  UNL1       -0.4585
     23 C         -29.4600    0.0050   23.8660 C.3     1  UNL1        0.2423
     24 C         -30.0650   -1.3770   23.5730 C.3     1  UNL1        0.2292
     25 O         -30.7290   -1.8780   24.7210 O.3     1  UNL1       -0.2162
     26 C         -26.3540    0.5760   25.7770 C.3     1  UNL1        0.2471
     27 F         -25.8600   -0.6810   25.7950 F       1  UNL1       -0.2264
     28 C         -24.0596    2.8409   31.1021 C.3     1  UNL1        0.1632
     29 O         -24.1433    0.8538   27.9214 O.2     1  UNL1       -0.4567
     30 C         -25.8680    4.5044   31.8736 C.3     1  UNL1        0.0566
     31 C         -24.4099    1.4728   26.7655 C.2     1  UNL1        0.1216
     32 C         -24.8443    5.3362   32.0509 C.3     1  UNL1        0.1122
     33 N         -26.0904    1.9712   31.5067 N.3     1  UNL1       -0.2168
     34 C         -26.9895    5.0218   32.5133 C.3     1  UNL1        0.1122
     35 N         -26.5298    5.9228   33.4524 N.3     1  UNL1       -0.1313
     36 C         -22.0278    1.9344   26.5634 C.3     1  UNL1        0.0354
     37 C         -23.2054    1.3646   28.5704 C.3     1  UNL1        0.2875
     38 C         -25.5884    3.2545   31.2417 C.3     1  UNL1        0.1053
     39 N         -25.2947    6.1380   33.2115 N.3     1  UNL1       -0.1313
     40 C         -21.9212    1.5758   27.9271 C.3     1  UNL1        0.0811
     41 O         -23.7045    1.6486   29.9582 O.3     1  UNL1       -0.3191
     42 C         -23.3231    2.0029   25.9967 C.2     1  UNL1        0.0069
@<TRIPOS>BOND
     1     2     7    1
     2     2     1    1
     3     3     2    2
     4     4     3    1
     5     4     5    2
     6     5     6    1
     7     6     7    2
     8     8     1    1
     9     8     9    1
    10     8    12    1
    11     9    33    1
    12     9    10    1
    13    10    11    1
    14    12    11    1
    15    13    31    1
    16    14    13    1
    17    14    15    1
    18    15    18    2
    19    16    17    1
    20    16    15    1
    21    19    14    2
    22    20    21    2
    23    20    19    1
    24    21    26    1
    25    22    21    1
    26    23    22    1
    27    24    23    1
    28    24    25    1
    29    26    27    1
    30    26    13    1
    31    29    37    1
    32    30    32    1
    33    30    34    1
    34    31    29    1
    35    32    39    1
    36    34    35    1
    37    36    40    1
    38    37    41    1
    39    38    28    1
    40    38    33    1
    41    38    30    1
    42    39    35    1
    43    40    37    1
    44    41    28    1
    45    42    36    1
    46    42    31    2
