@<TRIPOS>MOLECULE
No_3119-gen_results/8p0m/2024-11-27-11-27-31/
 24 26 0 0 0
SMALL
GASTEIGER

@<TRIPOS>ATOM
      1 C         -28.0162   -0.8135   28.8779 C.3     1  UNL1        0.0666
      2 C         -27.0636   -0.1189   28.6079 C.3     1  UNL1        0.2436
      3 N         -25.8176   -0.3427   29.0488 N.am    1  UNL1       -0.2318
      4 C         -24.6757    0.3814   28.7496 C.ar    1  UNL1        0.0562
      5 C         -24.0757    1.1905   29.4760 C.ar    1  UNL1        0.0150
      6 C         -22.8927    1.8970   29.0167 C.ar    1  UNL1        0.0013
      7 C         -22.3660    1.6048   27.6968 C.ar    1  UNL1        0.0001
      8 C         -23.1202    0.7515   26.9508 C.ar    1  UNL1        0.0013
      9 C         -24.2144    0.1648   27.3843 C.ar    1  UNL1        0.0150
     10 C         -27.8751   -1.6748   30.0582 C.3     1  UNL1        0.0906
     11 C         -26.6528   -2.0856   30.5181 C.3     1  UNL1        0.0949
     12 C         -25.5270   -1.3567   30.0605 C.2     1  UNL1        0.2317
     13 F         -27.0917    0.7190   27.5953 F       1  UNL1       -0.2144
     14 O         -24.4073   -1.5624   30.5245 O.2     1  UNL1       -0.2745
     15 C         -29.0977   -2.4751   30.5158 C.2     1  UNL1        0.2295
     16 O         -29.0748   -3.6588   30.4349 O.2     1  UNL1       -0.2745
     17 N         -29.9077   -1.8168   31.3269 N.am    1  UNL1       -0.2569
     18 C         -31.0515   -2.5320   31.9692 C.3     1  UNL1        0.1200
     19 C         -29.9313   -0.3929   31.5342 C.ar    1  UNL1        0.0539
     20 C         -31.0725    0.2294   31.1707 C.ar    1  UNL1        0.0149
     21 C         -31.1848    1.4593   31.5633 C.ar    1  UNL1        0.0013
     22 C         -30.1089    2.2262   32.1454 C.ar    1  UNL1        0.0001
     23 C         -28.9441    1.4834   32.5015 C.ar    1  UNL1        0.0013
     24 C         -28.8976    0.2270   32.2793 C.ar    1  UNL1        0.0149
@<TRIPOS>BOND
     1     1     2    1
     2     2     3    1
     3     3     4    1
     4     1    10    1
     5     3    12   am
     6    11    12    1
     7     2    13    1
     8    12    14    2
     9    10    15    1
    10    15    16    2
    11    15    17   am
    12    17    18    1
    13    17    19    1
    14    10    11    1
    15    19    20   ar
    16    20    21   ar
    17    21    22   ar
    18    22    23   ar
    19    23    24   ar
    20    24    19   ar
    21     4     5   ar
    22     5     6   ar
    23     6     7   ar
    24     7     8   ar
    25     8     9   ar
    26     9     4   ar
