@<TRIPOS>MOLECULE
outputs/IAG933/test6/raw/output_312_IAG933_linker_design_.xyz
 42 45 0 0 0
SMALL
GASTEIGER

@<TRIPOS>ATOM
      1 C         -24.8550   -1.0120   30.1430 C.3     1  UNL1        0.0590
      2 C         -24.9730   -2.5050   29.7880 C.2     1  UNL1       -0.0196
      3 C         -23.9060   -3.1730   29.1460 C.2     1  UNL1       -0.0042
      4 C         -23.9890   -4.5490   28.8530 C.2     1  UNL1       -0.0003
      5 C         -25.1370   -5.2800   29.2050 C.2     1  UNL1       -0.0000
      6 C         -26.2320   -4.6110   29.7840 C.2     1  UNL1       -0.0003
      7 C         -26.1550   -3.2320   30.0650 C.2     1  UNL1       -0.0042
      8 C         -25.3870   -0.6790   31.5710 C.3     1  UNL1        0.0943
      9 C         -25.1890    0.7730   32.0280 C.3     1  UNL1        0.0942
     10 C         -25.3360    0.6840   33.5440 C.3     1  UNL1        0.0377
     11 C         -24.8290   -0.7150   33.9050 C.3     1  UNL1        0.0902
     12 N         -24.7580   -1.4810   32.6460 N.3     1  UNL1       -0.2176
     13 C         -25.6880    1.6140   26.4610 C.2     1  UNL1        0.1063
     14 C         -26.2500    2.9200   26.3950 C.2     1  UNL1        0.0916
     15 C         -25.6420    4.0930   27.1230 C.2     1  UNL1        0.2677
     16 N         -25.6140    5.2520   26.4490 N.am    1  UNL1       -0.1997
     17 C         -25.0260    6.4790   26.9630 C.3     1  UNL1        0.1388
     18 O         -25.1430    3.9660   28.2430 O.2     1  UNL1       -0.2683
     19 C         -27.4380    3.0910   25.6450 C.2     1  UNL1        0.1080
     20 N         -28.0750    2.0890   25.0030 N.2     1  UNL1       -0.2080
     21 C         -27.5430    0.8490   25.0790 C.2     1  UNL1        0.2546
     22 O         -28.1930   -0.2080   24.4770 O.2     1  UNL1       -0.4558
     23 C         -29.4600    0.0050   23.8660 C.3     1  UNL1        0.2426
     24 C         -30.0650   -1.3770   23.5730 C.3     1  UNL1        0.2292
     25 O         -30.7290   -1.8780   24.7210 O.3     1  UNL1       -0.2162
     26 C         -26.3540    0.5760   25.7770 C.2     1  UNL1        0.2079
     27 F         -25.8600   -0.6810   25.7950 F       1  UNL1       -0.1979
     28 C         -25.7332   -0.2918   29.1034 C.3     1  UNL1        0.1177
     29 C         -24.8187    3.0164   31.1899 C.3     1  UNL1        0.3018
     30 N         -24.9281    1.6069   30.8908 N.3     1  UNL1       -0.1756
     31 C         -25.3410    4.4253   32.8552 C.2     1  UNL1        0.3188
     32 C         -20.6770    1.6543   27.0210 C.2     1  UNL1        0.0001
     33 C         -25.8836    5.7301   32.4919 C.3     1  UNL1        0.1212
     34 N         -24.7312    1.1322   27.2904 N.pl3   1  UNL1       -0.2129
     35 C         -23.4365    1.4460   27.3780 C.2     1  UNL1        0.0684
     36 C         -21.5412    2.1758   26.0485 C.2     1  UNL1        0.0013
     37 N         -24.9364    0.1283   27.9731 N.3     1  UNL1       -0.1256
     38 C         -21.1770    1.0928   28.1964 C.2     1  UNL1        0.0013
     39 C         -22.5676    1.0432   28.3779 C.2     1  UNL1        0.0163
     40 C         -22.9184    2.0907   26.2337 C.2     1  UNL1        0.0163
     41 O         -24.4184    4.3361   33.6844 O.2     1  UNL1       -0.2500
     42 O         -25.7837    3.3581   32.1976 O.3     1  UNL1       -0.4291
@<TRIPOS>BOND
     1     1    28    1
     2     2     7    1
     3     2     1    1
     4     3     2    2
     5     4     3    1
     6     4     5    2
     7     5     6    1
     8     6     7    2
     9     8     1    1
    10     8     9    1
    11     8    12    1
    12     9    30    1
    13     9    10    1
    14    10    11    1
    15    12    11    1
    16    13    34    1
    17    14    13    1
    18    14    15    1
    19    15    18    2
    20    16    17    1
    21    16    15    1
    22    19    14    2
    23    20    21    2
    24    20    19    1
    25    21    26    1
    26    22    21    1
    27    23    22    1
    28    24    23    1
    29    24    25    1
    30    26    27    1
    31    26    13    2
    32    29    42    1
    33    30    29    1
    34    31    41    2
    35    32    38    1
    36    33    31    1
    37    34    35    1
    38    34    37    1
    39    35    39    1
    40    36    40    1
    41    36    32    2
    42    37    28    1
    43    38    39    2
    44    40    35    2
    45    42    31    1
