@<TRIPOS>MOLECULE
outputs/IAG933/test6/raw/output_3120_IAG933_linker_design_.xyz
 44 47 0 0 0
SMALL
GASTEIGER

@<TRIPOS>ATOM
      1 C         -24.8550   -1.0120   30.1430 C.3     1  UNL1        0.0544
      2 C         -24.9730   -2.5050   29.7880 C.2     1  UNL1       -0.0198
      3 C         -23.9060   -3.1730   29.1460 C.2     1  UNL1       -0.0042
      4 C         -23.9890   -4.5490   28.8530 C.2     1  UNL1       -0.0003
      5 C         -25.1370   -5.2800   29.2050 C.2     1  UNL1       -0.0000
      6 C         -26.2320   -4.6110   29.7840 C.2     1  UNL1       -0.0003
      7 C         -26.1550   -3.2320   30.0650 C.2     1  UNL1       -0.0042
      8 C         -25.3870   -0.6790   31.5710 C.3     1  UNL1        0.0782
      9 C         -25.1890    0.7730   32.0280 C.3     1  UNL1        0.0192
     10 C         -25.3360    0.6840   33.5440 C.3     1  UNL1        0.0202
     11 C         -24.8290   -0.7150   33.9050 C.3     1  UNL1        0.0887
     12 N         -24.7580   -1.4810   32.6460 N.3     1  UNL1       -0.2191
     13 C         -25.6880    1.6140   26.4610 C.3     1  UNL1        0.1302
     14 C         -26.2500    2.9200   26.3950 C.2     1  UNL1        0.0696
     15 C         -25.6420    4.0930   27.1230 C.2     1  UNL1        0.2637
     16 N         -25.6140    5.2520   26.4490 N.am    1  UNL1       -0.2000
     17 C         -25.0260    6.4790   26.9630 C.3     1  UNL1        0.1388
     18 O         -25.1430    3.9660   28.2430 O.2     1  UNL1       -0.2686
     19 C         -27.4380    3.0910   25.6450 C.2     1  UNL1        0.1035
     20 N         -28.0750    2.0890   25.0030 N.2     1  UNL1       -0.2118
     21 C         -27.5430    0.8490   25.0790 C.2     1  UNL1        0.2355
     22 O         -28.1930   -0.2080   24.4770 O.2     1  UNL1       -0.4586
     23 C         -29.4600    0.0050   23.8660 C.3     1  UNL1        0.2388
     24 C         -30.0650   -1.3770   23.5730 C.3     1  UNL1        0.1893
     25 O         -30.7290   -1.8780   24.7210 O.3     1  UNL1       -0.3497
     26 C         -26.3540    0.5760   25.7770 C.3     1  UNL1        0.2546
     27 F         -25.8600   -0.6810   25.7950 F       1  UNL1       -0.2254
     28 N         -29.6041   -1.5991   29.0466 N.am    1  UNL1       -0.1579
     29 C         -23.5337    1.4791   27.2193 C.3     1  UNL1        0.2022
     30 C         -31.2491    0.1226   29.6523 C.2     1  UNL1        0.2808
     31 C         -24.6185    0.0198   28.8544 C.3     1  UNL1        0.0815
     32 C         -23.0969    0.3907   29.2618 C.3     1  UNL1        0.0908
     33 N         -24.9830    1.1579   27.6770 N.3     1  UNL1       -0.2423
     34 C         -30.7612   -0.7856   28.5177 C.3     1  UNL1        0.1804
     35 CL        -22.9478    2.1003   25.6817 Cl      1  UNL1       -0.0785
     36 C         -21.1236    1.3436   27.9342 C.3     1  UNL1        0.0918
     37 C         -30.5231   -1.4471   26.0390 C.3     1  UNL1        0.1446
     38 O         -30.5129    0.8145   30.4305 O.2     1  UNL1       -0.2698
     39 O         -28.7811   -1.3436   31.1804 O.co2   1  UNL1       -0.2207
     40 N         -32.6054    0.1720   29.8729 N.am    1  UNL1       -0.0863
     41 C         -31.4249   -1.4866   27.2708 C.3     1  UNL1        0.0633
     42 O         -27.6791   -0.5419   29.3349 O.co2   1  UNL1       -0.2207
     43 N         -22.4491    0.8348   28.0409 N.3     1  UNL1       -0.2454
     44 C         -28.7024   -1.1183   29.9494 C.2     1  UNL1        0.4633
@<TRIPOS>BOND
     1     1     2    1
     2     2     7    1
     3     3     2    2
     4     4     3    1
     5     4     5    2
     6     5     6    1
     7     6     7    2
     8     8     1    1
     9     8     9    1
    10     8    12    1
    11     9    10    1
    12    10    11    1
    13    12    11    1
    14    13    14    1
    15    14    15    1
    16    15    18    2
    17    16    17    1
    18    16    15    1
    19    19    14    2
    20    20    21    2
    21    20    19    1
    22    21    26    1
    23    22    21    1
    24    23    22    1
    25    24    23    1
    26    24    25    1
    27    25    37    1
    28    26    27    1
    29    26    13    1
    30    28    44    1
    31    29    35    1
    32    29    33    1
    33    29    43    1
    34    30    40    1
    35    30    38    2
    36    31    32    1
    37    31     1    1
    38    33    13    1
    39    33    31    1
    40    34    41    1
    41    34    28    1
    42    34    30    1
    43    36    43    1
    44    37    41    1
    45    42    44   ar
    46    43    32    1
    47    44    39   ar
