@<TRIPOS>MOLECULE
No_3121-gen_results/8p0m/2024-11-27-11-27-31/
 20 21 0 0 0
SMALL
GASTEIGER

@<TRIPOS>ATOM
      1 C         -28.0162   -0.8135   28.8779 C.ar    1  UNL1       -0.0039
      2 C         -27.0636   -0.1190   28.6079 C.ar    1  UNL1       -0.0178
      3 C         -26.9287    1.1713   29.0083 C.ar    1  UNL1       -0.0039
      4 C         -27.9560    1.7411   29.7840 C.ar    1  UNL1       -0.0003
      5 C         -29.0569   -0.3271   29.7466 C.ar    1  UNL1       -0.0003
      6 C         -28.9828    0.9722   30.1516 C.ar    1  UNL1       -0.0000
      7 C         -25.8907   -0.6263   27.7857 C.3     1  UNL1        0.0523
      8 C         -24.7182   -1.0610   28.6129 C.2     1  UNL1       -0.0214
      9 C         -24.6426   -2.2493   29.0885 C.2     1  UNL1       -0.0046
     10 C         -25.6814   -3.2133   28.9574 C.2     1  UNL1       -0.0046
     11 C         -25.4233   -4.5857   29.3871 C.2     1  UNL1       -0.0214
     12 C         -26.5581   -5.4056   29.4266 C.3     1  UNL1        0.0520
     13 C         -27.7373   -4.8130   30.0179 C.2     1  UNL1       -0.0214
     14 C         -28.0792   -4.3936   31.0140 C.2     1  UNL1       -0.0042
     15 C         -29.4541   -3.9722   31.4292 C.ar    1  UNL1       -0.0003
     16 C         -29.7246   -3.2439   32.5338 C.ar    1  UNL1       -0.0000
     17 C         -30.5296   -4.3620   30.5881 C.ar    1  UNL1       -0.0000
     18 C         -31.6757   -3.6150   30.5223 C.ar    1  UNL1       -0.0000
     19 C         -30.9955   -2.6085   32.6752 C.ar    1  UNL1       -0.0000
     20 C         -31.9743   -2.8471   31.6973 C.ar    1  UNL1       -0.0000
@<TRIPOS>BOND
     1     2     7    1
     2     7     8    1
     3     8     9    2
     4     9    10    1
     5    10    11    2
     6    11    12    1
     7    12    13    1
     8    13    14    2
     9    14    15    1
    10     1     2   ar
    11     2     3   ar
    12     3     4   ar
    13     4     6   ar
    14     6     5   ar
    15     5     1   ar
    16    15    16   ar
    17    16    19   ar
    18    19    20   ar
    19    20    18   ar
    20    18    17   ar
    21    17    15   ar
