@<TRIPOS>MOLECULE
No_3123-gen_results/8p0m/2024-11-27-11-27-31/
 25 27 0 0 0
SMALL
GASTEIGER

@<TRIPOS>ATOM
      1 C         -28.0162   -0.8135   28.8779 C.ar    1  UNL1       -0.0029
      2 C         -27.0636   -0.1189   28.6079 C.ar    1  UNL1       -0.0003
      3 C         -25.7647   -0.3897   29.0360 C.ar    1  UNL1       -0.0000
      4 C         -25.5296   -1.5302   29.9014 C.ar    1  UNL1       -0.0003
      5 C         -26.6577   -2.2915   30.2035 C.ar    1  UNL1       -0.0029
      6 C         -27.8548   -1.9555   29.7630 C.ar    1  UNL1       -0.0051
      7 C         -24.5349    0.4128   28.7431 C.ar    1  UNL1       -0.0000
      8 C         -23.3062    0.0366   29.0393 C.ar    1  UNL1       -0.0000
      9 C         -22.1759    0.8277   28.6836 C.ar    1  UNL1        0.0000
     10 C         -22.3944    1.5883   27.5216 C.ar    1  UNL1        0.0000
     11 C         -24.5394    1.4254   27.6748 C.ar    1  UNL1       -0.0000
     12 C         -23.5207    2.0247   27.1793 C.ar    1  UNL1        0.0000
     13 C         -29.0194   -2.7799   30.1894 C.3     1  UNL1        0.1109
     14 N         -28.8728   -4.0961   30.4172 N.3     1  UNL1       -0.2122
     15 C         -29.6995   -4.8192   31.1928 C.3     1  UNL1        0.1064
     16 C         -30.9907   -4.7960   30.9140 C.3     1  UNL1        0.0914
     17 N         -31.5185   -3.5277   30.6342 N.3     1  UNL1       -0.2662
     18 C         -30.4603   -2.3849   30.3348 C.3     1  UNL1        0.0945
     19 C         -32.8231   -3.0837   30.5364 C.3     1  UNL1        0.0990
     20 C         -33.1682   -2.0785   31.2992 C.2     1  UNL1       -0.0088
     21 C         -32.4956   -1.6356   32.2145 C.2     1  UNL1       -0.0032
     22 C         -32.4635   -0.5823   32.8811 C.2     1  UNL1       -0.0003
     23 C         -31.6162   -0.1285   34.0017 C.2     1  UNL1       -0.0000
     24 C         -30.5323   -1.0020   34.2685 C.2     1  UNL1       -0.0000
     25 C         -30.3883   -2.1651   33.5027 C.2     1  UNL1       -0.0000
@<TRIPOS>BOND
     1     3     7    1
     2     6    13    1
     3    13    14    1
     4    14    15    1
     5    15    16    1
     6    16    17    1
     7    13    18    1
     8    17    18    1
     9    17    19    1
    10    19    20    1
    11    20    21    2
    12    21    22    1
    13    22    23    2
    14    23    24    1
    15    24    25    2
    16     7     8   ar
    17     8     9   ar
    18     9    10   ar
    19    10    12   ar
    20    12    11   ar
    21    11     7   ar
    22     1     2   ar
    23     2     3   ar
    24     3     4   ar
    25     4     5   ar
    26     5     6   ar
    27     6     1   ar
