@<TRIPOS>MOLECULE
No_3124-gen_results/8p0m/2024-11-27-11-27-31/
 33 37 0 0 0
SMALL
GASTEIGER

@<TRIPOS>ATOM
      1 F         -28.0727   -1.2542   28.5316 F       1  UNL1       -0.2009
      2 C         -27.0607   -0.6291   28.8721 C.ar    1  UNL1        0.1744
      3 C         -26.3579   -0.0711   28.0115 C.ar    1  UNL1        0.1724
      4 C         -25.0715    0.5530   28.2555 C.ar    1  UNL1        0.0368
      5 C         -24.5772    0.4803   29.5696 C.ar    1  UNL1        0.0032
      6 C         -25.3317   -0.2027   30.5060 C.ar    1  UNL1        0.0025
      7 C         -26.4956   -0.7357   30.1606 C.ar    1  UNL1        0.0328
      8 C         -24.2570    1.2519   27.2615 C.ar    1  UNL1        0.0030
      9 C         -24.5845    1.8518   26.2650 C.ar    1  UNL1        0.0001
     10 C         -22.7798    1.3770   27.6267 C.ar    1  UNL1        0.0001
     11 C         -21.9441    2.0590   26.7220 C.ar    1  UNL1        0.0000
     12 C         -23.7235    2.5772   25.3659 C.ar    1  UNL1        0.0000
     13 C         -22.4104    2.6747   25.6708 C.ar    1  UNL1        0.0000
     14 O         -26.7383   -0.0016   26.7302 O.3     1  UNL1       -0.4512
     15 C         -27.9112    0.5125   26.3460 C.ar    1  UNL1        0.1458
     16 C         -28.5295    1.3488   27.0212 C.ar    1  UNL1        0.0409
     17 C         -29.3882    2.0383   26.8527 C.ar    1  UNL1        0.0065
     18 C         -30.0406    3.0799   27.7369 C.ar    1  UNL1        0.0002
     19 C         -29.5558    3.1933   29.0386 C.ar    1  UNL1        0.0005
     20 C         -28.5244    2.3475   29.4308 C.ar    1  UNL1        0.0068
     21 C         -27.9850    1.5103   28.5211 C.ar    1  UNL1        0.0375
     22 BR        -26.6837    1.5608   28.9997 Br      1  UNL1       -0.0489
     23 C         -28.4144    0.1265   25.0627 C.ar    1  UNL1        0.0376
     24 C         -29.6558    0.4695   24.6615 C.ar    1  UNL1        0.0063
     25 C         -30.1789    1.6487   25.5276 C.ar    1  UNL1        0.0392
     26 C         -31.4903    2.2365   25.1219 C.2     1  UNL1        0.1955
     27 C         -32.4876    1.8367   25.7315 C.ar    1  UNL1        0.0390
     28 C         -32.7833    0.9714   26.3901 C.ar    1  UNL1        0.0032
     29 C         -34.0299    0.5904   27.0552 C.ar    1  UNL1        0.0001
     30 C         -35.0789    1.4571   26.7771 C.ar    1  UNL1        0.0000
     31 C         -34.9124    2.5428   25.9894 C.ar    1  UNL1        0.0001
     32 C         -33.6906    2.8684   25.4513 C.ar    1  UNL1        0.0032
     33 O         -31.2120    3.1723   24.2711 O.2     1  UNL1       -0.2866
@<TRIPOS>BOND
     1     1     2    1
     2     4     8    1
     3     3    14    1
     4    14    15    1
     5    21    22    1
     6    25    26    1
     7    26    27    1
     8    26    33    2
     9     2     3   ar
    10     3     4   ar
    11     4     5   ar
    12     5     6   ar
    13     6     7   ar
    14     7     2   ar
    15    27    28   ar
    16    28    29   ar
    17    29    30   ar
    18    30    31   ar
    19    31    32   ar
    20    32    27   ar
    21    15    16   ar
    22    17    25   ar
    23    25    24   ar
    24    24    23   ar
    25    23    15   ar
    26     8     9   ar
    27     9    12   ar
    28    12    13   ar
    29    13    11   ar
    30    11    10   ar
    31    10     8   ar
    32    16    17   ar
    33    17    18   ar
    34    18    19   ar
    35    19    20   ar
    36    20    21   ar
    37    21    16   ar
