@<TRIPOS>MOLECULE
outputs/IAG933/test6/raw/output_3128_IAG933_linker_design_.xyz
 46 49 0 0 0
SMALL
GASTEIGER

@<TRIPOS>ATOM
      1 C         -24.8550   -1.0120   30.1430 C.3     1  UNL1        0.1140
      2 C         -24.9730   -2.5050   29.7880 C.2     1  UNL1       -0.0029
      3 C         -23.9060   -3.1730   29.1460 C.2     1  UNL1       -0.0026
      4 C         -23.9890   -4.5490   28.8530 C.2     1  UNL1       -0.0003
      5 C         -25.1370   -5.2800   29.2050 C.2     1  UNL1       -0.0000
      6 C         -26.2320   -4.6110   29.7840 C.2     1  UNL1       -0.0003
      7 C         -26.1550   -3.2320   30.0650 C.2     1  UNL1       -0.0026
      8 C         -25.3870   -0.6790   31.5710 C.3     1  UNL1        0.0951
      9 C         -25.1890    0.7730   32.0280 C.3     1  UNL1        0.0209
     10 C         -25.3360    0.6840   33.5440 C.3     1  UNL1        0.0203
     11 C         -24.8290   -0.7150   33.9050 C.3     1  UNL1        0.0888
     12 N         -24.7580   -1.4810   32.6460 N.3     1  UNL1       -0.2174
     13 C         -25.6880    1.6140   26.4610 C.2     1  UNL1        0.0407
     14 C         -26.2500    2.9200   26.3950 C.2     1  UNL1        0.0745
     15 C         -25.6420    4.0930   27.1230 C.2     1  UNL1        0.2234
     16 N         -25.6140    5.2520   26.4490 N.2     1  UNL1       -0.2356
     17 C         -25.0260    6.4790   26.9630 C.3     1  UNL1        0.1550
     18 O         -25.1430    3.9660   28.2430 O.2     1  UNL1       -0.4431
     19 C         -27.4380    3.0910   25.6450 C.2     1  UNL1        0.1068
     20 N         -28.0750    2.0890   25.0030 N.2     1  UNL1       -0.2081
     21 C         -27.5430    0.8490   25.0790 C.2     1  UNL1        0.2533
     22 O         -28.1930   -0.2080   24.4770 O.2     1  UNL1       -0.4558
     23 C         -29.4600    0.0050   23.8660 C.3     1  UNL1        0.2426
     24 C         -30.0650   -1.3770   23.5730 C.3     1  UNL1        0.2292
     25 O         -30.7290   -1.8780   24.7210 O.3     1  UNL1       -0.2162
     26 C         -26.3540    0.5760   25.7770 C.2     1  UNL1        0.1931
     27 F         -25.8600   -0.6810   25.7950 F       1  UNL1       -0.1992
     28 C         -22.9955    0.3293   29.0291 C.2     1  UNL1        0.2765
     29 C         -22.4561    1.1271   27.8279 C.2     1  UNL1        0.1891
     30 C         -24.9245    1.0832   28.4025 C.3     1  UNL1        0.0815
     31 C         -23.4018    1.7982   26.8703 C.2     1  UNL1        0.0085
     32 C         -25.1418    3.2051   29.3272 C.3     1  UNL1        0.2636
     33 C         -28.6922    2.4581   32.3336 C.2     1  UNL1       -0.0002
     34 O         -22.2195   -0.1496   29.9463 O.2     1  UNL1       -0.2674
     35 C         -27.5715    3.6062   30.5787 C.2     1  UNL1       -0.0069
     36 C         -24.6589    1.5336   27.5575 C.3     1  UNL1        0.0217
     37 C         -27.8393    4.3753   29.3336 C.3     1  UNL1        0.0324
     38 C         -28.6081    2.7686   30.9836 C.2     1  UNL1       -0.0030
     39 C         -27.7368    2.8873   33.2283 C.2     1  UNL1        0.0013
     40 C         -25.0867    1.7557   28.7471 C.3     1  UNL1        0.0870
     41 N         -24.3092    0.0236   29.3583 N.am    1  UNL1       -0.2722
     42 N         -25.2507    3.6668   30.7485 N.pl3   1  UNL1       -0.1996
     43 C         -26.5995    3.5516   32.7431 C.2     1  UNL1        0.0159
     44 F         -21.1606    1.2302   27.6895 F       1  UNL1       -0.1997
     45 C         -26.4835    3.6539   31.3840 C.2     1  UNL1        0.0649
     46 C         -22.9699    2.4357   25.5329 C.3     1  UNL1        0.0333
@<TRIPOS>BOND
     1     1    41    1
     2     2     7    1
     3     2     1    1
     4     3     2    2
     5     4     3    1
     6     4     5    2
     7     5     6    1
     8     6     7    2
     9     8     1    1
    10     8     9    1
    11     8    12    1
    12     9    10    1
    13    10    11    1
    14    12    11    1
    15    14    13    1
    16    14    15    1
    17    15    18    1
    18    16    17    1
    19    16    15    2
    20    18    32    1
    21    19    14    2
    22    20    21    2
    23    20    19    1
    24    21    26    1
    25    22    21    1
    26    23    22    1
    27    24    23    1
    28    24    25    1
    29    26    27    1
    30    26    13    2
    31    28    41   am
    32    28    34    2
    33    29    28    1
    34    30    36    1
    35    30    40    1
    36    30    41    1
    37    31    29    2
    38    32    40    1
    39    32    42    1
    40    33    39    1
    41    35    38    1
    42    35    45    2
    43    37    35    1
    44    38    33    2
    45    42    45    1
    46    43    39    2
    47    44    29    1
    48    45    43    1
    49    46    31    1
