@<TRIPOS>MOLECULE
outputs/IAG933/test6/raw/output_3129_IAG933_linker_design_.xyz
 44 48 0 0 0
SMALL
GASTEIGER

@<TRIPOS>ATOM
      1 C         -24.8550   -1.0120   30.1430 C.3     1  UNL1        0.2529
      2 C         -24.9730   -2.5050   29.7880 C.2     1  UNL1        0.0275
      3 C         -23.9060   -3.1730   29.1460 C.2     1  UNL1       -0.0001
      4 C         -23.9890   -4.5490   28.8530 C.2     1  UNL1       -0.0002
      5 C         -25.1370   -5.2800   29.2050 C.2     1  UNL1       -0.0000
      6 C         -26.2320   -4.6110   29.7840 C.2     1  UNL1       -0.0002
      7 C         -26.1550   -3.2320   30.0650 C.2     1  UNL1       -0.0001
      8 C         -25.3870   -0.6790   31.5710 C.3     1  UNL1        0.1260
      9 C         -25.1890    0.7730   32.0280 C.3     1  UNL1        0.0237
     10 C         -25.3360    0.6840   33.5440 C.3     1  UNL1        0.0204
     11 C         -24.8290   -0.7150   33.9050 C.3     1  UNL1        0.0889
     12 N         -24.7580   -1.4810   32.6460 N.3     1  UNL1       -0.2147
     13 C         -25.6880    1.6140   26.4610 C.3     1  UNL1        0.2349
     14 C         -26.2500    2.9200   26.3950 C.2     1  UNL1        0.0977
     15 C         -25.6420    4.0930   27.1230 C.2     1  UNL1        0.2662
     16 N         -25.6140    5.2520   26.4490 N.am    1  UNL1       -0.1999
     17 C         -25.0260    6.4790   26.9630 C.3     1  UNL1        0.1388
     18 O         -25.1430    3.9660   28.2430 O.2     1  UNL1       -0.2685
     19 C         -27.4380    3.0910   25.6450 C.2     1  UNL1        0.1061
     20 N         -28.0750    2.0890   25.0030 N.2     1  UNL1       -0.2116
     21 C         -27.5430    0.8490   25.0790 C.2     1  UNL1        0.2384
     22 O         -28.1930   -0.2080   24.4770 O.2     1  UNL1       -0.4584
     23 C         -29.4600    0.0050   23.8660 C.3     1  UNL1        0.2423
     24 C         -30.0650   -1.3770   23.5730 C.3     1  UNL1        0.2292
     25 O         -30.7290   -1.8780   24.7210 O.3     1  UNL1       -0.2162
     26 C         -26.3540    0.5760   25.7770 C.3     1  UNL1        0.2828
     27 F         -25.8600   -0.6810   25.7950 F       1  UNL1       -0.2224
     28 O         -27.4496   -0.7592   28.3406 O.2     1  UNL1       -0.2819
     29 C         -30.8515    1.7112   31.1152 C.3     1  UNL1        0.0174
     30 C         -28.8944   -0.1779   32.4305 C.3     1  UNL1        0.0725
     31 C         -29.7615    2.1850   32.1035 C.3     1  UNL1        0.0029
     32 N         -29.3747   -0.2250   31.0428 N.3     1  UNL1       -0.2660
     33 N         -24.8011    0.0229   29.1656 N.2     1  UNL1       -0.0607
     34 C         -28.6291    0.4087   30.0191 C.3     1  UNL1        0.1503
     35 C         -23.4631    1.4592   27.2541 C.2     1  UNL1        0.1800
     36 C         -29.3151    1.1190   33.1205 C.3     1  UNL1        0.0174
     37 C         -22.5352    1.4104   28.1987 C.2     1  UNL1        0.2198
     38 C         -27.3311    0.0145   28.9013 C.2     1  UNL1        0.2704
     39 C         -25.6351    0.6894   28.6126 C.2     1  UNL1        0.3598
     40 C         -21.5688    1.9728   26.2047 C.2     1  UNL1        0.1835
     41 N         -24.8234    1.1766   27.4044 N.pl3   1  UNL1       -0.1616
     42 C         -22.8696    1.7779   25.9695 C.2     1  UNL1        0.0842
     43 O         -21.4001    1.6356   27.5039 O.2     1  UNL1       -0.4436
     44 C         -30.8305    0.1604   31.0666 C.3     1  UNL1        0.0725
@<TRIPOS>BOND
     1     1    33    1
     2     2     7    1
     3     2     1    1
     4     3     2    2
     5     4     3    1
     6     4     5    2
     7     5     6    1
     8     6     7    2
     9     8     1    1
    10     8     9    1
    11     8    12    1
    12     9    10    1
    13    10    11    1
    14    12    11    1
    15    13    41    1
    16    14    13    1
    17    14    15    1
    18    15    18    2
    19    16    17    1
    20    16    15    1
    21    19    14    2
    22    20    21    2
    23    20    19    1
    24    21    26    1
    25    22    21    1
    26    23    22    1
    27    24    23    1
    28    24    25    1
    29    26    27    1
    30    26    13    1
    31    28    38    2
    32    29    31    1
    33    30    36    1
    34    31    36    1
    35    32    44    1
    36    32    30    1
    37    34    32    1
    38    35    41    1
    39    35    37    2
    40    38    34    1
    41    39    38    1
    42    39    33    2
    43    40    43    1
    44    41    39    1
    45    42    40    2
    46    42    35    1
    47    43    37    1
    48    44    29    1
