@<TRIPOS>MOLECULE
outputs/IAG933/test6/raw/output_313_IAG933_linker_design_.xyz
 48 52 0 0 0
SMALL
GASTEIGER

@<TRIPOS>ATOM
      1 C         -24.8550   -1.0120   30.1430 C.3     1  UNL1        0.0421
      2 C         -24.9730   -2.5050   29.7880 C.2     1  UNL1       -0.0208
      3 C         -23.9060   -3.1730   29.1460 C.2     1  UNL1       -0.0042
      4 C         -23.9890   -4.5490   28.8530 C.2     1  UNL1       -0.0003
      5 C         -25.1370   -5.2800   29.2050 C.2     1  UNL1       -0.0000
      6 C         -26.2320   -4.6110   29.7840 C.2     1  UNL1       -0.0003
      7 C         -26.1550   -3.2320   30.0650 C.2     1  UNL1       -0.0042
      8 C         -25.3870   -0.6790   31.5710 C.3     1  UNL1        0.0771
      9 C         -25.1890    0.7730   32.0280 C.3     1  UNL1        0.0192
     10 C         -25.3360    0.6840   33.5440 C.3     1  UNL1        0.0202
     11 C         -24.8290   -0.7150   33.9050 C.3     1  UNL1        0.0887
     12 N         -24.7580   -1.4810   32.6460 N.3     1  UNL1       -0.2191
     13 C         -25.6880    1.6140   26.4610 C.2     1  UNL1        0.0375
     14 C         -26.2500    2.9200   26.3950 C.2     1  UNL1        0.0765
     15 C         -25.6420    4.0930   27.1230 C.2     1  UNL1        0.2664
     16 N         -25.6140    5.2520   26.4490 N.am    1  UNL1       -0.1997
     17 C         -25.0260    6.4790   26.9630 C.3     1  UNL1        0.1388
     18 O         -25.1430    3.9660   28.2430 O.2     1  UNL1       -0.2683
     19 C         -27.4380    3.0910   25.6450 C.2     1  UNL1        0.1067
     20 N         -28.0750    2.0890   25.0030 N.2     1  UNL1       -0.2081
     21 C         -27.5430    0.8490   25.0790 C.2     1  UNL1        0.2533
     22 O         -28.1930   -0.2080   24.4770 O.2     1  UNL1       -0.4558
     23 C         -29.4600    0.0050   23.8660 C.3     1  UNL1        0.2426
     24 C         -30.0650   -1.3770   23.5730 C.3     1  UNL1        0.2292
     25 O         -30.7290   -1.8780   24.7210 O.3     1  UNL1       -0.2162
     26 C         -26.3540    0.5760   25.7770 C.2     1  UNL1        0.1930
     27 F         -25.8600   -0.6810   25.7950 F       1  UNL1       -0.1992
     28 C         -23.9932    0.5348   28.3045 C.2     1  UNL1       -0.0397
     29 O         -29.5655   -1.7983   29.9435 O.3     1  UNL1       -0.2177
     30 C         -27.5973    0.1405   29.1507 C.3     1  UNL1        0.0029
     31 C         -31.4915    1.8607   27.2585 C.3     1  UNL1        0.1193
     32 C         -22.9781    1.8212   26.4241 C.2     1  UNL1       -0.0048
     33 C         -26.3391    0.9686   29.2122 C.3     1  UNL1        0.0045
     34 C         -30.0077    0.5321   28.9582 C.3     1  UNL1        0.1480
     35 C         -31.6943    2.4403   29.6940 C.3     1  UNL1        0.2080
     36 C         -25.2006   -0.0368   28.9350 C.3     1  UNL1        0.0240
     37 C         -32.4759    2.1469   28.3711 C.3     1  UNL1        0.0768
     38 C         -31.5540    4.0992   25.9914 C.3     1  UNL1        0.0318
     39 C         -29.9718   -1.0496   28.7975 C.3     1  UNL1        0.2114
     40 C         -22.7120    0.5373   28.6140 C.3     1  UNL1        0.0480
     41 C         -24.3382    1.2896   26.9902 C.2     1  UNL1       -0.0054
     42 C         -31.0839    4.5607   27.4315 C.2     1  UNL1        0.0139
     43 O         -30.2028    1.5189   27.7550 O.3     1  UNL1       -0.3559
     44 O         -30.3384    3.2339   29.5787 O.2     1  UNL1       -0.4727
     45 C         -31.4955    2.5929   25.9606 C.3     1  UNL1        0.0344
     46 C         -21.9916    1.3987   27.5563 C.2     1  UNL1       -0.0218
     47 C         -30.6349    4.3102   28.9422 C.2     1  UNL1        0.1676
     48 C         -28.7835    0.7887   29.6585 C.3     1  UNL1        0.0323
@<TRIPOS>BOND
     1     1    36    1
     2     2     7    1
     3     2     1    1
     4     3     2    2
     5     4     3    1
     6     4     5    2
     7     5     6    1
     8     6     7    2
     9     8     1    1
    10     8     9    1
    11     8    12    1
    12     9    10    1
    13    10    11    1
    14    12    11    1
    15    13    41    1
    16    14    13    1
    17    14    15    1
    18    15    18    2
    19    16    17    1
    20    16    15    1
    21    19    14    2
    22    20    21    2
    23    20    19    1
    24    21    26    1
    25    22    21    1
    26    23    22    1
    27    24    23    1
    28    24    25    1
    29    26    27    1
    30    26    13    2
    31    28    40    1
    32    28    36    1
    33    30    33    1
    34    30    48    1
    35    31    43    1
    36    31    37    1
    37    32    41    1
    38    32    46    2
    39    34    39    1
    40    34    48    1
    41    36    33    1
    42    37    35    1
    43    38    42    1
    44    39    29    1
    45    41    28    2
    46    42    47    2
    47    43    34    1
    48    44    35    1
    49    45    38    1
    50    45    31    1
    51    46    40    1
    52    47    44    1
