@<TRIPOS>MOLECULE
No_3130-gen_results/8p0m/2024-11-27-11-27-31/
 18 18 0 0 0
SMALL
GASTEIGER

@<TRIPOS>ATOM
      1 C         -28.0162   -0.8135   28.8779 C.ar    1  UNL1       -0.0026
      2 C         -28.4690   -0.7850   29.8287 C.ar    1  UNL1       -0.0002
      3 C         -28.1960    0.3478   28.0550 C.ar    1  UNL1       -0.0017
      4 C         -27.4421    0.5100   26.7946 C.3     1  UNL1        0.0453
      5 C         -26.4394    0.8329   26.6142 C.2     1  UNL1       -0.0266
      6 C         -25.2139    0.6623   26.7019 C.2     1  UNL1       -0.0300
      7 C         -23.9079    0.8048   27.1307 C.3     1  UNL1        0.0300
      8 C         -23.3924    1.0662   28.3713 C.3     1  UNL1        0.0264
      9 C         -22.0357    0.9446   28.5934 C.3     1  UNL1        0.0050
     10 C         -29.5245    0.0365   30.3477 C.ar    1  UNL1        0.0014
     11 C         -29.0033    1.3831   28.4714 C.ar    1  UNL1        0.0854
     12 N         -29.2485    2.4970   27.6956 N.pl3   1  UNL1       -0.1284
     13 C         -29.7017    1.2614   29.6700 C.ar    1  UNL1        0.0177
     14 C         -24.2644    1.3629   29.4912 C.2     1  UNL1       -0.0261
     15 C         -28.3252   -0.0127   25.6570 C.3     1  UNL1        0.0094
     16 C         -24.5925    2.5917   29.8944 C.2     1  UNL1       -0.0046
     17 C         -25.5015    2.7499   31.0377 C.2     1  UNL1       -0.0003
     18 C         -25.9997    1.5599   31.5948 C.2     1  UNL1       -0.0000
@<TRIPOS>BOND
     1     3     4    1
     2     4     5    1
     3     5     6    2
     4     6     7    1
     5     7     8    1
     6     8     9    1
     7    11    12    1
     8     8    14    1
     9     4    15    1
    10    14    16    2
    11    16    17    1
    12    17    18    2
    13     1     2   ar
    14     2    10   ar
    15    10    13   ar
    16    13    11   ar
    17    11     3   ar
    18     3     1   ar
