@<TRIPOS>MOLECULE
outputs/IAG933/test6/raw/output_3132_IAG933_linker_design_.xyz
 42 44 0 0 0
SMALL
GASTEIGER

@<TRIPOS>ATOM
      1 C         -24.8550   -1.0120   30.1430 C.3     1  UNL1        0.0462
      2 C         -24.9730   -2.5050   29.7880 C.2     1  UNL1       -0.0207
      3 C         -23.9060   -3.1730   29.1460 C.2     1  UNL1       -0.0042
      4 C         -23.9890   -4.5490   28.8530 C.2     1  UNL1       -0.0003
      5 C         -25.1370   -5.2800   29.2050 C.2     1  UNL1       -0.0000
      6 C         -26.2320   -4.6110   29.7840 C.2     1  UNL1       -0.0003
      7 C         -26.1550   -3.2320   30.0650 C.2     1  UNL1       -0.0042
      8 C         -25.3870   -0.6790   31.5710 C.3     1  UNL1        0.1042
      9 C         -25.1890    0.7730   32.0280 C.3     1  UNL1        0.1330
     10 C         -25.3360    0.6840   33.5440 C.3     1  UNL1        0.0498
     11 C         -24.8290   -0.7150   33.9050 C.3     1  UNL1        0.0913
     12 N         -24.7580   -1.4810   32.6460 N.3     1  UNL1       -0.2166
     13 C         -25.6880    1.6140   26.4610 C.2     1  UNL1        0.0407
     14 C         -26.2500    2.9200   26.3950 C.2     1  UNL1        0.0744
     15 C         -25.6420    4.0930   27.1230 C.2     1  UNL1        0.2220
     16 N         -25.6140    5.2520   26.4490 N.2     1  UNL1       -0.2357
     17 C         -25.0260    6.4790   26.9630 C.3     1  UNL1        0.1550
     18 O         -25.1430    3.9660   28.2430 O.2     1  UNL1       -0.4585
     19 C         -27.4380    3.0910   25.6450 C.2     1  UNL1        0.1068
     20 N         -28.0750    2.0890   25.0030 N.2     1  UNL1       -0.2081
     21 C         -27.5430    0.8490   25.0790 C.2     1  UNL1        0.2533
     22 O         -28.1930   -0.2080   24.4770 O.2     1  UNL1       -0.4558
     23 C         -29.4600    0.0050   23.8660 C.3     1  UNL1        0.2426
     24 C         -30.0650   -1.3770   23.5730 C.3     1  UNL1        0.2292
     25 O         -30.7290   -1.8780   24.7210 O.3     1  UNL1       -0.2162
     26 C         -26.3540    0.5760   25.7770 C.2     1  UNL1        0.1931
     27 F         -25.8600   -0.6810   25.7950 F       1  UNL1       -0.1992
     28 C         -22.6268    0.5725   28.5479 C.3     1  UNL1        0.2565
     29 C         -23.6087    2.1625   30.2450 C.3     1  UNL1        0.1761
     30 O         -22.1829    2.1792   26.8674 O.co2   1  UNL1       -0.2428
     31 O         -20.4387    1.2217   27.7107 O.co2   1  UNL1       -0.2428
     32 N         -27.3737    6.5646   31.3192 N.am    1  UNL1       -0.0856
     33 O         -27.4295    5.5664   29.1994 O.2     1  UNL1       -0.2689
     34 C         -21.6595    1.3629   27.6447 C.2     1  UNL1        0.3944
     35 C         -25.6587    4.5101   33.3749 C.3     1  UNL1        0.1748
     36 O         -25.7564    1.7373   31.3373 O.3     1  UNL1       -0.3509
     37 C         -25.4601    3.7893   29.6050 C.3     1  UNL1        0.2327
     38 C         -24.9032    2.7353   30.5120 C.3     1  UNL1        0.1873
     39 C         -26.0919    4.5119   30.7979 C.3     1  UNL1        0.2370
     40 O         -23.7457    1.4985   28.9189 O.3     1  UNL1       -0.3401
     41 C         -27.0118    5.6205   30.3253 C.2     1  UNL1        0.2917
     42 O         -26.1471    4.0998   32.1222 O.3     1  UNL1       -0.3411
@<TRIPOS>BOND
     1     2     7    1
     2     2     1    1
     3     3     2    2
     4     4     3    1
     5     4     5    2
     6     5     6    1
     7     6     7    2
     8     8     1    1
     9     8     9    1
    10     8    12    1
    11     9    36    1
    12     9    10    1
    13    10    11    1
    14    12    11    1
    15    14    13    1
    16    14    15    1
    17    15    18    1
    18    16    17    1
    19    16    15    2
    20    19    14    2
    21    20    21    2
    22    20    19    1
    23    21    26    1
    24    22    21    1
    25    23    22    1
    26    24    23    1
    27    24    25    1
    28    26    27    1
    29    26    13    2
    30    28    40    1
    31    30    34   ar
    32    33    41    2
    33    34    31   ar
    34    34    28    1
    35    37    18    1
    36    37    38    1
    37    37    39    1
    38    38    29    1
    39    38    36    1
    40    39    41    1
    41    39    42    1
    42    40    29    1
    43    41    32    1
    44    42    35    1
