@<TRIPOS>MOLECULE
outputs/IAG933/test6/raw/output_3133_IAG933_linker_design_.xyz
 46 51 0 0 0
SMALL
GASTEIGER

@<TRIPOS>ATOM
      1 C         -24.8550   -1.0120   30.1430 C.3     1  UNL1        0.0704
      2 C         -24.9730   -2.5050   29.7880 C.2     1  UNL1       -0.0186
      3 C         -23.9060   -3.1730   29.1460 C.2     1  UNL1       -0.0042
      4 C         -23.9890   -4.5490   28.8530 C.2     1  UNL1       -0.0003
      5 C         -25.1370   -5.2800   29.2050 C.2     1  UNL1       -0.0000
      6 C         -26.2320   -4.6110   29.7840 C.2     1  UNL1       -0.0003
      7 C         -26.1550   -3.2320   30.0650 C.2     1  UNL1       -0.0042
      8 C         -25.3870   -0.6790   31.5710 C.3     1  UNL1        0.0793
      9 C         -25.1890    0.7730   32.0280 C.3     1  UNL1        0.0193
     10 C         -25.3360    0.6840   33.5440 C.3     1  UNL1        0.0202
     11 C         -24.8290   -0.7150   33.9050 C.3     1  UNL1        0.0887
     12 N         -24.7580   -1.4810   32.6460 N.3     1  UNL1       -0.2190
     13 C         -25.6880    1.6140   26.4610 C.2     1  UNL1        0.0407
     14 C         -26.2500    2.9200   26.3950 C.2     1  UNL1        0.0745
     15 C         -25.6420    4.0930   27.1230 C.2     1  UNL1        0.2254
     16 N         -25.6140    5.2520   26.4490 N.2     1  UNL1       -0.2356
     17 C         -25.0260    6.4790   26.9630 C.3     1  UNL1        0.1550
     18 O         -25.1430    3.9660   28.2430 O.2     1  UNL1       -0.4221
     19 C         -27.4380    3.0910   25.6450 C.2     1  UNL1        0.1068
     20 N         -28.0750    2.0890   25.0030 N.2     1  UNL1       -0.2081
     21 C         -27.5430    0.8490   25.0790 C.2     1  UNL1        0.2533
     22 O         -28.1930   -0.2080   24.4770 O.2     1  UNL1       -0.4558
     23 C         -29.4600    0.0050   23.8660 C.3     1  UNL1        0.2426
     24 C         -30.0650   -1.3770   23.5730 C.3     1  UNL1        0.2292
     25 O         -30.7290   -1.8780   24.7210 O.3     1  UNL1       -0.2162
     26 C         -26.3540    0.5760   25.7770 C.2     1  UNL1        0.1931
     27 F         -25.8600   -0.6810   25.7950 F       1  UNL1       -0.1992
     28 C         -28.5865    0.1476   29.0558 C.2     1  UNL1        0.3756
     29 C         -24.0943   -0.0918   29.5743 C.3     1  UNL1        0.1742
     30 O         -29.0114   -0.9579   28.8219 O.2     1  UNL1       -0.2377
     31 O         -21.9344    1.0168   27.6950 O.3     1  UNL1       -0.3293
     32 C         -27.3060    1.8267   29.6651 C.2     1  UNL1        0.3584
     33 C         -29.3218    1.3958   28.7085 C.2     1  UNL1        0.0892
     34 C         -23.1470    0.8608   28.8335 C.3     1  UNL1        0.2208
     35 C         -23.8215    2.0203   28.6698 C.3     1  UNL1        0.1575
     36 C         -31.0605    2.9236   28.0288 C.2     1  UNL1        0.0116
     37 O         -22.8266    0.0608   29.8820 O.3     1  UNL1       -0.3291
     38 C         -21.1767    1.9411   27.2261 C.3     1  UNL1        0.1768
     39 CL        -30.6793    5.6074   28.0086 Cl      1  UNL1       -0.0822
     40 C         -30.5756    1.6181   28.1810 C.2     1  UNL1        0.0081
     41 N         -27.4336    0.4824   29.6678 N.am    1  UNL1        0.0341
     42 N         -26.0403    2.3918   29.9392 N.pl3   1  UNL1        0.0082
     43 C         -30.2508    3.9778   28.4099 C.2     1  UNL1        0.0579
     44 C         -29.0821    3.7334   29.1212 C.2     1  UNL1        0.0189
     45 C         -28.4852    2.4233   29.1625 C.2     1  UNL1        0.0916
     46 C         -24.8930    2.8763   29.1186 C.3     1  UNL1        0.3803
@<TRIPOS>BOND
     1     1     2    1
     2     2     7    1
     3     3     2    2
     4     4     3    1
     5     4     5    2
     6     5     6    1
     7     6     7    2
     8     8     1    1
     9     8     9    1
    10     8    12    1
    11     9    10    1
    12    10    11    1
    13    12    11    1
    14    14    13    1
    15    14    15    1
    16    15    18    1
    17    16    17    1
    18    16    15    2
    19    18    46    1
    20    19    14    2
    21    20    21    2
    22    20    19    1
    23    21    26    1
    24    22    21    1
    25    23    22    1
    26    24    23    1
    27    24    25    1
    28    26    27    1
    29    26    13    2
    30    28    41    1
    31    29    37    1
    32    29     1    1
    33    30    28    2
    34    31    34    1
    35    32    41    2
    36    32    42    1
    37    33    28    1
    38    33    45    1
    39    34    35    1
    40    34    29    1
    41    34    37    1
    42    36    40    1
    43    36    43    2
    44    38    31    1
    45    39    43    1
    46    40    33    2
    47    43    44    1
    48    44    45    2
    49    45    32    1
    50    46    35    1
    51    46    42    1
