@<TRIPOS>MOLECULE
No_3134-gen_results/8p0m/2024-11-27-11-27-31/
 20 22 0 0 0
SMALL
GASTEIGER

@<TRIPOS>ATOM
      1 C         -28.0162   -0.8135   28.8779 C.ar    1  UNL1        0.0375
      2 C         -27.0636   -0.1189   28.6079 C.ar    1  UNL1        0.0031
      3 C         -25.7647   -0.3897   29.0360 C.ar    1  UNL1        0.0003
      4 C         -25.5296   -1.5302   29.9014 C.ar    1  UNL1        0.0030
      5 C         -26.6888   -2.2893   30.1810 C.ar    1  UNL1        0.0375
      6 C         -27.8727   -1.9508   29.7373 C.ar    1  UNL1        0.1454
      7 O         -28.9304   -2.7298   30.1154 O.3     1  UNL1       -0.4504
      8 C         -24.5394    0.4211   28.7421 C.ar    1  UNL1        0.0030
      9 C         -23.3459    0.1143   29.1690 C.ar    1  UNL1        0.0192
     10 C         -23.1118   -1.0146   29.9166 C.ar    1  UNL1        0.0015
     11 C         -24.2498   -1.8802   30.3244 C.ar    1  UNL1        0.0001
     12 C         -22.1596    0.8897   28.7401 C.ar    1  UNL1        0.0988
     13 N         -22.3346    1.8594   27.7443 N.ar    1  UNL1       -0.2423
     14 C         -23.5400    2.2713   27.3068 C.ar    1  UNL1        0.0989
     15 C         -24.6500    1.5138   27.7622 C.ar    1  UNL1        0.0207
     16 C         -30.0482   -2.2077   30.6439 C.2     1  UNL1        0.1795
     17 C         -31.0922   -2.8405   30.2663 C.2     1  UNL1        0.0403
     18 C         -31.0460   -4.1329   29.8472 C.2     1  UNL1       -0.0013
     19 C         -29.8788   -4.7855   30.0146 C.2     1  UNL1       -0.0257
     20 C         -29.7045   -6.1083   29.8897 C.3     1  UNL1        0.0307
@<TRIPOS>BOND
     1     6     7    1
     2     7    16    1
     3    16    17    2
     4    17    18    1
     5    18    19    2
     6    19    20    1
     7     1     2   ar
     8     2     3   ar
     9     4     5   ar
    10     5     6   ar
    11     6     1   ar
    12     3     4   ar
    13     4    11   ar
    14    11    10   ar
    15    10     9   ar
    16     8     3   ar
    17     8     9   ar
    18     9    12   ar
    19    12    13   ar
    20    13    14   ar
    21    14    15   ar
    22    15     8   ar
