@<TRIPOS>MOLECULE
outputs/IAG933/test6/raw/output_3135_IAG933_linker_design_.xyz
 42 45 0 0 0
SMALL
GASTEIGER

@<TRIPOS>ATOM
      1 C         -24.8550   -1.0120   30.1430 C.3     1  UNL1        0.0627
      2 C         -24.9730   -2.5050   29.7880 C.2     1  UNL1       -0.0191
      3 C         -23.9060   -3.1730   29.1460 C.2     1  UNL1       -0.0042
      4 C         -23.9890   -4.5490   28.8530 C.2     1  UNL1       -0.0003
      5 C         -25.1370   -5.2800   29.2050 C.2     1  UNL1       -0.0000
      6 C         -26.2320   -4.6110   29.7840 C.2     1  UNL1       -0.0003
      7 C         -26.1550   -3.2320   30.0650 C.2     1  UNL1       -0.0042
      8 C         -25.3870   -0.6790   31.5710 C.3     1  UNL1        0.0788
      9 C         -25.1890    0.7730   32.0280 C.3     1  UNL1        0.0193
     10 C         -25.3360    0.6840   33.5440 C.3     1  UNL1        0.0202
     11 C         -24.8290   -0.7150   33.9050 C.3     1  UNL1        0.0887
     12 N         -24.7580   -1.4810   32.6460 N.3     1  UNL1       -0.2191
     13 C         -25.6880    1.6140   26.4610 C.2     1  UNL1        0.0401
     14 C         -26.2500    2.9200   26.3950 C.2     1  UNL1        0.0764
     15 C         -25.6420    4.0930   27.1230 C.2     1  UNL1        0.2664
     16 N         -25.6140    5.2520   26.4490 N.am    1  UNL1       -0.1997
     17 C         -25.0260    6.4790   26.9630 C.3     1  UNL1        0.1388
     18 O         -25.1430    3.9660   28.2430 O.2     1  UNL1       -0.2683
     19 C         -27.4380    3.0910   25.6450 C.2     1  UNL1        0.1067
     20 N         -28.0750    2.0890   25.0030 N.2     1  UNL1       -0.2081
     21 C         -27.5430    0.8490   25.0790 C.2     1  UNL1        0.2533
     22 O         -28.1930   -0.2080   24.4770 O.2     1  UNL1       -0.4558
     23 C         -29.4600    0.0050   23.8660 C.3     1  UNL1        0.2426
     24 C         -30.0650   -1.3770   23.5730 C.3     1  UNL1        0.2292
     25 O         -30.7290   -1.8780   24.7210 O.3     1  UNL1       -0.2162
     26 C         -26.3540    0.5760   25.7770 C.2     1  UNL1        0.1929
     27 F         -25.8600   -0.6810   25.7950 F       1  UNL1       -0.1992
     28 O         -28.5005    1.4681   29.6986 O.3     1  UNL1       -0.4294
     29 O         -22.1605    1.9521   26.6671 O.2     1  UNL1       -0.4204
     30 N         -26.5915    0.4148   28.6237 N.am    1  UNL1       -0.1655
     31 F         -20.7874    1.7568   28.2921 F       1  UNL1       -0.1607
     32 C         -25.2812   -0.0236   29.1053 C.3     1  UNL1        0.1284
     33 C         -23.3649    1.8735   26.2194 C.3     1  UNL1        0.3526
     34 C         -21.9845    1.4765   27.9461 C.2     1  UNL1        0.3130
     35 O         -28.3691   -0.6960   29.1904 O.2     1  UNL1       -0.2246
     36 C         -24.2580    0.7135   28.2936 C.2     1  UNL1        0.0331
     37 F         -22.4889    0.4287   29.9654 F       1  UNL1       -0.1987
     38 C         -27.7594    0.3936   29.2757 C.2     1  UNL1        0.4215
     39 C         -24.4673    1.3696   27.0243 C.2     1  UNL1        0.0545
     40 C         -28.1592    2.5356   30.5859 C.3     1  UNL1        0.2574
     41 F         -23.5296    2.2961   24.9472 F       1  UNL1       -0.1832
     42 C         -22.8862    0.8546   28.7580 C.2     1  UNL1        0.2006
@<TRIPOS>BOND
     1     1    32    1
     2     2     7    1
     3     2     1    1
     4     3     2    2
     5     4     3    1
     6     4     5    2
     7     5     6    1
     8     6     7    2
     9     8     1    1
    10     8     9    1
    11     8    12    1
    12     9    10    1
    13    10    11    1
    14    12    11    1
    15    13    39    1
    16    14    13    1
    17    14    15    1
    18    15    18    2
    19    16    17    1
    20    16    15    1
    21    19    14    2
    22    20    21    2
    23    20    19    1
    24    21    26    1
    25    22    21    1
    26    23    22    1
    27    24    23    1
    28    24    25    1
    29    26    27    1
    30    26    13    2
    31    28    40    1
    32    29    34    1
    33    30    38    1
    34    32    30    1
    35    33    41    1
    36    33    29    1
    37    33    39    1
    38    34    31    1
    39    34    42    2
    40    35    38    2
    41    36    42    1
    42    36    32    1
    43    38    28    1
    44    39    36    2
    45    42    37    1
