@<TRIPOS>MOLECULE
No_3136-gen_results/8p0m/2024-11-27-11-27-31/
 21 23 0 0 0
SMALL
GASTEIGER

@<TRIPOS>ATOM
      1 C         -28.0162   -0.8135   28.8779 C.ar    1  UNL1        0.0000
      2 C         -28.4690   -0.7850   29.8287 C.ar    1  UNL1        0.0000
      3 C         -27.1356    0.2359   28.5352 C.ar    1  UNL1        0.0000
      4 C         -26.8745    1.2825   29.3982 C.ar    1  UNL1        0.0000
      5 C         -27.5070    1.2380   30.6295 C.ar    1  UNL1        0.0000
      6 C         -28.3269    0.1637   30.9240 C.ar    1  UNL1        0.0000
      7 C         -26.4110    0.3070   27.2192 C.ar    1  UNL1        0.0014
      8 C         -25.0121    0.3340   27.3197 C.ar    1  UNL1        0.0176
      9 C         -27.0431    0.3567   25.9990 C.ar    1  UNL1        0.0000
     10 C         -26.2715    0.2663   24.8487 C.ar    1  UNL1        0.0000
     11 C         -24.3109    0.2364   28.6152 C.ar    1  UNL1        0.0809
     12 C         -23.1303    0.5277   28.8149 C.ar    1  UNL1        0.0203
     13 C         -22.4670    0.5346   30.0916 C.ar    1  UNL1        0.0163
     14 C         -24.8577    0.3221   24.9255 C.ar    1  UNL1        0.0000
     15 C         -24.2417    0.3899   26.1255 C.ar    1  UNL1        0.0015
     16 C         -23.3700   -0.0604   31.0768 C.ar    1  UNL1        0.0612
     17 N         -24.8182   -0.1874   29.8630 N.ar    1  UNL1       -0.2496
     18 C         -24.1894   -0.4271   30.9320 C.3     1  UNL1        0.0732
     19 C         -25.1821   -0.9704   32.0390 C.3     1  UNL1        0.1879
     20 C         -24.1687   -2.0515   30.8349 C.3     1  UNL1        0.0090
     21 O         -24.8702   -0.6106   33.1664 O.3     1  UNL1       -0.2200
@<TRIPOS>BOND
     1     3     7    1
     2     8    11    1
     3    11    12   ar
     4    12    13   ar
     5    13    16   ar
     6    11    17   ar
     7    16    17   ar
     8    16    18    1
     9    18    19    1
    10    18    20    1
    11    19    21    1
    12     1     2   ar
    13     2     6   ar
    14     6     5   ar
    15     5     4   ar
    16     4     3   ar
    17     3     1   ar
    18     7     8   ar
    19     8    15   ar
    20    15    14   ar
    21    14    10   ar
    22    10     9   ar
    23     9     7   ar
