@<TRIPOS>MOLECULE
No_3137-gen_results/8p0m/2024-11-27-11-27-31/
 21 23 0 0 0
SMALL
GASTEIGER

@<TRIPOS>ATOM
      1 C         -28.0162   -0.8135   28.8779 C.ar    1  UNL1        0.0045
      2 C         -27.0636   -0.1190   28.6079 C.ar    1  UNL1        0.0001
      3 C         -25.7647   -0.3897   29.0360 C.ar    1  UNL1        0.0001
      4 C         -24.5516    0.4058   28.7646 C.ar    1  UNL1        0.0022
      5 C         -23.2300    0.1178   29.2575 C.ar    1  UNL1        0.0001
      6 C         -27.8275   -1.9081   29.8661 C.ar    1  UNL1        0.0536
      7 C         -26.5727   -2.3160   30.2643 C.ar    1  UNL1        0.0045
      8 C         -25.4305   -1.5200   29.9226 C.ar    1  UNL1        0.0001
      9 C         -22.1663    0.9203   28.8711 C.ar    1  UNL1        0.0023
     10 C         -22.3084    1.9228   27.8218 C.ar    1  UNL1        0.0296
     11 C         -24.5419    1.4507   27.7567 C.ar    1  UNL1        0.0296
     12 C         -23.4992    2.1324   27.3338 C.ar    1  UNL1        0.1401
     13 C         -28.9762   -2.7617   30.2734 C.2     1  UNL1        0.2490
     14 O         -28.8592   -3.9705   30.2882 O.2     1  UNL1       -0.2699
     15 N         -30.1012   -2.1785   30.6546 N.am    1  UNL1       -0.2761
     16 C         -30.3335   -0.7600   30.7430 C.3     1  UNL1        0.0937
     17 C         -31.3076   -0.2025   30.8172 C.3     1  UNL1        0.0216
     18 C         -32.5101   -0.8114   31.1028 C.3     1  UNL1        0.0035
     19 C         -32.4021   -2.2533   31.1147 C.3     1  UNL1        0.0216
     20 C         -31.2526   -2.8781   30.8720 C.3     1  UNL1        0.0937
     21 F         -23.6585    3.0623   26.3859 F       1  UNL1       -0.2042
@<TRIPOS>BOND
     1     3     4    1
     2     6    13    1
     3    13    14    2
     4    13    15   am
     5    15    16    1
     6    17    18    1
     7    15    20    1
     8    19    20    1
     9    12    21    1
    10    16    17    1
    11    18    19    1
    12     1     2   ar
    13     2     3   ar
    14     3     8   ar
    15     8     7   ar
    16     7     6   ar
    17     6     1   ar
    18     4     5   ar
    19     5     9   ar
    20     9    10   ar
    21    10    12   ar
    22    12    11   ar
    23    11     4   ar
