@<TRIPOS>MOLECULE
outputs/IAG933/test6/raw/output_314_IAG933_linker_design_.xyz
 46 50 0 0 0
SMALL
GASTEIGER

@<TRIPOS>ATOM
      1 C         -24.8550   -1.0120   30.1430 C.3     1  UNL1        0.0605
      2 C         -24.9730   -2.5050   29.7880 C.2     1  UNL1       -0.0171
      3 C         -23.9060   -3.1730   29.1460 C.2     1  UNL1       -0.0039
      4 C         -23.9890   -4.5490   28.8530 C.2     1  UNL1       -0.0003
      5 C         -25.1370   -5.2800   29.2050 C.2     1  UNL1       -0.0000
      6 C         -26.2320   -4.6110   29.7840 C.2     1  UNL1       -0.0003
      7 C         -26.1550   -3.2320   30.0650 C.2     1  UNL1       -0.0039
      8 C         -25.3870   -0.6790   31.5710 C.3     1  UNL1        0.0808
      9 C         -25.1890    0.7730   32.0280 C.3     1  UNL1        0.0195
     10 C         -25.3360    0.6840   33.5440 C.3     1  UNL1        0.0203
     11 C         -24.8290   -0.7150   33.9050 C.3     1  UNL1        0.0887
     12 N         -24.7580   -1.4810   32.6460 N.3     1  UNL1       -0.2188
     13 C         -25.6880    1.6140   26.4610 C.3     1  UNL1        0.0786
     14 C         -26.2500    2.9200   26.3950 C.2     1  UNL1        0.0554
     15 C         -25.6420    4.0930   27.1230 C.2     1  UNL1        0.2625
     16 N         -25.6140    5.2520   26.4490 N.am    1  UNL1       -0.2000
     17 C         -25.0260    6.4790   26.9630 C.3     1  UNL1        0.1388
     18 O         -25.1430    3.9660   28.2430 O.2     1  UNL1       -0.2687
     19 C         -27.4380    3.0910   25.6450 C.2     1  UNL1        0.1022
     20 N         -28.0750    2.0890   25.0030 N.2     1  UNL1       -0.2119
     21 C         -27.5430    0.8490   25.0790 C.2     1  UNL1        0.2341
     22 O         -28.1930   -0.2080   24.4770 O.2     1  UNL1       -0.4585
     23 C         -29.4600    0.0050   23.8660 C.3     1  UNL1        0.2423
     24 C         -30.0650   -1.3770   23.5730 C.3     1  UNL1        0.2292
     25 O         -30.7290   -1.8780   24.7210 O.3     1  UNL1       -0.2162
     26 C         -26.3540    0.5760   25.7770 C.3     1  UNL1        0.2406
     27 F         -25.8600   -0.6810   25.7950 F       1  UNL1       -0.2269
     28 O         -21.3274    1.3766   27.8965 O.2     1  UNL1       -0.2867
     29 C         -24.4710    0.0271   29.2663 C.2     1  UNL1       -0.0131
     30 O         -21.3799    2.1450   26.7100 O.2     1  UNL1       -0.2835
     31 O         -28.2261    3.6039   30.8219 O.2     1  UNL1       -0.2728
     32 C         -26.9874    0.9638   28.6973 C.2     1  UNL1        0.2673
     33 O         -27.6458   -0.0682   28.5201 O.2     1  UNL1       -0.2683
     34 C         -22.6944    2.3243   26.2809 C.2     1  UNL1        0.2334
     35 C         -28.1096    3.4538   29.6023 C.2     1  UNL1        0.2496
     36 C         -23.4967    1.6707   27.2612 C.2     1  UNL1        0.0631
     37 C         -28.5044    4.5615   28.6405 C.3     1  UNL1        0.1071
     38 C         -25.4416    0.8412   28.5935 C.2     1  UNL1        0.0341
     39 C         -24.8575    1.4037   27.4019 C.3     1  UNL1        0.0626
     40 C         -22.6093    1.0920   28.1664 C.2     1  UNL1        0.1949
     41 C         -30.9426    5.6259   30.0193 C.3     1  UNL1        0.1239
     42 O         -30.5052    7.3393   28.3624 O.3     1  UNL1       -0.1179
     43 N         -27.6931    2.2269   28.9958 N.am    1  UNL1       -0.1412
     44 C         -28.6800    6.0258   29.1221 C.3     1  UNL1        0.1137
     45 N         -30.1018    6.2538   29.0177 N.3     1  UNL1       -0.1309
     46 C         -23.0320    0.1593   29.0911 C.2     1  UNL1        0.0377
@<TRIPOS>BOND
     1     1    29    1
     2     2     7    1
     3     2     1    1
     4     3     2    2
     5     4     3    1
     6     4     5    2
     7     5     6    1
     8     6     7    2
     9     8     1    1
    10     8     9    1
    11     8    12    1
    12     9    10    1
    13    10    11    1
    14    12    11    1
    15    13    14    1
    16    13    39    1
    17    14    15    1
    18    15    18    2
    19    16    17    1
    20    16    15    1
    21    19    14    2
    22    20    21    2
    23    20    19    1
    24    21    26    1
    25    22    21    1
    26    23    22    1
    27    24    23    1
    28    24    25    1
    29    26    27    1
    30    26    13    1
    31    28    40    1
    32    30    28    1
    33    32    43    1
    34    33    32    2
    35    34    30    1
    36    34    36    2
    37    35    31    2
    38    36    40    1
    39    37    44    1
    40    37    35    1
    41    38    32    1
    42    38    29    2
    43    39    36    1
    44    39    38    1
    45    40    46    2
    46    42    45    1
    47    43    35    1
    48    45    44    1
    49    45    41    1
    50    46    29    1
