@<TRIPOS>MOLECULE
No_3141-gen_results/8p0m/2024-11-27-11-27-31/
 14 15 0 0 0
SMALL
GASTEIGER

@<TRIPOS>ATOM
      1 C         -28.0162   -0.8135   28.8779 C.ar    1  UNL1       -0.0042
      2 C         -28.4690   -0.7850   29.8287 C.ar    1  UNL1       -0.0003
      3 C         -28.1960    0.3478   28.0550 C.ar    1  UNL1       -0.0217
      4 C         -29.0191    1.3501   28.3782 C.ar    1  UNL1       -0.0255
      5 C         -29.6249    1.2683   29.6012 C.ar    1  UNL1       -0.0046
      6 C         -29.3821    0.1816   30.4004 C.ar    1  UNL1       -0.0003
      7 C         -27.4497    0.3750   26.7070 C.3     1  UNL1        0.0523
      8 C         -25.9701    0.4006   26.7755 C.ar    1  UNL1       -0.0178
      9 C         -25.3164   -0.0839   27.8630 C.ar    1  UNL1       -0.0039
     10 C         -23.9163    0.0471   27.9627 C.ar    1  UNL1       -0.0003
     11 C         -23.2528    0.9805   27.1711 C.ar    1  UNL1       -0.0000
     12 C         -23.9178    1.6518   26.1334 C.ar    1  UNL1       -0.0003
     13 C         -25.3267    1.3965   25.9602 C.ar    1  UNL1       -0.0039
     14 C         -29.2337    2.4669   27.5019 C.3     1  UNL1        0.0307
@<TRIPOS>BOND
     1     3     7    1
     2     7     8    1
     3     4    14    1
     4     1     2   ar
     5     2     6   ar
     6     6     5   ar
     7     5     4   ar
     8     4     3   ar
     9     3     1   ar
    10     8     9   ar
    11     9    10   ar
    12    10    11   ar
    13    11    12   ar
    14    12    13   ar
    15    13     8   ar
