@<TRIPOS>MOLECULE
No_3144-gen_results/8p0m/2024-11-27-11-27-31/
 11 11 0 0 0
SMALL
GASTEIGER

@<TRIPOS>ATOM
      1 C         -28.0162   -0.8135   28.8779 C.ar    1  UNL1       -0.0222
      2 C         -28.4690   -0.7850   29.8287 C.ar    1  UNL1       -0.0043
      3 C         -28.1960    0.3478   28.0550 C.3     1  UNL1        0.0264
      4 C         -27.4421    0.5100   26.7946 C.3     1  UNL1        0.0047
      5 C         -26.1689   -0.0794   26.6787 C.3     1  UNL1        0.0003
      6 C         -25.3298    0.2528   25.6068 C.3     1  UNL1        0.0000
      7 C         -28.1897   -1.8855   30.8891 C.ar    1  UNL1       -0.0003
      8 C         -27.3579   -2.8974   30.4486 C.ar    1  UNL1       -0.0000
      9 C         -26.5017   -2.6982   29.4143 C.ar    1  UNL1       -0.0003
     10 C         -26.7097   -1.5405   28.6115 C.ar    1  UNL1       -0.0043
     11 C         -25.7662   -1.1457   27.6748 C.3     1  UNL1        0.0000
@<TRIPOS>BOND
     1     1     3    1
     2     3     4    1
     3     4     5    1
     4     5     6    1
     5     5    11    1
     6     1     2   ar
     7     2     7   ar
     8     7     8   ar
     9     8     9   ar
    10     9    10   ar
    11    10     1   ar
