@<TRIPOS>MOLECULE
outputs/IAG933/test6/raw/output_3145_IAG933_linker_design_.xyz
 45 50 0 0 0
SMALL
GASTEIGER

@<TRIPOS>ATOM
      1 C         -24.8550   -1.0120   30.1430 C.3     1  UNL1        0.0470
      2 C         -24.9730   -2.5050   29.7880 C.2     1  UNL1       -0.0207
      3 C         -23.9060   -3.1730   29.1460 C.2     1  UNL1       -0.0042
      4 C         -23.9890   -4.5490   28.8530 C.2     1  UNL1       -0.0003
      5 C         -25.1370   -5.2800   29.2050 C.2     1  UNL1       -0.0000
      6 C         -26.2320   -4.6110   29.7840 C.2     1  UNL1       -0.0003
      7 C         -26.1550   -3.2320   30.0650 C.2     1  UNL1       -0.0042
      8 C         -25.3870   -0.6790   31.5710 C.3     1  UNL1        0.0773
      9 C         -25.1890    0.7730   32.0280 C.3     1  UNL1        0.0192
     10 C         -25.3360    0.6840   33.5440 C.3     1  UNL1        0.0202
     11 C         -24.8290   -0.7150   33.9050 C.3     1  UNL1        0.0887
     12 N         -24.7580   -1.4810   32.6460 N.3     1  UNL1       -0.2191
     13 C         -25.6880    1.6140   26.4610 C.2     1  UNL1        0.0162
     14 C         -26.2500    2.9200   26.3950 C.2     1  UNL1        0.0726
     15 C         -25.6420    4.0930   27.1230 C.2     1  UNL1        0.2661
     16 N         -25.6140    5.2520   26.4490 N.am    1  UNL1       -0.1997
     17 C         -25.0260    6.4790   26.9630 C.3     1  UNL1        0.1388
     18 O         -25.1430    3.9660   28.2430 O.2     1  UNL1       -0.2683
     19 C         -27.4380    3.0910   25.6450 C.2     1  UNL1        0.1064
     20 N         -28.0750    2.0890   25.0030 N.2     1  UNL1       -0.2081
     21 C         -27.5430    0.8490   25.0790 C.2     1  UNL1        0.2530
     22 O         -28.1930   -0.2080   24.4770 O.2     1  UNL1       -0.4558
     23 C         -29.4600    0.0050   23.8660 C.3     1  UNL1        0.2426
     24 C         -30.0650   -1.3770   23.5730 C.3     1  UNL1        0.2292
     25 O         -30.7290   -1.8780   24.7210 O.3     1  UNL1       -0.2162
     26 C         -26.3540    0.5760   25.7770 C.2     1  UNL1        0.1891
     27 F         -25.8600   -0.6810   25.7950 F       1  UNL1       -0.1996
     28 C         -22.3545    1.0081   28.4625 C.3     1  UNL1        0.1262
     29 N         -21.1653    1.4613   28.0754 N.3     1  UNL1       -0.0252
     30 C         -24.8212    1.1448   28.5699 C.3     1  UNL1        0.0256
     31 C         -25.5398   -0.1241   29.0590 C.3     1  UNL1        0.0844
     32 C         -26.7417    4.5819   31.3403 C.3     1  UNL1        0.0018
     33 C         -28.7774    4.5620   29.5898 C.3     1  UNL1        0.0035
     34 C         -23.5556    1.4590   27.6072 C.3     1  UNL1        0.1140
     35 C         -24.6890    1.1578   27.2574 C.3     1  UNL1        0.0375
     36 C         -28.6106    3.0974   29.4143 C.3     1  UNL1        0.0217
     37 C         -22.3613    0.0411   29.6437 C.3     1  UNL1        0.0232
     38 O         -22.8988    1.8682   25.2222 O.2     1  UNL1       -0.2483
     39 C         -27.8082    2.5720   30.5958 C.3     1  UNL1        0.0953
     40 N         -26.7166    1.8551   29.7867 N.am    1  UNL1       -0.2072
     41 C         -28.1349    3.9999   31.1195 C.3     1  UNL1        0.0201
     42 C         -26.8925    0.5721   29.3614 C.2     1  UNL1        0.2412
     43 C         -22.6042    1.8814   26.3860 C.2     1  UNL1        0.3375
     44 O         -21.3013    2.1898   26.7820 O.3     1  UNL1       -0.3477
     45 O         -27.8504   -0.0434   29.4357 O.2     1  UNL1       -0.2733
@<TRIPOS>BOND
     1     1    31    1
     2     2     7    1
     3     2     1    1
     4     3     2    2
     5     4     3    1
     6     4     5    2
     7     5     6    1
     8     6     7    2
     9     8     1    1
    10     8     9    1
    11     8    12    1
    12     9    10    1
    13    10    11    1
    14    12    11    1
    15    14    13    1
    16    14    15    1
    17    15    18    2
    18    16    17    1
    19    16    15    1
    20    19    14    2
    21    20    21    2
    22    20    19    1
    23    21    26    1
    24    22    21    1
    25    23    22    1
    26    24    23    1
    27    24    25    1
    28    26    27    1
    29    26    13    2
    30    28    37    1
    31    29    28    1
    32    30    31    1
    33    31    42    1
    34    33    41    1
    35    34    43    1
    36    34    28    1
    37    34    30    1
    38    35    13    1
    39    35    34    1
    40    35    30    1
    41    36    33    1
    42    36    39    1
    43    38    43    2
    44    39    40    1
    45    39    41    1
    46    41    32    1
    47    42    45    2
    48    42    40    1
    49    43    44    1
    50    44    29    1
