@<TRIPOS>MOLECULE
No_3146-gen_results/8p0m/2024-11-27-11-27-31/
 5 4 0 0 0
SMALL
GASTEIGER

@<TRIPOS>ATOM
      1 F         -28.0727   -1.2542   28.5316 F       1  UNL1       -0.1403
      2 C         -27.3591   -0.3792   28.7224 C.3     1  UNL1        0.5613
      3 F         -26.9761   -0.0935   27.6617 F       1  UNL1       -0.1403
      4 F         -27.9492    0.6817   29.3005 F       1  UNL1       -0.1403
      5 F         -26.3311   -0.7971   29.4960 F       1  UNL1       -0.1403
@<TRIPOS>BOND
     1     1     2    1
     2     2     3    1
     3     2     4    1
     4     2     5    1
