@<TRIPOS>MOLECULE
outputs/IAG933/test6/raw/output_3154_IAG933_linker_design_.xyz
 54 60 0 0 0
SMALL
GASTEIGER

@<TRIPOS>ATOM
      1 C         -24.8550   -1.0120   30.1430 C.3     1  UNL1        0.1322
      2 C         -24.9730   -2.5050   29.7880 C.2     1  UNL1       -0.0013
      3 C         -23.9060   -3.1730   29.1460 C.2     1  UNL1       -0.0026
      4 C         -23.9890   -4.5490   28.8530 C.2     1  UNL1       -0.0003
      5 C         -25.1370   -5.2800   29.2050 C.2     1  UNL1       -0.0000
      6 C         -26.2320   -4.6110   29.7840 C.2     1  UNL1       -0.0003
      7 C         -26.1550   -3.2320   30.0650 C.2     1  UNL1       -0.0026
      8 C         -25.3870   -0.6790   31.5710 C.3     1  UNL1        0.0968
      9 C         -25.1890    0.7730   32.0280 C.3     1  UNL1        0.0210
     10 C         -25.3360    0.6840   33.5440 C.3     1  UNL1        0.0203
     11 C         -24.8290   -0.7150   33.9050 C.3     1  UNL1        0.0888
     12 N         -24.7580   -1.4810   32.6460 N.3     1  UNL1       -0.2174
     13 C         -25.6880    1.6140   26.4610 C.3     1  UNL1        0.1123
     14 C         -26.2500    2.9200   26.3950 C.2     1  UNL1        0.0604
     15 C         -25.6420    4.0930   27.1230 C.2     1  UNL1        0.2628
     16 N         -25.6140    5.2520   26.4490 N.am    1  UNL1       -0.2000
     17 C         -25.0260    6.4790   26.9630 C.3     1  UNL1        0.1388
     18 O         -25.1430    3.9660   28.2430 O.2     1  UNL1       -0.2686
     19 C         -27.4380    3.0910   25.6450 C.2     1  UNL1        0.1025
     20 N         -28.0750    2.0890   25.0030 N.2     1  UNL1       -0.2118
     21 C         -27.5430    0.8490   25.0790 C.2     1  UNL1        0.2345
     22 O         -28.1930   -0.2080   24.4770 O.2     1  UNL1       -0.4586
     23 C         -29.4600    0.0050   23.8660 C.3     1  UNL1        0.2389
     24 C         -30.0650   -1.3770   23.5730 C.3     1  UNL1        0.1945
     25 O         -30.7290   -1.8780   24.7210 O.3     1  UNL1       -0.3030
     26 C         -26.3540    0.5760   25.7770 C.3     1  UNL1        0.2455
     27 F         -25.8600   -0.6810   25.7950 F       1  UNL1       -0.2265
     28 N         -29.9019    1.0755   27.9602 N.3     1  UNL1       -0.1057
     29 N         -24.4615    0.0429   29.2024 N.pl3   1  UNL1       -0.2157
     30 C         -33.2653   -0.0691   26.7431 C.3     1  UNL1        0.1267
     31 C         -29.0158   -0.5321   29.8249 C.3     1  UNL1        0.1704
     32 C         -22.6802    1.1016   28.0080 C.2     1  UNL1        0.0293
     33 C         -32.2392    1.1038   26.6385 C.3     1  UNL1        0.0775
     34 C         -24.9894    1.2613   27.3458 C.2     1  UNL1        0.1056
     35 C         -28.7919    0.2624   28.5851 C.3     1  UNL1        0.1393
     36 C         -28.9494    0.5471   32.2076 C.3     1  UNL1        0.0027
     37 O         -23.3822    1.9509   25.9413 O.2     1  UNL1       -0.4707
     38 O         -29.2566   -1.8640   29.4254 O.3     1  UNL1       -0.2216
     39 C         -33.2404   -0.6795   28.2291 C.3     1  UNL1        0.0641
     40 N         -25.3112    0.5162   28.3599 N.pl3   1  UNL1       -0.1476
     41 C         -31.1767    0.3950   27.5678 C.3     1  UNL1        0.1970
     42 O         -32.6890    1.5169   29.1009 O.3     1  UNL1       -0.2217
     43 C         -23.1703    0.3764   29.0742 C.2     1  UNL1        0.0808
     44 C         -30.9236   -0.6514   31.3328 C.3     1  UNL1        0.0052
     45 C         -23.8156    1.2379   24.7974 C.3     1  UNL1        0.2525
     46 C         -32.1304    0.1369   28.8457 C.3     1  UNL1        0.1666
     47 C         -21.2192    1.4647   27.7955 C.3     1  UNL1        0.0356
     48 C         -31.4145   -1.1197   25.5865 C.3     1  UNL1        0.3756
     49 O         -30.7600   -0.8580   26.8614 O.3     1  UNL1       -0.2928
     50 C         -29.5145   -0.3081   31.1149 C.3     1  UNL1        0.0320
     51 O         -32.8125   -0.9828   25.7119 O.3     1  UNL1       -0.3093
     52 C         -31.7158   -0.2416   30.2488 C.3     1  UNL1        0.0344
     53 O         -29.6722    2.3539   28.1318 O.3     1  UNL1       -0.1157
     54 C         -23.7016    1.4432   27.1115 C.2     1  UNL1        0.1488
@<TRIPOS>BOND
     1     1     2    1
     2     2     7    1
     3     3     2    2
     4     4     3    1
     5     4     5    2
     6     5     6    1
     7     6     7    2
     8     8     1    1
     9     8     9    1
    10     8    12    1
    11     9    10    1
    12    10    11    1
    13    12    11    1
    14    13    34    1
    15    14    13    1
    16    14    15    1
    17    15    18    2
    18    16    17    1
    19    16    15    1
    20    19    14    2
    21    20    21    2
    22    20    19    1
    23    21    26    1
    24    22    21    1
    25    23    22    1
    26    24    23    1
    27    24    25    1
    28    26    27    1
    29    26    13    1
    30    28    53    1
    31    28    35    1
    32    29     1    1
    33    30    33    1
    34    30    39    1
    35    31    38    1
    36    31    50    1
    37    32    43    2
    38    34    40    1
    39    35    31    1
    40    37    54    1
    41    39    46    1
    42    40    29    1
    43    41    33    1
    44    41    28    1
    45    41    46    1
    46    43    29    1
    47    45    37    1
    48    46    42    1
    49    46    52    1
    50    47    32    1
    51    48    25    1
    52    48    51    1
    53    48    49    1
    54    49    41    1
    55    50    44    1
    56    50    36    1
    57    51    30    1
    58    52    44    1
    59    54    34    2
    60    54    32    1
