@<TRIPOS>MOLECULE
No_3155-gen_results/8p0m/2024-11-27-11-27-31/
 21 22 0 0 0
SMALL
GASTEIGER

@<TRIPOS>ATOM
      1 C         -28.0162   -0.8135   28.8779 C.ar    1  UNL1        0.0001
      2 C         -28.4690   -0.7850   29.8287 C.ar    1  UNL1        0.0000
      3 C         -27.0871    0.2903   28.6377 C.ar    1  UNL1        0.0295
      4 C         -26.2516    0.4114   27.4223 C.3     1  UNL1        0.2606
      5 C         -28.3913    0.1041   30.9805 C.ar    1  UNL1        0.0066
      6 C         -27.5332    1.1666   30.7866 C.ar    1  UNL1        0.0796
      7 C         -26.8281    1.2557   29.6454 C.ar    1  UNL1        0.0066
      8 N         -25.1892    0.4692   27.3616 N.pl3   1  UNL1       -0.2766
      9 F         -26.9612    0.8218   26.4212 F       1  UNL1       -0.2097
     10 C         -24.2238   -0.0887   28.2471 C.ar    1  UNL1        0.0531
     11 C         -24.0748   -1.3376   28.6410 C.ar    1  UNL1        0.0147
     12 C         -23.1859   -1.7199   29.5625 C.ar    1  UNL1        0.0013
     13 C         -23.2395    0.9278   28.7868 C.ar    1  UNL1        0.0556
     14 C         -22.2762    0.4658   29.6651 C.ar    1  UNL1        0.0045
     15 C         -22.2270   -0.8200   30.1094 C.ar    1  UNL1        0.0002
     16 C         -24.4414    0.9052   26.1186 C.3     1  UNL1        0.1150
     17 C         -27.3342    2.1680   31.8810 C.2     1  UNL1        0.3877
     18 O         -27.7527    3.1267   31.8987 O.co2   1  UNL1       -0.2406
     19 O         -26.4544    1.7171   32.7942 O.co2   1  UNL1       -0.2406
     20 C         -23.2124    2.3226   28.3487 C.2     1  UNL1        0.2354
     21 O         -23.0635    2.8427   27.1528 O.2     1  UNL1       -0.2831
@<TRIPOS>BOND
     1     3     4    1
     2     4     8    1
     3     4     9    1
     4     8    10    1
     5     8    16    1
     6     6    17    1
     7    17    18   ar
     8    17    19   ar
     9    13    20    1
    10    20    21    2
    11     1     2   ar
    12     2     5   ar
    13     5     6   ar
    14     6     7   ar
    15     7     3   ar
    16     3     1   ar
    17    10    11   ar
    18    11    12   ar
    19    12    15   ar
    20    15    14   ar
    21    14    13   ar
    22    13    10   ar
