@<TRIPOS>MOLECULE
outputs/IAG933/test6/raw/output_3159_IAG933_linker_design_.xyz
 42 47 0 0 0
SMALL
GASTEIGER

@<TRIPOS>ATOM
      1 C         -24.8550   -1.0120   30.1430 C.3     1  UNL1        0.1158
      2 C         -24.9730   -2.5050   29.7880 C.2     1  UNL1       -0.0027
      3 C         -23.9060   -3.1730   29.1460 C.2     1  UNL1       -0.0026
      4 C         -23.9890   -4.5490   28.8530 C.2     1  UNL1       -0.0003
      5 C         -25.1370   -5.2800   29.2050 C.2     1  UNL1       -0.0000
      6 C         -26.2320   -4.6110   29.7840 C.2     1  UNL1       -0.0003
      7 C         -26.1550   -3.2320   30.0650 C.2     1  UNL1       -0.0026
      8 C         -25.3870   -0.6790   31.5710 C.3     1  UNL1        0.0954
      9 C         -25.1890    0.7730   32.0280 C.3     1  UNL1        0.0209
     10 C         -25.3360    0.6840   33.5440 C.3     1  UNL1        0.0203
     11 C         -24.8290   -0.7150   33.9050 C.3     1  UNL1        0.0888
     12 N         -24.7580   -1.4810   32.6460 N.3     1  UNL1       -0.2174
     13 C         -25.6880    1.6140   26.4610 C.3     1  UNL1        0.0803
     14 C         -26.2500    2.9200   26.3950 C.2     1  UNL1        0.0555
     15 C         -25.6420    4.0930   27.1230 C.2     1  UNL1        0.2625
     16 N         -25.6140    5.2520   26.4490 N.am    1  UNL1       -0.2000
     17 C         -25.0260    6.4790   26.9630 C.3     1  UNL1        0.1388
     18 O         -25.1430    3.9660   28.2430 O.2     1  UNL1       -0.2687
     19 C         -27.4380    3.0910   25.6450 C.2     1  UNL1        0.1022
     20 N         -28.0750    2.0890   25.0030 N.2     1  UNL1       -0.2119
     21 C         -27.5430    0.8490   25.0790 C.2     1  UNL1        0.2341
     22 O         -28.1930   -0.2080   24.4770 O.2     1  UNL1       -0.4585
     23 C         -29.4600    0.0050   23.8660 C.3     1  UNL1        0.2423
     24 C         -30.0650   -1.3770   23.5730 C.3     1  UNL1        0.2292
     25 O         -30.7290   -1.8780   24.7210 O.3     1  UNL1       -0.2162
     26 C         -26.3540    0.5760   25.7770 C.3     1  UNL1        0.2407
     27 F         -25.8600   -0.6810   25.7950 F       1  UNL1       -0.2269
     28 C         -30.5361    1.4608   28.5426 C.3     1  UNL1        0.2565
     29 C         -27.1276   -0.0591   28.5190 C.1     1  UNL1       -0.0147
     30 O         -29.1731    1.1928   28.7374 O.2     1  UNL1       -0.4384
     31 C         -23.2596    0.3688   28.9257 C.2     1  UNL1        0.0904
     32 C         -22.5099    1.6200   27.1517 C.2     1  UNL1        0.2009
     33 C         -23.6355    1.2221   27.8783 C.2     1  UNL1        0.0463
     34 O         -29.7156   -0.4418   27.3051 O.2     1  UNL1       -0.4384
     35 C         -25.5839    0.3454   28.7003 C.2     1  UNL1        0.0746
     36 CL        -22.5477    2.3147   25.5981 Cl      1  UNL1       -0.0427
     37 C         -24.9869    1.2260   27.6316 C.3     1  UNL1        0.0785
     38 C         -30.9384    0.1802   27.6306 C.3     1  UNL1        0.2565
     39 N         -24.6332   -0.0154   29.1520 N.pl3   1  UNL1       -0.2779
     40 C         -28.6677   -0.0581   28.2562 C.2     1  UNL1        0.3331
     41 C         -21.6747    0.5177   28.9380 C.2     1  UNL1        0.1952
     42 O         -21.3753    1.2224   27.8152 O.2     1  UNL1       -0.4383
@<TRIPOS>BOND
     1     1     2    1
     2     2     7    1
     3     3     2    2
     4     4     3    1
     5     4     5    2
     6     5     6    1
     7     6     7    2
     8     8     1    1
     9     8     9    1
    10     8    12    1
    11     9    10    1
    12    10    11    1
    13    12    11    1
    14    13    14    1
    15    13    37    1
    16    14    15    1
    17    15    18    2
    18    16    17    1
    19    16    15    1
    20    19    14    2
    21    20    21    2
    22    20    19    1
    23    21    26    1
    24    22    21    1
    25    23    22    1
    26    24    23    1
    27    24    25    1
    28    26    27    1
    29    26    13    1
    30    28    30    1
    31    29    35    2
    32    31    41    2
    33    31    39    1
    34    32    42    1
    35    32    33    2
    36    33    31    1
    37    34    38    1
    38    34    40    1
    39    35    39    1
    40    36    32    1
    41    37    33    1
    42    37    35    1
    43    38    28    1
    44    39     1    1
    45    40    29    2
    46    40    30    1
    47    42    41    1
