@<TRIPOS>MOLECULE
outputs/IAG933/test6/raw/output_3160_IAG933_linker_design_.xyz
 40 44 0 0 0
SMALL
GASTEIGER

@<TRIPOS>ATOM
      1 C         -24.8550   -1.0120   30.1430 C.3     1  UNL1        0.0975
      2 C         -24.9730   -2.5050   29.7880 C.2     1  UNL1       -0.0064
      3 C         -23.9060   -3.1730   29.1460 C.2     1  UNL1       -0.0029
      4 C         -23.9890   -4.5490   28.8530 C.2     1  UNL1       -0.0003
      5 C         -25.1370   -5.2800   29.2050 C.2     1  UNL1       -0.0000
      6 C         -26.2320   -4.6110   29.7840 C.2     1  UNL1       -0.0003
      7 C         -26.1550   -3.2320   30.0650 C.2     1  UNL1       -0.0029
      8 C         -25.3870   -0.6790   31.5710 C.3     1  UNL1        0.0916
      9 C         -25.1890    0.7730   32.0280 C.3     1  UNL1        0.0206
     10 C         -25.3360    0.6840   33.5440 C.3     1  UNL1        0.0203
     11 C         -24.8290   -0.7150   33.9050 C.3     1  UNL1        0.0888
     12 N         -24.7580   -1.4810   32.6460 N.3     1  UNL1       -0.2178
     13 C         -25.6880    1.6140   26.4610 C.2     1  UNL1        0.0873
     14 C         -26.2500    2.9200   26.3950 C.2     1  UNL1        0.0899
     15 C         -25.6420    4.0930   27.1230 C.2     1  UNL1        0.2676
     16 N         -25.6140    5.2520   26.4490 N.am    1  UNL1       -0.1997
     17 C         -25.0260    6.4790   26.9630 C.3     1  UNL1        0.1388
     18 O         -25.1430    3.9660   28.2430 O.2     1  UNL1       -0.2683
     19 C         -27.4380    3.0910   25.6450 C.2     1  UNL1        0.1080
     20 N         -28.0750    2.0890   25.0030 N.2     1  UNL1       -0.2080
     21 C         -27.5430    0.8490   25.0790 C.2     1  UNL1        0.2546
     22 O         -28.1930   -0.2080   24.4770 O.2     1  UNL1       -0.4558
     23 C         -29.4600    0.0050   23.8660 C.3     1  UNL1        0.2426
     24 C         -30.0650   -1.3770   23.5730 C.3     1  UNL1        0.2292
     25 O         -30.7290   -1.8780   24.7210 O.3     1  UNL1       -0.2162
     26 C         -26.3540    0.5760   25.7770 C.2     1  UNL1        0.2063
     27 F         -25.8600   -0.6810   25.7950 F       1  UNL1       -0.1979
     28 F         -21.1700    1.6482   27.5654 F       1  UNL1       -0.2353
     29 C         -22.5924    1.4261   27.6879 C.3     1  UNL1        0.1837
     30 C         -29.2166    0.2482   29.9201 C.3     1  UNL1        0.1764
     31 O         -28.6420    1.3633   30.7339 O.3     1  UNL1       -0.3495
     32 C         -27.4790    1.8237   29.9174 C.3     1  UNL1        0.1608
     33 O         -28.5162   -0.4609   27.6871 O.3     1  UNL1       -0.2189
     34 C         -23.2813    1.6231   26.6696 C.3     1  UNL1        0.1273
     35 C         -26.9356    0.4589   29.2690 C.3     1  UNL1        0.1220
     36 N         -25.5070   -0.0578   29.1957 N.3     1  UNL1       -0.2512
     37 C         -24.5302    0.5866   28.3799 C.3     1  UNL1        0.1375
     38 C         -28.0717   -0.2398   28.9703 C.3     1  UNL1        0.1984
     39 N         -24.5237    1.2001   27.1545 N.pl3   1  UNL1       -0.2913
     40 C         -23.3399    1.1014   28.9284 C.3     1  UNL1        0.0738
@<TRIPOS>BOND
     1     1    36    1
     2     2     7    1
     3     2     1    1
     4     3     2    2
     5     4     3    1
     6     4     5    2
     7     5     6    1
     8     6     7    2
     9     8     1    1
    10     8     9    1
    11     8    12    1
    12     9    10    1
    13    10    11    1
    14    12    11    1
    15    13    39    1
    16    14    13    1
    17    14    15    1
    18    15    18    2
    19    16    17    1
    20    16    15    1
    21    19    14    2
    22    20    21    2
    23    20    19    1
    24    21    26    1
    25    22    21    1
    26    23    22    1
    27    24    23    1
    28    24    25    1
    29    26    27    1
    30    26    13    2
    31    29    28    1
    32    29    40    1
    33    30    31    1
    34    32    31    1
    35    34    39    1
    36    34    29    1
    37    35    36    1
    38    35    32    1
    39    37    40    1
    40    37    36    1
    41    38    33    1
    42    38    35    1
    43    38    30    1
    44    39    37    1
