@<TRIPOS>MOLECULE
No_3163-gen_results/8p0m/2024-11-27-11-27-31/
 19 21 0 0 0
SMALL
GASTEIGER

@<TRIPOS>ATOM
      1 C         -28.0162   -0.8135   28.8779 C.ar    1  UNL1        0.0001
      2 C         -28.4690   -0.7850   29.8287 C.ar    1  UNL1        0.0000
      3 C         -27.1356    0.2359   28.5352 C.ar    1  UNL1        0.0022
      4 C         -26.8745    1.2825   29.3982 C.ar    1  UNL1        0.0001
      5 C         -28.3426    0.0691   30.8236 C.ar    1  UNL1        0.0000
      6 C         -27.5245    1.1625   30.6420 C.ar    1  UNL1        0.0000
      7 C         -26.3962    0.3216   27.2201 C.ar    1  UNL1        0.0275
      8 C         -26.7564    0.7478   26.2907 C.ar    1  UNL1        0.0022
      9 C         -26.0083    0.6805   24.9811 C.ar    1  UNL1        0.0001
     10 C         -25.0563   -0.2819   27.2757 C.ar    1  UNL1        0.1401
     11 C         -24.1908   -0.2024   26.2395 C.ar    1  UNL1        0.0296
     12 C         -24.6993    0.2522   25.0328 C.ar    1  UNL1        0.0023
     13 F         -24.5040   -0.7288   28.4271 F       1  UNL1       -0.2042
     14 C         -28.1891    1.2699   26.0088 C.ar    1  UNL1        0.0001
     15 C         -28.3365    2.5937   26.2108 C.ar    1  UNL1        0.0000
     16 C         -29.6537    3.1928   26.1787 C.ar    1  UNL1        0.0000
     17 C         -30.6642    2.4707   25.7143 C.ar    1  UNL1        0.0000
     18 C         -29.2099    0.5143   25.6326 C.ar    1  UNL1        0.0000
     19 C         -30.4655    1.0708   25.4981 C.ar    1  UNL1        0.0000
@<TRIPOS>BOND
     1     3     7    1
     2    10    13    1
     3     8    14    1
     4    14    15   ar
     5    15    16   ar
     6    16    17   ar
     7    17    19   ar
     8    19    18   ar
     9    18    14   ar
    10     1     2   ar
    11     2     5   ar
    12     5     6   ar
    13     6     4   ar
    14     4     3   ar
    15     3     1   ar
    16     7     8   ar
    17     8     9   ar
    18     9    12   ar
    19    12    11   ar
    20    11    10   ar
    21    10     7   ar
