@<TRIPOS>MOLECULE
outputs/IAG933/test6/raw/output_3165_IAG933_linker_design_.xyz
 44 49 0 0 0
SMALL
GASTEIGER

@<TRIPOS>ATOM
      1 C         -24.8550   -1.0120   30.1430 C.3     1  UNL1        0.0585
      2 C         -24.9730   -2.5050   29.7880 C.2     1  UNL1       -0.0195
      3 C         -23.9060   -3.1730   29.1460 C.2     1  UNL1       -0.0042
      4 C         -23.9890   -4.5490   28.8530 C.2     1  UNL1       -0.0003
      5 C         -25.1370   -5.2800   29.2050 C.2     1  UNL1       -0.0000
      6 C         -26.2320   -4.6110   29.7840 C.2     1  UNL1       -0.0003
      7 C         -26.1550   -3.2320   30.0650 C.2     1  UNL1       -0.0042
      8 C         -25.3870   -0.6790   31.5710 C.3     1  UNL1        0.0785
      9 C         -25.1890    0.7730   32.0280 C.3     1  UNL1        0.0192
     10 C         -25.3360    0.6840   33.5440 C.3     1  UNL1        0.0202
     11 C         -24.8290   -0.7150   33.9050 C.3     1  UNL1        0.0887
     12 N         -24.7580   -1.4810   32.6460 N.3     1  UNL1       -0.2191
     13 C         -25.6880    1.6140   26.4610 C.3     1  UNL1        0.0705
     14 C         -26.2500    2.9200   26.3950 C.2     1  UNL1        0.0526
     15 C         -25.6420    4.0930   27.1230 C.2     1  UNL1        0.2178
     16 N         -25.6140    5.2520   26.4490 N.2     1  UNL1       -0.2359
     17 C         -25.0260    6.4790   26.9630 C.3     1  UNL1        0.1550
     18 O         -25.1430    3.9660   28.2430 O.2     1  UNL1       -0.4606
     19 C         -27.4380    3.0910   25.6450 C.2     1  UNL1        0.1022
     20 N         -28.0750    2.0890   25.0030 N.2     1  UNL1       -0.2119
     21 C         -27.5430    0.8490   25.0790 C.2     1  UNL1        0.2341
     22 O         -28.1930   -0.2080   24.4770 O.2     1  UNL1       -0.4585
     23 C         -29.4600    0.0050   23.8660 C.3     1  UNL1        0.2423
     24 C         -30.0650   -1.3770   23.5730 C.3     1  UNL1        0.2292
     25 O         -30.7290   -1.8780   24.7210 O.3     1  UNL1       -0.2162
     26 C         -26.3540    0.5760   25.7770 C.3     1  UNL1        0.2400
     27 F         -25.8600   -0.6810   25.7950 F       1  UNL1       -0.2269
     28 C         -25.2062    0.1265   29.1814 C.3     1  UNL1        0.1058
     29 C         -22.7936    1.5657   26.2118 C.3     1  UNL1        0.1224
     30 C         -24.8479    1.1823   27.3436 C.3     1  UNL1        0.0153
     31 O         -20.6229    1.6680   27.0959 O.3     1  UNL1       -0.3511
     32 N         -23.8843    0.9322   24.0017 N.1     1  UNL1       -0.1958
     33 N         -22.4214    0.0641   29.8505 N.3     1  UNL1       -0.1302
     34 C         -27.5147    0.9584   29.1649 C.2     1  UNL1        0.3589
     35 C         -21.4904    1.9221   26.0660 C.3     1  UNL1        0.1573
     36 C         -22.2312    0.5969   28.5100 C.3     1  UNL1        0.1225
     37 N         -26.5949    0.1097   28.8108 N.am    1  UNL1       -0.1871
     38 N         -27.1741    2.1128   29.8262 N.am    1  UNL1       -0.0679
     39 C         -20.9555    0.7546   28.0155 C.3     1  UNL1        0.1611
     40 C         -23.4095    1.2020   25.0810 C.1     1  UNL1        0.0747
     41 C         -24.5921    1.3599   28.6531 C.3     1  UNL1        0.0622
     42 O         -28.6370    0.7799   28.8073 O.2     1  UNL1       -0.2474
     43 C         -24.8727    2.8396   29.1114 C.3     1  UNL1        0.2086
     44 C         -23.5486    1.5672   27.5652 C.3     1  UNL1        0.0398
@<TRIPOS>BOND
     1     1    28    1
     2     2     7    1
     3     2     1    1
     4     3     2    2
     5     4     3    1
     6     4     5    2
     7     5     6    1
     8     6     7    2
     9     8     1    1
    10     8     9    1
    11     8    12    1
    12     9    10    1
    13    10    11    1
    14    12    11    1
    15    13    14    1
    16    13    30    1
    17    14    15    1
    18    15    18    1
    19    16    17    1
    20    16    15    2
    21    18    43    1
    22    19    14    2
    23    20    21    2
    24    20    19    1
    25    21    26    1
    26    22    21    1
    27    23    22    1
    28    24    23    1
    29    24    25    1
    30    26    27    1
    31    26    13    1
    32    28    37    1
    33    29    40    1
    34    29    44    1
    35    30    44    1
    36    30    41    1
    37    31    39    1
    38    32    40    3
    39    34    38    1
    40    35    29    1
    41    35    31    1
    42    36    33    1
    43    37    34    1
    44    39    36    1
    45    41    43    1
    46    41    28    1
    47    42    34    2
    48    44    36    1
    49    44    41    1
