@<TRIPOS>MOLECULE
outputs/IAG933/test6/raw/output_3167_IAG933_linker_design_.xyz
 46 49 0 0 0
SMALL
GASTEIGER

@<TRIPOS>ATOM
      1 C         -24.8550   -1.0120   30.1430 C.3     1  UNL1        0.1135
      2 C         -24.9730   -2.5050   29.7880 C.2     1  UNL1       -0.0029
      3 C         -23.9060   -3.1730   29.1460 C.2     1  UNL1       -0.0026
      4 C         -23.9890   -4.5490   28.8530 C.2     1  UNL1       -0.0003
      5 C         -25.1370   -5.2800   29.2050 C.2     1  UNL1       -0.0000
      6 C         -26.2320   -4.6110   29.7840 C.2     1  UNL1       -0.0003
      7 C         -26.1550   -3.2320   30.0650 C.2     1  UNL1       -0.0026
      8 C         -25.3870   -0.6790   31.5710 C.3     1  UNL1        0.0951
      9 C         -25.1890    0.7730   32.0280 C.3     1  UNL1        0.0209
     10 C         -25.3360    0.6840   33.5440 C.3     1  UNL1        0.0203
     11 C         -24.8290   -0.7150   33.9050 C.3     1  UNL1        0.0888
     12 N         -24.7580   -1.4810   32.6460 N.3     1  UNL1       -0.2174
     13 C         -25.6880    1.6140   26.4610 C.2     1  UNL1        0.0403
     14 C         -26.2500    2.9200   26.3950 C.2     1  UNL1        0.0766
     15 C         -25.6420    4.0930   27.1230 C.2     1  UNL1        0.2664
     16 N         -25.6140    5.2520   26.4490 N.am    1  UNL1       -0.1997
     17 C         -25.0260    6.4790   26.9630 C.3     1  UNL1        0.1388
     18 O         -25.1430    3.9660   28.2430 O.2     1  UNL1       -0.2683
     19 C         -27.4380    3.0910   25.6450 C.2     1  UNL1        0.1067
     20 N         -28.0750    2.0890   25.0030 N.2     1  UNL1       -0.2081
     21 C         -27.5430    0.8490   25.0790 C.2     1  UNL1        0.2533
     22 O         -28.1930   -0.2080   24.4770 O.2     1  UNL1       -0.4558
     23 C         -29.4600    0.0050   23.8660 C.3     1  UNL1        0.2426
     24 C         -30.0650   -1.3770   23.5730 C.3     1  UNL1        0.2292
     25 O         -30.7290   -1.8780   24.7210 O.3     1  UNL1       -0.2162
     26 C         -26.3540    0.5760   25.7770 C.2     1  UNL1        0.1931
     27 F         -25.8600   -0.6810   25.7950 F       1  UNL1       -0.1992
     28 C         -24.2062    0.5413   28.5140 C.2     1  UNL1        0.0702
     29 C         -21.8605    1.5031   27.4063 C.2     1  UNL1        0.2329
     30 C         -28.4015    0.4160   29.6636 C.3     1  UNL1        0.1784
     31 N         -21.7835    0.9829   28.6950 N.2     1  UNL1       -0.2144
     32 C         -30.3349    1.7052   30.9335 C.3     1  UNL1        0.0422
     33 C         -26.5205   -0.2759   28.4750 C.3     1  UNL1        0.2407
     34 C         -24.3541    1.2454   27.2334 C.2     1  UNL1        0.0318
     35 C         -31.5563    2.2850   31.7328 C.3     1  UNL1        0.1109
     36 C         -29.8139    0.0185   29.1262 C.3     1  UNL1        0.1989
     37 N         -32.7208    1.4058   32.0421 N.3     1  UNL1       -0.1313
     38 CL        -22.9936    2.2968   25.0438 Cl      1  UNL1       -0.0782
     39 F         -20.8049    1.9326   26.9007 F       1  UNL1       -0.1823
     40 O         -27.6193   -0.6980   29.3382 O.3     1  UNL1       -0.3316
     41 O         -29.8794   -0.3183   27.7768 O.3     1  UNL1       -0.2189
     42 C         -22.9313    0.4560   29.2226 C.2     1  UNL1        0.1158
     43 C         -30.7895    1.0936   29.5694 C.3     1  UNL1        0.1261
     44 C         -23.1478    1.5790   26.6563 C.2     1  UNL1        0.1047
     45 N         -30.7133    2.2080   28.5898 N.3     1  UNL1       -0.1301
     46 N         -25.2653   -0.1218   29.0288 N.pl3   1  UNL1       -0.2779
@<TRIPOS>BOND
     1     1    46    1
     2     2     7    1
     3     2     1    1
     4     3     2    2
     5     4     3    1
     6     4     5    2
     7     5     6    1
     8     6     7    2
     9     8     1    1
    10     8     9    1
    11     8    12    1
    12     9    10    1
    13    10    11    1
    14    12    11    1
    15    13    34    1
    16    14    13    1
    17    14    15    1
    18    15    18    2
    19    16    17    1
    20    16    15    1
    21    19    14    2
    22    20    21    2
    23    20    19    1
    24    21    26    1
    25    22    21    1
    26    23    22    1
    27    24    23    1
    28    24    25    1
    29    26    27    1
    30    26    13    2
    31    28    46    1
    32    28    42    1
    33    29    31    1
    34    31    42    2
    35    32    35    1
    36    33    46    1
    37    33    40    1
    38    34    28    2
    39    35    37    1
    40    36    41    1
    41    36    43    1
    42    36    30    1
    43    38    44    1
    44    39    29    1
    45    40    30    1
    46    43    45    1
    47    43    32    1
    48    44    34    1
    49    44    29    2
