@<TRIPOS>MOLECULE
outputs/IAG933/test6/raw/output_3168_IAG933_linker_design_.xyz
 44 48 0 0 0
SMALL
GASTEIGER

@<TRIPOS>ATOM
      1 C         -24.8550   -1.0120   30.1430 C.3     1  UNL1        0.0387
      2 C         -24.9730   -2.5050   29.7880 C.2     1  UNL1       -0.0211
      3 C         -23.9060   -3.1730   29.1460 C.2     1  UNL1       -0.0042
      4 C         -23.9890   -4.5490   28.8530 C.2     1  UNL1       -0.0003
      5 C         -25.1370   -5.2800   29.2050 C.2     1  UNL1       -0.0000
      6 C         -26.2320   -4.6110   29.7840 C.2     1  UNL1       -0.0003
      7 C         -26.1550   -3.2320   30.0650 C.2     1  UNL1       -0.0042
      8 C         -25.3870   -0.6790   31.5710 C.3     1  UNL1        0.0768
      9 C         -25.1890    0.7730   32.0280 C.3     1  UNL1        0.0192
     10 C         -25.3360    0.6840   33.5440 C.3     1  UNL1        0.0202
     11 C         -24.8290   -0.7150   33.9050 C.3     1  UNL1        0.0887
     12 N         -24.7580   -1.4810   32.6460 N.3     1  UNL1       -0.2191
     13 C         -25.6880    1.6140   26.4610 C.2     1  UNL1        0.0188
     14 C         -26.2500    2.9200   26.3950 C.2     1  UNL1        0.0727
     15 C         -25.6420    4.0930   27.1230 C.2     1  UNL1        0.2661
     16 N         -25.6140    5.2520   26.4490 N.am    1  UNL1       -0.1997
     17 C         -25.0260    6.4790   26.9630 C.3     1  UNL1        0.1388
     18 O         -25.1430    3.9660   28.2430 O.2     1  UNL1       -0.2683
     19 C         -27.4380    3.0910   25.6450 C.2     1  UNL1        0.1064
     20 N         -28.0750    2.0890   25.0030 N.2     1  UNL1       -0.2081
     21 C         -27.5430    0.8490   25.0790 C.2     1  UNL1        0.2530
     22 O         -28.1930   -0.2080   24.4770 O.2     1  UNL1       -0.4558
     23 C         -29.4600    0.0050   23.8660 C.3     1  UNL1        0.2426
     24 C         -30.0650   -1.3770   23.5730 C.3     1  UNL1        0.2292
     25 O         -30.7290   -1.8780   24.7210 O.3     1  UNL1       -0.2162
     26 C         -26.3540    0.5760   25.7770 C.2     1  UNL1        0.1892
     27 F         -25.8600   -0.6810   25.7950 F       1  UNL1       -0.1996
     28 C         -27.6878    0.0433   28.7049 C.3     1  UNL1        0.0722
     29 C         -22.2203    1.3679   27.5452 C.2     1  UNL1        0.1099
     30 C         -24.4782    1.2816   27.1920 C.3     1  UNL1        0.0661
     31 O         -21.7362    2.5369   25.8108 O.2     1  UNL1       -0.2174
     32 C         -28.6171    2.8312   30.1234 C.2     1  UNL1        0.3217
     33 C         -23.3824    1.8387   26.7592 C.3     1  UNL1        0.2099
     34 C         -22.6733    0.1607   29.7811 C.3     1  UNL1        0.0068
     35 C         -27.0280    1.2728   29.0688 C.2     1  UNL1        0.1221
     36 O         -27.3389    2.4755   29.6834 O.3     1  UNL1       -0.4289
     37 O         -23.1597    2.5489   25.6825 O.3     1  UNL1       -0.1454
     38 C         -24.0325   -0.0196   29.5007 C.3     1  UNL1        0.0103
     39 C         -21.9078    0.5079   28.7505 C.3     1  UNL1        0.0474
     40 C         -24.8040    0.8923   28.6154 C.3     1  UNL1        0.0321
     41 O         -28.7991    3.4157   31.0449 O.2     1  UNL1       -0.2497
     42 C         -29.8112    2.4332   29.1689 C.3     1  UNL1        0.1216
     43 C         -26.1206    0.7217   28.6956 C.2     1  UNL1        0.0070
     44 N         -21.3256    1.7599   26.7744 N.2     1  UNL1       -0.0492
@<TRIPOS>BOND
     1     1     2    1
     2     2     7    1
     3     3     2    2
     4     4     3    1
     5     4     5    2
     6     5     6    1
     7     6     7    2
     8     8     1    1
     9     8     9    1
    10     8    12    1
    11     9    10    1
    12    10    11    1
    13    12    11    1
    14    14    13    1
    15    14    15    1
    16    15    18    2
    17    16    17    1
    18    16    15    1
    19    19    14    2
    20    20    21    2
    21    20    19    1
    22    21    26    1
    23    22    21    1
    24    23    22    1
    25    24    23    1
    26    24    25    1
    27    26    27    1
    28    26    13    2
    29    28    35    1
    30    29    39    1
    31    30    13    1
    32    30    40    1
    33    31    44    1
    34    32    41    2
    35    33    37    1
    36    33    30    1
    37    33    29    1
    38    35    36    1
    39    36    32    1
    40    37    31    1
    41    38    34    1
    42    38     1    1
    43    39    34    1
    44    40    43    1
    45    40    38    1
    46    42    32    1
    47    43    35    2
    48    44    29    2
