@<TRIPOS>MOLECULE
No_317-gen_results/8p0m/2024-11-27-11-27-31/
 16 17 0 0 0
SMALL
GASTEIGER

@<TRIPOS>ATOM
      1 C         -28.0162   -0.8135   28.8779 C.ar    1  UNL1       -0.0043
      2 C         -28.4690   -0.7850   29.8287 C.ar    1  UNL1       -0.0003
      3 C         -28.1816    0.4277   28.1134 C.ar    1  UNL1       -0.0218
      4 C         -28.9841    1.4155   28.5154 C.ar    1  UNL1       -0.0043
      5 C         -29.3802    0.1384   30.4612 C.ar    1  UNL1       -0.0000
      6 C         -29.5415    1.2736   29.7242 C.ar    1  UNL1       -0.0003
      7 C         -27.4452    0.4872   26.7726 C.3     1  UNL1        0.0311
      8 C         -26.4447    1.5070   26.6299 C.3     1  UNL1        0.0326
      9 C         -25.2364    1.4302   27.4341 C.ar    1  UNL1       -0.0030
     10 C         -24.7573    0.5551   28.0332 C.ar    1  UNL1       -0.0055
     11 C         -23.7482    0.5003   28.7880 C.ar    1  UNL1       -0.0033
     12 C         -23.2465   -0.6154   29.6673 C.3     1  UNL1        0.0279
     13 C         -24.3578    2.6717   27.3552 C.ar    1  UNL1        0.0946
     14 N         -23.2172    2.6969   28.0025 N.ar    1  UNL1       -0.2430
     15 C         -22.8194    1.6588   28.7725 C.ar    1  UNL1        0.0946
     16 C         -24.1442   -0.9965   30.6463 C.3     1  UNL1        0.0051
@<TRIPOS>BOND
     1     3     7    1
     2     7     8    1
     3     8     9    1
     4    11    12    1
     5    12    16    1
     6     9    10   ar
     7    10    11   ar
     8    11    15   ar
     9    15    14   ar
    10    14    13   ar
    11    13     9   ar
    12     1     2   ar
    13     2     5   ar
    14     5     6   ar
    15     6     4   ar
    16     4     3   ar
    17     3     1   ar
