@<TRIPOS>MOLECULE
outputs/IAG933/test6/raw/output_3173_IAG933_linker_design_.xyz
 43 47 0 0 0
SMALL
GASTEIGER

@<TRIPOS>ATOM
      1 C         -24.8550   -1.0120   30.1430 C.3     1  UNL1        0.1163
      2 C         -24.9730   -2.5050   29.7880 C.2     1  UNL1       -0.0125
      3 C         -23.9060   -3.1730   29.1460 C.2     1  UNL1       -0.0038
      4 C         -23.9890   -4.5490   28.8530 C.2     1  UNL1       -0.0003
      5 C         -25.1370   -5.2800   29.2050 C.2     1  UNL1       -0.0000
      6 C         -26.2320   -4.6110   29.7840 C.2     1  UNL1       -0.0003
      7 C         -26.1550   -3.2320   30.0650 C.2     1  UNL1       -0.0038
      8 C         -25.3870   -0.6790   31.5710 C.3     1  UNL1        0.0855
      9 C         -25.1890    0.7730   32.0280 C.3     1  UNL1        0.0197
     10 C         -25.3360    0.6840   33.5440 C.3     1  UNL1        0.0203
     11 C         -24.8290   -0.7150   33.9050 C.3     1  UNL1        0.0887
     12 N         -24.7580   -1.4810   32.6460 N.3     1  UNL1       -0.2186
     13 C         -25.6880    1.6140   26.4610 C.2     1  UNL1        0.0867
     14 C         -26.2500    2.9200   26.3950 C.2     1  UNL1        0.0882
     15 C         -25.6420    4.0930   27.1230 C.2     1  UNL1        0.2313
     16 N         -25.6140    5.2520   26.4490 N.2     1  UNL1       -0.2352
     17 C         -25.0260    6.4790   26.9630 C.3     1  UNL1        0.1550
     18 O         -25.1430    3.9660   28.2430 O.3     1  UNL1       -0.4051
     19 C         -27.4380    3.0910   25.6450 C.2     1  UNL1        0.1081
     20 N         -28.0750    2.0890   25.0030 N.2     1  UNL1       -0.2080
     21 C         -27.5430    0.8490   25.0790 C.2     1  UNL1        0.2546
     22 O         -28.1930   -0.2080   24.4770 O.2     1  UNL1       -0.4558
     23 C         -29.4600    0.0050   23.8660 C.3     1  UNL1        0.2426
     24 C         -30.0650   -1.3770   23.5730 C.3     1  UNL1        0.2292
     25 O         -30.7290   -1.8780   24.7210 O.3     1  UNL1       -0.2162
     26 C         -26.3540    0.5760   25.7770 C.2     1  UNL1        0.2063
     27 F         -25.8600   -0.6810   25.7950 F       1  UNL1       -0.1979
     28 N         -25.7956    0.8607   28.9977 N.am    1  UNL1       -0.1930
     29 C         -21.3097    0.5331   28.7792 C.2     1  UNL1       -0.0289
     30 C         -22.8418    1.9013   25.4983 C.2     1  UNL1        0.3281
     31 C         -20.9253    1.6214   28.1065 C.2     1  UNL1       -0.0284
     32 C         -25.2930    3.1821   29.2342 C.2     1  UNL1        0.3450
     33 C         -25.4076    1.9019   29.0418 C.3     1  UNL1        0.2244
     34 C         -23.0975    1.6303   26.9594 C.3     1  UNL1        0.1616
     35 F         -22.0482    2.8289   25.0800 F       1  UNL1       -0.1618
     36 N         -24.4553    1.2825   27.0477 N.pl3   1  UNL1       -0.2979
     37 C         -25.8175   -0.3874   29.1562 C.2     1  UNL1        0.2469
     38 O         -23.4241    1.1459   24.6903 O.2     1  UNL1       -0.2573
     39 C         -23.5337    1.0102   27.7040 C.3     1  UNL1        0.1038
     40 O         -25.3275    3.5956   30.3770 O.2     1  UNL1       -0.2477
     41 C         -21.8031    2.1959   27.3933 C.3     1  UNL1        0.0555
     42 O         -26.6855   -0.9157   28.5041 O.2     1  UNL1       -0.2729
     43 C         -22.6614    0.1228   28.6435 C.3     1  UNL1        0.0476
@<TRIPOS>BOND
     1     1    37    1
     2     2     7    1
     3     2     1    1
     4     3     2    2
     5     4     3    1
     6     4     5    2
     7     5     6    1
     8     6     7    2
     9     8     1    1
    10     8     9    1
    11     8    12    1
    12     9    10    1
    13    10    11    1
    14    12    11    1
    15    13    36    1
    16    14    13    1
    17    14    15    1
    18    15    18    1
    19    16    17    1
    20    16    15    2
    21    18    32    1
    22    19    14    2
    23    20    21    2
    24    20    19    1
    25    21    26    1
    26    22    21    1
    27    23    22    1
    28    24    23    1
    29    24    25    1
    30    26    27    1
    31    26    13    2
    32    28    33    1
    33    28    37    1
    34    31    29    2
    35    32    40    2
    36    33    32    1
    37    34    30    1
    38    34    36    1
    39    34    41    1
    40    34    39    1
    41    35    30    1
    42    36    39    1
    43    38    30    2
    44    39    43    1
    45    41    31    1
    46    42    37    2
    47    43    29    1
