@<TRIPOS>MOLECULE
No_3174-gen_results/8p0m/2024-11-27-11-27-31/
 8 8 0 0 0
SMALL
GASTEIGER

@<TRIPOS>ATOM
      1 C         -28.0162   -0.8135   28.8779 C.ar    1  UNL1        0.0429
      2 C         -27.0636   -0.1189   28.6079 C.ar    1  UNL1        0.0147
      3 C         -25.7647   -0.3897   29.0360 C.ar    1  UNL1        0.0579
      4 C         -25.4887   -1.1536   29.7171 C.ar    1  UNL1        0.0147
      5 C         -26.4902   -2.1223   30.2112 C.ar    1  UNL1        0.0429
      6 C         -27.7302   -1.9094   29.8268 C.ar    1  UNL1        0.1958
      7 O         -28.6875   -2.7646   30.2506 O.3     1  UNL1       -0.2866
      8 CL        -24.4843    0.7969   28.4678 Cl      1  UNL1       -0.0822
@<TRIPOS>BOND
     1     6     7    1
     2     3     8    1
     3     1     2   ar
     4     2     3   ar
     5     3     4   ar
     6     4     5   ar
     7     5     6   ar
     8     6     1   ar
