@<TRIPOS>MOLECULE
outputs/IAG933/test6/raw/output_3177_IAG933_linker_design_.xyz
 43 47 0 0 0
SMALL
GASTEIGER

@<TRIPOS>ATOM
      1 C         -24.8550   -1.0120   30.1430 C.3     0  UNK0        0.1000
      2 C         -24.9730   -2.5050   29.7880 C.2     0  UNK0       -0.0063
      3 C         -23.9060   -3.1730   29.1460 C.2     0  UNK0       -0.0029
      4 C         -23.9890   -4.5490   28.8530 C.2     0  UNK0       -0.0003
      5 C         -25.1370   -5.2800   29.2050 C.2     0  UNK0       -0.0000
      6 C         -26.2320   -4.6110   29.7840 C.2     0  UNK0       -0.0003
      7 C         -26.1550   -3.2320   30.0650 C.2     0  UNK0       -0.0029
      8 C         -25.3870   -0.6790   31.5710 C.3     0  UNK0        0.0917
      9 C         -25.1890    0.7730   32.0280 C.3     0  UNK0        0.0206
     10 C         -25.3360    0.6840   33.5440 C.3     0  UNK0        0.0203
     11 C         -24.8290   -0.7150   33.9050 C.3     0  UNK0        0.0888
     12 N         -24.7580   -1.4810   32.6460 N.3     0  UNK0       -0.2178
     13 C         -25.6880    1.6140   26.4610 C.2     0  UNK0        0.0194
     14 C         -26.2500    2.9200   26.3950 C.2     0  UNK0        0.0727
     15 C         -25.6420    4.0930   27.1230 C.2     0  UNK0        0.2661
     16 N         -25.6140    5.2520   26.4490 N.am    0  UNK0       -0.1997
     17 C         -25.0260    6.4790   26.9630 C.3     0  UNK0        0.1388
     18 O         -25.1430    3.9660   28.2430 O.2     0  UNK0       -0.2683
     19 C         -27.4380    3.0910   25.6450 C.2     0  UNK0        0.1064
     20 N         -28.0750    2.0890   25.0030 N.2     0  UNK0       -0.2081
     21 C         -27.5430    0.8490   25.0790 C.2     0  UNK0        0.2530
     22 O         -28.1930   -0.2080   24.4770 O.2     0  UNK0       -0.4558
     23 C         -29.4600    0.0050   23.8660 C.3     0  UNK0        0.2426
     24 C         -30.0650   -1.3770   23.5730 C.3     0  UNK0        0.2292
     25 O         -30.7290   -1.8780   24.7210 O.3     0  UNK0       -0.2162
     26 C         -26.3540    0.5760   25.7770 C.2     0  UNK0        0.1892
     27 F         -25.8600   -0.6810   25.7950 F       0  UNK0       -0.1996
     28 C         -22.8666    2.1368   26.0821 C.2     0  UNK0        0.3160
     29 F         -21.6265    2.5032   26.0430 F       0  UNK0       -0.1632
     30 C         -22.3951    0.7753   28.2375 C.2     0  UNK0        0.1160
     31 C         -24.6714    1.0344   27.2544 C.3     0  UNK0        0.0740
     32 O         -27.6739   -0.4199   28.6585 O.2     1  ALA1       -0.2730
     33 N         -21.1011    0.8240   28.1334 N.2     0  UNK0       -0.1526
     34 F         -22.1724   -0.5994   30.1665 F       0  UNK0       -0.2125
     35 C         -27.1869    0.5475   29.0732 C.2     1  ALA1        0.2450
     36 CB        -26.5193    3.4467   30.2677 C.3     1  ALA1        0.0315
     37 CA        -27.3458    1.9200   29.8643 C.3     1  ALA1        0.1531
     38 C         -22.9040    0.0628   29.3078 C.3     0  UNK0        0.2620
     39 N         -26.2145    1.2226   29.3785 N.am    1  ALA1       -0.2593
     40 C         -23.3313    1.4023   27.2534 C.3     0  UNK0        0.1399
     41 C         -24.9430    1.0350   28.8515 C.3     0  UNK0        0.1441
     42 N         -24.2321    0.0340   29.3903 N.3     0  UNK0       -0.2226
     43 O         -23.4691    2.4426   25.1499 O.2     0  UNK0       -0.2587
@<TRIPOS>BOND
     1     1     2    1
     2     2     7    1
     3     3     2    2
     4     4     3    1
     5     4     5    2
     6     5     6    1
     7     6     7    2
     8     8     1    1
     9     8     9    1
    10     8    12    1
    11     9    10    1
    12    10    11    1
    13    12    11    1
    14    14    13    1
    15    14    15    1
    16    15    18    2
    17    16    17    1
    18    16    15    1
    19    19    14    2
    20    20    21    2
    21    20    19    1
    22    21    26    1
    23    22    21    1
    24    23    22    1
    25    24    23    1
    26    24    25    1
    27    26    27    1
    28    26    13    2
    29    29    28    1
    30    30    38    1
    31    31    13    1
    32    31    41    1
    33    32    35    2
    34    33    30    2
    35    35    39   am
    36    35    37    1
    37    37    36    1
    38    38    42    1
    39    38    34    1
    40    39    37    1
    41    40    28    1
    42    40    31    1
    43    40    30    1
    44    41    39    1
    45    41    42    1
    46    42     1    1
    47    43    28    2
