@<TRIPOS>MOLECULE
outputs/IAG933/test6/raw/output_3179_IAG933_linker_design_.xyz
 46 50 0 0 0
SMALL
GASTEIGER

@<TRIPOS>ATOM
      1 C         -24.8550   -1.0120   30.1430 C.3     1  UNL1        0.0699
      2 C         -24.9730   -2.5050   29.7880 C.2     1  UNL1       -0.0184
      3 C         -23.9060   -3.1730   29.1460 C.2     1  UNL1       -0.0041
      4 C         -23.9890   -4.5490   28.8530 C.2     1  UNL1       -0.0003
      5 C         -25.1370   -5.2800   29.2050 C.2     1  UNL1       -0.0000
      6 C         -26.2320   -4.6110   29.7840 C.2     1  UNL1       -0.0003
      7 C         -26.1550   -3.2320   30.0650 C.2     1  UNL1       -0.0041
      8 C         -25.3870   -0.6790   31.5710 C.3     1  UNL1        0.0795
      9 C         -25.1890    0.7730   32.0280 C.3     1  UNL1        0.0193
     10 C         -25.3360    0.6840   33.5440 C.3     1  UNL1        0.0202
     11 C         -24.8290   -0.7150   33.9050 C.3     1  UNL1        0.0887
     12 N         -24.7580   -1.4810   32.6460 N.3     1  UNL1       -0.2190
     13 C         -25.6880    1.6140   26.4610 C.3     1  UNL1        0.0922
     14 C         -26.2500    2.9200   26.3950 C.2     1  UNL1        0.0589
     15 C         -25.6420    4.0930   27.1230 C.2     1  UNL1        0.2628
     16 N         -25.6140    5.2520   26.4490 N.am    1  UNL1       -0.2000
     17 C         -25.0260    6.4790   26.9630 C.3     1  UNL1        0.1388
     18 O         -25.1430    3.9660   28.2430 O.2     1  UNL1       -0.2686
     19 C         -27.4380    3.0910   25.6450 C.2     1  UNL1        0.1025
     20 N         -28.0750    2.0890   25.0030 N.2     1  UNL1       -0.2118
     21 C         -27.5430    0.8490   25.0790 C.2     1  UNL1        0.2344
     22 O         -28.1930   -0.2080   24.4770 O.2     1  UNL1       -0.4585
     23 C         -29.4600    0.0050   23.8660 C.3     1  UNL1        0.2423
     24 C         -30.0650   -1.3770   23.5730 C.3     1  UNL1        0.2292
     25 O         -30.7290   -1.8780   24.7210 O.3     1  UNL1       -0.2162
     26 C         -26.3540    0.5760   25.7770 C.3     1  UNL1        0.2440
     27 F         -25.8600   -0.6810   25.7950 F       1  UNL1       -0.2265
     28 C         -24.9058    0.1388   29.0999 C.3     1  UNL1        0.1474
     29 N         -28.5350    0.5374   29.4063 N.am    1  UNL1       -0.2509
     30 C         -27.4258   -0.0138   28.6697 C.3     1  UNL1        0.2429
     31 O         -26.1924    0.1627   28.4325 O.3     1  UNL1       -0.3318
     32 C         -21.9992    1.9735   26.3882 C.2     1  UNL1        0.0030
     33 C         -22.5943    0.6942   28.3844 C.2     1  UNL1        0.1937
     34 C         -23.9392    0.7772   28.0653 C.2     1  UNL1        0.0404
     35 C         -28.7385    1.4377   30.2543 C.2     1  UNL1        0.2672
     36 C         -29.1035    0.7944   31.4612 C.2     1  UNL1        0.1383
     37 C         -30.9448    0.1283   28.7982 C.3     1  UNL1        0.0220
     38 C         -29.5564   -1.4733   30.2654 C.3     1  UNL1        0.0475
     39 C         -29.5421   -0.6124   31.5196 C.2     1  UNL1       -0.0018
     40 O         -22.1635    0.0426   29.4784 O.2     1  UNL1       -0.2868
     41 C         -29.5744   -0.4890   29.0967 C.3     1  UNL1        0.0823
     42 C         -21.6392    1.3288   27.5717 C.2     1  UNL1        0.0418
     43 C         -23.3377    1.9540   25.9726 C.2     1  UNL1       -0.0039
     44 O         -28.4482    2.6268   30.1393 O.2     1  UNL1       -0.2684
     45 C         -24.3013    1.4328   26.8639 C.2     1  UNL1       -0.0137
     46 N         -28.9463    1.4497   32.6909 N.pl3   1  UNL1       -0.1236
@<TRIPOS>BOND
     1     1    28    1
     2     2     7    1
     3     2     1    1
     4     3     2    2
     5     4     3    1
     6     4     5    2
     7     5     6    1
     8     6     7    2
     9     8     1    1
    10     8     9    1
    11     8    12    1
    12     9    10    1
    13    10    11    1
    14    12    11    1
    15    13    45    1
    16    14    13    1
    17    14    15    1
    18    15    18    2
    19    16    17    1
    20    16    15    1
    21    19    14    2
    22    20    21    2
    23    20    19    1
    24    21    26    1
    25    22    21    1
    26    23    22    1
    27    24    23    1
    28    24    25    1
    29    26    27    1
    30    26    13    1
    31    28    31    1
    32    29    35   am
    33    30    29    1
    34    31    30    1
    35    32    42    1
    36    33    40    1
    37    34    33    1
    38    34    28    1
    39    35    36    1
    40    36    39    2
    41    36    46    1
    42    38    39    1
    43    41    37    1
    44    41    29    1
    45    41    38    1
    46    42    33    2
    47    43    32    2
    48    43    45    1
    49    44    35    2
    50    45    34    2
