@<TRIPOS>MOLECULE
outputs/IAG933/test6/raw/output_3180_IAG933_linker_design_.xyz
 41 43 0 0 0
SMALL
GASTEIGER

@<TRIPOS>ATOM
      1 C         -24.8550   -1.0120   30.1430 C.3     1  UNL1        0.0437
      2 C         -24.9730   -2.5050   29.7880 C.2     1  UNL1       -0.0208
      3 C         -23.9060   -3.1730   29.1460 C.2     1  UNL1       -0.0042
      4 C         -23.9890   -4.5490   28.8530 C.2     1  UNL1       -0.0003
      5 C         -25.1370   -5.2800   29.2050 C.2     1  UNL1       -0.0000
      6 C         -26.2320   -4.6110   29.7840 C.2     1  UNL1       -0.0003
      7 C         -26.1550   -3.2320   30.0650 C.2     1  UNL1       -0.0042
      8 C         -25.3870   -0.6790   31.5710 C.3     1  UNL1        0.0776
      9 C         -25.1890    0.7730   32.0280 C.3     1  UNL1        0.0279
     10 C         -25.3360    0.6840   33.5440 C.3     1  UNL1        0.0207
     11 C         -24.8290   -0.7150   33.9050 C.3     1  UNL1        0.0887
     12 N         -24.7580   -1.4810   32.6460 N.3     1  UNL1       -0.2191
     13 C         -25.6880    1.6140   26.4610 C.2     1  UNL1        0.0199
     14 C         -26.2500    2.9200   26.3950 C.2     1  UNL1        0.0727
     15 C         -25.6420    4.0930   27.1230 C.2     1  UNL1        0.2661
     16 N         -25.6140    5.2520   26.4490 N.am    1  UNL1       -0.1997
     17 C         -25.0260    6.4790   26.9630 C.3     1  UNL1        0.1388
     18 O         -25.1430    3.9660   28.2430 O.2     1  UNL1       -0.2683
     19 C         -27.4380    3.0910   25.6450 C.2     1  UNL1        0.1064
     20 N         -28.0750    2.0890   25.0030 N.2     1  UNL1       -0.2081
     21 C         -27.5430    0.8490   25.0790 C.2     1  UNL1        0.2530
     22 O         -28.1930   -0.2080   24.4770 O.2     1  UNL1       -0.4558
     23 C         -29.4600    0.0050   23.8660 C.3     1  UNL1        0.2426
     24 C         -30.0650   -1.3770   23.5730 C.3     1  UNL1        0.2292
     25 O         -30.7290   -1.8780   24.7210 O.3     1  UNL1       -0.2162
     26 C         -26.3540    0.5760   25.7770 C.2     1  UNL1        0.1892
     27 F         -25.8600   -0.6810   25.7950 F       1  UNL1       -0.1996
     28 C         -22.1560    1.6142   27.4836 C.2     1  UNL1        0.2219
     29 C         -24.3731    1.4415   27.0585 C.3     1  UNL1        0.0800
     30 O         -22.4175    0.0922   29.4818 O.2     1  UNL1       -0.2290
     31 N         -24.7553    1.2751   29.5795 N.3     1  UNL1       -0.2171
     32 O         -22.9386    2.7797   25.6154 O.3     1  UNL1       -0.2146
     33 C         -22.4845    0.8203   28.4908 C.1     1  UNL1        0.1614
     34 C         -25.5460    2.1396   31.4211 C.3     1  UNL1        0.0986
     35 C         -25.8764    2.1066   29.9682 C.3     1  UNL1        0.0979
     36 C         -23.0883    1.9000   26.6418 C.3     1  UNL1        0.2174
     37 F         -20.9358    2.1238   27.3086 F       1  UNL1       -0.1946
     38 O         -24.8559    4.1197   32.7538 O.2     1  UNL1       -0.2716
     39 C         -25.7882    3.3593   32.3031 C.2     1  UNL1        0.2617
     40 C         -24.5469    0.8971   28.3734 C.3     1  UNL1        0.0961
     41 N         -27.0426    3.6338   32.6042 N.am    1  UNL1       -0.0878
@<TRIPOS>BOND
     1     2     7    1
     2     2     1    1
     3     3     2    2
     4     4     3    1
     5     4     5    2
     6     5     6    1
     7     6     7    2
     8     8     1    1
     9     8     9    1
    10     8    12    1
    11     9    34    1
    12     9    10    1
    13    10    11    1
    14    12    11    1
    15    13    29    1
    16    14    13    1
    17    14    15    1
    18    15    18    2
    19    16    17    1
    20    16    15    1
    21    19    14    2
    22    20    21    2
    23    20    19    1
    24    21    26    1
    25    22    21    1
    26    23    22    1
    27    24    23    1
    28    24    25    1
    29    26    27    1
    30    26    13    2
    31    28    33    2
    32    29    40    1
    33    31    35    1
    34    33    30    2
    35    34    35    1
    36    34    39    1
    37    36    32    1
    38    36    29    1
    39    36    28    1
    40    37    28    1
    41    39    41    1
    42    39    38    2
    43    40    31    1
