@<TRIPOS>MOLECULE
outputs/IAG933/test6/raw/output_3184_IAG933_linker_design_.xyz
 44 48 0 0 0
SMALL
GASTEIGER

@<TRIPOS>ATOM
      1 C         -24.8550   -1.0120   30.1430 C.3     1  UNL1        0.0965
      2 C         -24.9730   -2.5050   29.7880 C.2     1  UNL1       -0.0064
      3 C         -23.9060   -3.1730   29.1460 C.2     1  UNL1       -0.0029
      4 C         -23.9890   -4.5490   28.8530 C.2     1  UNL1       -0.0003
      5 C         -25.1370   -5.2800   29.2050 C.2     1  UNL1       -0.0000
      6 C         -26.2320   -4.6110   29.7840 C.2     1  UNL1       -0.0003
      7 C         -26.1550   -3.2320   30.0650 C.2     1  UNL1       -0.0029
      8 C         -25.3870   -0.6790   31.5710 C.3     1  UNL1        0.0916
      9 C         -25.1890    0.7730   32.0280 C.3     1  UNL1        0.0206
     10 C         -25.3360    0.6840   33.5440 C.3     1  UNL1        0.0203
     11 C         -24.8290   -0.7150   33.9050 C.3     1  UNL1        0.0888
     12 N         -24.7580   -1.4810   32.6460 N.3     1  UNL1       -0.2178
     13 C         -25.6880    1.6140   26.4610 C.3     1  UNL1        0.0891
     14 C         -26.2500    2.9200   26.3950 C.2     1  UNL1        0.0586
     15 C         -25.6420    4.0930   27.1230 C.2     1  UNL1        0.2627
     16 N         -25.6140    5.2520   26.4490 N.am    1  UNL1       -0.2000
     17 C         -25.0260    6.4790   26.9630 C.3     1  UNL1        0.1388
     18 O         -25.1430    3.9660   28.2430 O.2     1  UNL1       -0.2686
     19 C         -27.4380    3.0910   25.6450 C.2     1  UNL1        0.1025
     20 N         -28.0750    2.0890   25.0030 N.2     1  UNL1       -0.2118
     21 C         -27.5430    0.8490   25.0790 C.2     1  UNL1        0.2344
     22 O         -28.1930   -0.2080   24.4770 O.2     1  UNL1       -0.4585
     23 C         -29.4600    0.0050   23.8660 C.3     1  UNL1        0.2423
     24 C         -30.0650   -1.3770   23.5730 C.3     1  UNL1        0.2292
     25 O         -30.7290   -1.8780   24.7210 O.3     1  UNL1       -0.2162
     26 C         -26.3540    0.5760   25.7770 C.3     1  UNL1        0.2437
     27 F         -25.8600   -0.6810   25.7950 F       1  UNL1       -0.2265
     28 N         -31.1702   -0.8933   30.5421 N.am    1  UNL1       -0.2557
     29 N         -24.4007   -0.1459   29.3264 N.3     1  UNL1       -0.2657
     30 C         -23.4409    1.3770   27.0262 C.2     1  UNL1       -0.0342
     31 CL        -20.8921    1.3285   27.7002 Cl      1  UNL1       -0.1091
     32 C         -25.4861    0.4889   28.6134 C.3     1  UNL1        0.0763
     33 C         -26.9039   -0.2814   28.5258 C.3     1  UNL1        0.0210
     34 C         -29.3488   -0.0041   29.4841 C.3     1  UNL1        0.1003
     35 C         -30.5548   -0.6593   29.3991 C.2     1  UNL1        0.2331
     36 C         -32.5363   -1.5714   30.7440 C.3     1  UNL1        0.1201
     37 O         -30.9357   -1.3745   28.2490 O.2     1  UNL1       -0.2742
     38 C         -30.3295   -0.5247   31.5172 C.2     1  UNL1        0.0634
     39 C         -22.9203    2.1751   25.8242 C.3     1  UNL1        0.0270
     40 C         -28.4300    0.0785   28.3715 C.3     1  UNL1        0.0153
     41 C         -29.2264    0.0684   30.9521 C.2     1  UNL1       -0.0012
     42 C         -22.4944    0.6693   28.0731 C.3     1  UNL1        0.1135
     43 C         -23.0542    0.5099   29.4894 C.3     1  UNL1        0.0931
     44 C         -24.8859    1.1772   27.4310 C.2     1  UNL1       -0.0295
@<TRIPOS>BOND
     1     1     2    1
     2     2     7    1
     3     3     2    2
     4     4     3    1
     5     4     5    2
     6     5     6    1
     7     6     7    2
     8     8     1    1
     9     8     9    1
    10     8    12    1
    11     9    10    1
    12    10    11    1
    13    12    11    1
    14    13    44    1
    15    14    13    1
    16    14    15    1
    17    15    18    2
    18    16    17    1
    19    16    15    1
    20    19    14    2
    21    20    21    2
    22    20    19    1
    23    21    26    1
    24    22    21    1
    25    23    22    1
    26    24    23    1
    27    24    25    1
    28    26    27    1
    29    26    13    1
    30    28    36    1
    31    28    38    1
    32    29    43    1
    33    29     1    1
    34    30    44    2
    35    30    42    1
    36    32    33    1
    37    32    29    1
    38    34    40    1
    39    34    41    1
    40    35    34    1
    41    35    28   am
    42    37    35    2
    43    39    30    1
    44    40    33    1
    45    41    38    2
    46    42    31    1
    47    42    43    1
    48    44    32    1
