@<TRIPOS>MOLECULE
outputs/IAG933/test6/raw/output_3187_IAG933_linker_design_.xyz
 44 48 0 0 0
SMALL
GASTEIGER

@<TRIPOS>ATOM
      1 C         -24.8550   -1.0120   30.1430 C.3     1  UNL1        0.0417
      2 C         -24.9730   -2.5050   29.7880 C.2     1  UNL1       -0.0210
      3 C         -23.9060   -3.1730   29.1460 C.2     1  UNL1       -0.0042
      4 C         -23.9890   -4.5490   28.8530 C.2     1  UNL1       -0.0003
      5 C         -25.1370   -5.2800   29.2050 C.2     1  UNL1       -0.0000
      6 C         -26.2320   -4.6110   29.7840 C.2     1  UNL1       -0.0003
      7 C         -26.1550   -3.2320   30.0650 C.2     1  UNL1       -0.0042
      8 C         -25.3870   -0.6790   31.5710 C.3     1  UNL1        0.0769
      9 C         -25.1890    0.7730   32.0280 C.3     1  UNL1        0.0192
     10 C         -25.3360    0.6840   33.5440 C.3     1  UNL1        0.0202
     11 C         -24.8290   -0.7150   33.9050 C.3     1  UNL1        0.0887
     12 N         -24.7580   -1.4810   32.6460 N.3     1  UNL1       -0.2191
     13 C         -25.6880    1.6140   26.4610 C.2     1  UNL1        0.0875
     14 C         -26.2500    2.9200   26.3950 C.2     1  UNL1        0.0899
     15 C         -25.6420    4.0930   27.1230 C.2     1  UNL1        0.2676
     16 N         -25.6140    5.2520   26.4490 N.am    1  UNL1       -0.1997
     17 C         -25.0260    6.4790   26.9630 C.3     1  UNL1        0.1388
     18 O         -25.1430    3.9660   28.2430 O.2     1  UNL1       -0.2683
     19 C         -27.4380    3.0910   25.6450 C.2     1  UNL1        0.1080
     20 N         -28.0750    2.0890   25.0030 N.2     1  UNL1       -0.2080
     21 C         -27.5430    0.8490   25.0790 C.2     1  UNL1        0.2546
     22 O         -28.1930   -0.2080   24.4770 O.2     1  UNL1       -0.4558
     23 C         -29.4600    0.0050   23.8660 C.3     1  UNL1        0.2426
     24 C         -30.0650   -1.3770   23.5730 C.3     1  UNL1        0.2292
     25 O         -30.7290   -1.8780   24.7210 O.3     1  UNL1       -0.2162
     26 C         -26.3540    0.5760   25.7770 C.2     1  UNL1        0.2063
     27 F         -25.8600   -0.6810   25.7950 F       1  UNL1       -0.1979
     28 C         -30.8358    2.0538   28.4343 C.3     1  UNL1        0.0386
     29 C         -30.4380    1.3611   27.1163 C.3     1  UNL1        0.0503
     30 C         -28.7570    1.4042   29.7051 C.2     1  UNL1        0.0607
     31 O         -28.6157   -0.3852   28.0770 O.2     1  UNL1       -0.4623
     32 C         -22.6264   -0.0931   28.7274 C.3     1  UNL1        0.0246
     33 C         -32.4055    2.1237   28.4448 C.3     1  UNL1        0.0031
     34 C         -25.1636    0.7390   28.4887 C.3     1  UNL1        0.1705
     35 C         -29.8063   -0.0035   27.3599 C.3     1  UNL1        0.2070
     36 C         -23.3478    1.4445   26.8532 C.3     1  UNL1        0.1113
     37 O         -30.8197    2.0404   30.8062 O.3     1  UNL1       -0.2182
     38 N         -24.7020    1.2289   27.3769 N.pl3   1  UNL1       -0.2886
     39 N         -26.5724    0.4993   28.8415 N.pl3   1  UNL1       -0.1870
     40 C         -30.1880    1.5426   29.6614 C.3     1  UNL1        0.1784
     41 C         -24.1216   -0.1243   29.1950 C.3     1  UNL1        0.0460
     42 N         -21.0186    1.6969   27.7927 N.3     1  UNL1       -0.1311
     43 C         -27.9826    0.5472   28.8491 C.2     1  UNL1        0.2091
     44 C         -22.4228    1.3201   28.0896 C.3     1  UNL1        0.1117
@<TRIPOS>BOND
     1     1     2    1
     2     2     7    1
     3     3     2    2
     4     4     3    1
     5     4     5    2
     6     5     6    1
     7     6     7    2
     8     8     1    1
     9     8     9    1
    10     8    12    1
    11     9    10    1
    12    10    11    1
    13    12    11    1
    14    13    38    1
    15    14    13    1
    16    14    15    1
    17    15    18    2
    18    16    17    1
    19    16    15    1
    20    19    14    2
    21    20    21    2
    22    20    19    1
    23    21    26    1
    24    22    21    1
    25    23    22    1
    26    24    23    1
    27    24    25    1
    28    26    27    1
    29    26    13    2
    30    28    33    1
    31    28    40    1
    32    29    35    1
    33    29    28    1
    34    31    43    1
    35    32    41    1
    36    34    39    1
    37    34    41    1
    38    35    31    1
    39    36    38    1
    40    36    44    1
    41    38    34    1
    42    39    43    1
    43    40    30    1
    44    40    37    1
    45    41     1    1
    46    43    30    2
    47    44    42    1
    48    44    32    1
