@<TRIPOS>MOLECULE
No_3188-gen_results/8p0m/2024-11-27-11-27-31/
 32 34 0 0 0
SMALL
GASTEIGER

@<TRIPOS>ATOM
      1 C         -28.0162   -0.8135   28.8779 C.ar    1  UNL1        0.0067
      2 C         -27.0636   -0.1190   28.6079 C.ar    1  UNL1        0.0046
      3 C         -25.7647   -0.3897   29.0360 C.ar    1  UNL1        0.0004
      4 C         -24.5516    0.4058   28.7646 C.ar    1  UNL1        0.0066
      5 C         -24.6957    1.4480   27.7988 C.ar    1  UNL1        0.0799
      6 C         -26.0010    1.6784   27.2965 C.ar    1  UNL1        0.0111
      7 C         -27.0736    0.9682   27.6500 C.ar    1  UNL1        0.0538
      8 C         -27.9396   -1.6461   30.1197 C.ar    1  UNL1        0.0798
      9 C         -26.6414   -2.1383   30.4940 C.ar    1  UNL1        0.0066
     10 C         -25.5285   -1.4022   30.0886 C.ar    1  UNL1        0.0002
     11 C         -23.5019    2.2360   27.4345 C.2     1  UNL1        0.3878
     12 O         -23.5458    2.9409   26.3623 O.co2   1  UNL1       -0.2406
     13 O         -22.3677    2.0956   28.0281 O.co2   1  UNL1       -0.2406
     14 C         -29.0871   -2.4899   30.5499 C.2     1  UNL1        0.3878
     15 O         -30.0278   -2.0336   30.9109 O.co2   1  UNL1       -0.2406
     16 O         -28.8739   -3.7791   30.5829 O.co2   1  UNL1       -0.2406
     17 C         -28.3878    1.3007   26.9920 C.2     1  UNL1        0.2490
     18 O         -29.0987    2.0083   27.5278 O.2     1  UNL1       -0.2699
     19 N         -28.5839    0.6518   25.8302 N.am    1  UNL1       -0.2760
     20 C         -29.8162    0.7533   25.0877 C.3     1  UNL1        0.0954
     21 C         -27.5989   -0.1269   25.0687 C.3     1  UNL1        0.0937
     22 C         -27.9248   -0.6979   23.8858 C.3     1  UNL1        0.0216
     23 C         -30.0983    0.0026   24.0153 C.3     1  UNL1        0.0415
     24 C         -29.1329   -0.7014   23.3620 C.3     1  UNL1        0.0052
     25 C         -31.4723   -0.0178   23.3829 C.3     1  UNL1        0.1139
     26 N         -32.3686   -0.9339   23.8461 N.pl3   1  UNL1       -0.2366
     27 C         -32.6033   -1.0539   25.1860 C.2     1  UNL1        0.0758
     28 C         -33.2404   -2.2717   25.6537 C.2     1  UNL1       -0.0041
     29 C         -33.4438   -3.1039   24.9607 C.3     1  UNL1        0.0530
     30 C         -34.1583   -4.3054   25.4326 C.2     1  UNL1       -0.0259
     31 C         -34.3808   -4.4651   26.7034 C.2     1  UNL1       -0.0300
     32 C         -34.0844   -3.4832   27.6169 C.3     1  UNL1        0.0304
@<TRIPOS>BOND
     1     5    11    1
     2    11    12   ar
     3    11    13   ar
     4     8    14    1
     5    14    15   ar
     6    14    16   ar
     7     7    17    1
     8    17    18    2
     9    17    19   am
    10    19    20    1
    11    19    21    1
    12    22    24    1
    13    23    24    1
    14    23    25    1
    15    25    26    1
    16    26    27    1
    17    27    28    2
    18    28    29    1
    19    29    30    1
    20    30    31    2
    21    31    32    1
    22    20    23    1
    23    22    21    1
    24     3     4   ar
    25     4     5   ar
    26     5     6   ar
    27     6     7   ar
    28     7     2   ar
    29     1     2   ar
    30     2     3   ar
    31     3    10   ar
    32    10     9   ar
    33     9     8   ar
    34     8     1   ar
