@<TRIPOS>MOLECULE
outputs/IAG933/test6/raw/output_3189_IAG933_linker_design_.xyz
 47 52 0 0 0
SMALL
GASTEIGER

@<TRIPOS>ATOM
      1 C         -24.8550   -1.0120   30.1430 C.3     1  UNL1        0.1111
      2 C         -24.9730   -2.5050   29.7880 C.2     1  UNL1       -0.0030
      3 C         -23.9060   -3.1730   29.1460 C.2     1  UNL1       -0.0026
      4 C         -23.9890   -4.5490   28.8530 C.2     1  UNL1       -0.0003
      5 C         -25.1370   -5.2800   29.2050 C.2     1  UNL1       -0.0000
      6 C         -26.2320   -4.6110   29.7840 C.2     1  UNL1       -0.0003
      7 C         -26.1550   -3.2320   30.0650 C.2     1  UNL1       -0.0026
      8 C         -25.3870   -0.6790   31.5710 C.3     1  UNL1        0.0950
      9 C         -25.1890    0.7730   32.0280 C.3     1  UNL1        0.0209
     10 C         -25.3360    0.6840   33.5440 C.3     1  UNL1        0.0203
     11 C         -24.8290   -0.7150   33.9050 C.3     1  UNL1        0.0888
     12 N         -24.7580   -1.4810   32.6460 N.3     1  UNL1       -0.2174
     13 C         -25.6880    1.6140   26.4610 C.2     1  UNL1        0.0210
     14 C         -26.2500    2.9200   26.3950 C.2     1  UNL1        0.0729
     15 C         -25.6420    4.0930   27.1230 C.2     1  UNL1        0.2661
     16 N         -25.6140    5.2520   26.4490 N.am    1  UNL1       -0.1997
     17 C         -25.0260    6.4790   26.9630 C.3     1  UNL1        0.1388
     18 O         -25.1430    3.9660   28.2430 O.2     1  UNL1       -0.2683
     19 C         -27.4380    3.0910   25.6450 C.2     1  UNL1        0.1064
     20 N         -28.0750    2.0890   25.0030 N.2     1  UNL1       -0.2081
     21 C         -27.5430    0.8490   25.0790 C.2     1  UNL1        0.2530
     22 O         -28.1930   -0.2080   24.4770 O.2     1  UNL1       -0.4546
     23 C         -29.4600    0.0050   23.8660 C.3     1  UNL1        0.2543
     24 C         -30.0650   -1.3770   23.5730 C.3     1  UNL1        0.2556
     25 O         -30.7290   -1.8780   24.7210 O.3     1  UNL1       -0.4444
     26 C         -26.3540    0.5760   25.7770 C.2     1  UNL1        0.1895
     27 F         -25.8600   -0.6810   25.7950 F       1  UNL1       -0.1996
     28 C         -31.7099   -0.7033   29.1378 C.3     1  UNL1        0.0594
     29 C         -29.7640    1.0399   28.6018 C.3     1  UNL1        0.0721
     30 C         -28.7574    1.0146   29.7269 C.3     1  UNL1        0.0191
     31 C         -20.8903    1.7539   27.5190 C.3     1  UNL1        0.0082
     32 C         -31.5746   -1.7933   25.8076 C.2     1  UNL1        0.3171
     33 C         -31.3676   -2.1552   29.5476 C.3     1  UNL1        0.0333
     34 C         -24.4150    1.2151   27.1179 C.3     1  UNL1        0.0639
     35 C         -23.1845    1.5701   26.5059 C.3     1  UNL1        0.0179
     36 C         -26.3291    0.2627   28.6529 C.3     1  UNL1        0.0909
     37 C         -22.9955    0.4442   28.8476 C.2     1  UNL1        0.1820
     38 O         -31.7109   -2.8510   26.3160 O.2     1  UNL1       -0.2501
     39 N         -25.0980   -0.1023   29.0313 N.pl3   1  UNL1       -0.3049
     40 C         -30.0564   -1.6427   29.7787 C.3     1  UNL1        0.0734
     41 C         -27.4485    0.6036   29.2625 C.3     1  UNL1        0.0228
     42 C         -22.1060    0.9152   27.3571 C.3     1  UNL1        0.0636
     43 N         -30.3728   -0.2889   28.6393 N.3     1  UNL1       -0.2739
     44 C         -32.7325   -0.8669   27.9667 C.3     1  UNL1        0.0276
     45 O         -22.3018   -0.1794   29.8271 O.2     1  UNL1       -0.2904
     46 C         -24.2807    0.5606   28.3148 C.2     1  UNL1        0.0640
     47 C         -32.2179   -0.5661   26.5437 C.3     1  UNL1        0.1109
@<TRIPOS>BOND
     1     1     2    1
     2     2     7    1
     3     3     2    2
     4     4     3    1
     5     4     5    2
     6     5     6    1
     7     6     7    2
     8     8     1    1
     9     8     9    1
    10     8    12    1
    11     9    10    1
    12    10    11    1
    13    12    11    1
    14    13    34    1
    15    14    13    1
    16    14    15    1
    17    15    18    2
    18    16    17    1
    19    16    15    1
    20    19    14    2
    21    20    21    2
    22    20    19    1
    23    21    26    1
    24    22    21    1
    25    23    22    1
    26    24    23    1
    27    24    25    1
    28    25    32    1
    29    26    27    1
    30    26    13    2
    31    28    44    1
    32    28    33    1
    33    29    30    1
    34    32    38    2
    35    32    47    1
    36    33    40    1
    37    34    35    1
    38    34    46    1
    39    35    42    1
    40    36    39    1
    41    36    41    1
    42    37    45    1
    43    39     1    1
    44    41    30    1
    45    42    31    1
    46    42    37    1
    47    43    29    1
    48    43    28    1
    49    43    40    1
    50    46    37    2
    51    46    39    1
    52    47    44    1
