@<TRIPOS>MOLECULE
No_3192-gen_results/8p0m/2024-11-27-11-27-31/
 35 39 0 0 0
SMALL
GASTEIGER

@<TRIPOS>ATOM
      1 C         -28.0162   -0.8135   28.8779 C.ar    1  UNL1        0.0045
      2 C         -27.0636   -0.1189   28.6079 C.ar    1  UNL1        0.0001
      3 C         -27.0010    0.6913   27.4910 C.ar    1  UNL1        0.0000
      4 C         -27.1778    1.9037   27.5632 C.ar    1  UNL1        0.0000
      5 C         -28.0594   -1.3960   30.2136 C.ar    1  UNL1        0.0536
      6 C         -26.8947   -1.6080   30.9179 C.ar    1  UNL1        0.0045
      7 C         -25.7839   -0.2253   29.3757 C.ar    1  UNL1        0.0000
      8 C         -25.7520   -0.9581   30.5315 C.ar    1  UNL1        0.0001
      9 C         -27.1106    2.7938   26.3675 C.ar    1  UNL1        0.0000
     10 C         -26.8464    2.2343   25.1274 C.ar    1  UNL1        0.0000
     11 C         -26.6616    0.1690   26.1513 C.ar    1  UNL1        0.0000
     12 C         -26.6000    0.9387   25.0298 C.ar    1  UNL1        0.0000
     13 C         -29.2919   -2.1821   30.6338 C.2     1  UNL1        0.2490
     14 O         -29.2931   -3.3184   30.9677 O.2     1  UNL1       -0.2699
     15 N         -30.4465   -1.5120   30.5456 N.am    1  UNL1       -0.2757
     16 C         -31.7067   -2.1410   30.8676 C.3     1  UNL1        0.0937
     17 C         -32.6957   -1.6369   30.2798 C.3     1  UNL1        0.0219
     18 C         -32.6595   -0.3769   29.6701 C.3     1  UNL1        0.0078
     19 C         -31.4252    0.2380   29.3293 C.3     1  UNL1        0.0422
     20 C         -30.4210   -0.3525   29.7408 C.3     1  UNL1        0.0980
     21 C         -31.4666    1.4928   28.5529 C.ar    1  UNL1       -0.0208
     22 C         -30.8590    2.6647   29.1101 C.ar    1  UNL1       -0.0039
     23 C         -31.8332    1.4985   27.1951 C.ar    1  UNL1       -0.0042
     24 C         -30.8339    3.8499   28.4152 C.ar    1  UNL1       -0.0003
     25 C         -31.7683    2.7239   26.4630 C.ar    1  UNL1       -0.0003
     26 C         -31.2560    3.8756   27.0932 C.ar    1  UNL1       -0.0000
     27 C         -30.4170    2.7158   30.5334 C.ar    1  UNL1       -0.0006
     28 C         -30.9355    3.6559   31.3388 C.ar    1  UNL1       -0.0000
     29 C         -30.2734    3.8458   32.4363 C.ar    1  UNL1       -0.0003
     30 C         -29.2915    2.0256   31.0006 C.ar    1  UNL1       -0.0043
     31 C         -28.6399    2.1886   32.2068 C.ar    1  UNL1       -0.0225
     32 C         -29.2370    3.1708   33.0158 C.ar    1  UNL1       -0.0043
     33 C         -27.5208    1.4244   32.6843 C.3     1  UNL1        0.0224
     34 C         -27.7230    0.6404   33.9225 C.3     1  UNL1        0.0047
     35 C         -26.2480    2.2942   32.8848 C.3     1  UNL1        0.0047
@<TRIPOS>BOND
     1     2     3    1
     2     5    13    1
     3    13    14    2
     4    13    15   am
     5    15    16    1
     6    17    18    1
     7    15    20    1
     8    19    20    1
     9    19    21    1
    10    22    27    1
    11    31    33    1
    12    33    34    1
    13    33    35    1
    14    16    17    1
    15    18    19    1
    16     1     2   ar
    17     2     7   ar
    18     7     8   ar
    19     8     6   ar
    20     6     5   ar
    21     5     1   ar
    22    21    22   ar
    23    22    24   ar
    24    24    26   ar
    25    26    25   ar
    26    25    23   ar
    27    23    21   ar
    28     3     4   ar
    29     4     9   ar
    30     9    10   ar
    31    10    12   ar
    32    12    11   ar
    33    11     3   ar
    34    27    28   ar
    35    28    29   ar
    36    29    32   ar
    37    32    31   ar
    38    31    30   ar
    39    30    27   ar
