@<TRIPOS>MOLECULE
No_3193-gen_results/8p0m/2024-11-27-11-27-31/
 19 21 0 0 0
SMALL
GASTEIGER

@<TRIPOS>ATOM
      1 C         -28.0162   -0.8135   28.8779 C.ar    1  UNL1        0.0015
      2 C         -28.4690   -0.7850   29.8287 C.ar    1  UNL1        0.0177
      3 C         -27.0871    0.2903   28.6377 C.ar    1  UNL1        0.0001
      4 C         -26.7676    1.0274   29.4716 C.ar    1  UNL1        0.0002
      5 C         -28.2764    0.0268   31.0145 C.ar    1  UNL1        0.0015
      6 C         -27.3287    1.0538   30.7535 C.ar    1  UNL1        0.0001
      7 C         -26.3859    0.3010   27.2661 C.ar    1  UNL1        0.0002
      8 C         -26.0047    1.5465   26.8605 C.ar    1  UNL1        0.0066
      9 C         -25.4538    2.4490   27.8241 C.ar    1  UNL1        0.0798
     10 C         -24.7564    3.6637   27.5235 C.2     1  UNL1        0.3878
     11 C         -25.9124    2.2654   29.2474 C.ar    1  UNL1        0.0066
     12 O         -24.5995    4.5637   28.2893 O.co2   1  UNL1       -0.2406
     13 O         -23.9995    3.5201   26.4232 O.co2   1  UNL1       -0.2406
     14 C         -29.4779   -2.0261   30.2776 C.ar    1  UNL1        0.0813
     15 N         -29.0900   -3.2487   30.4599 N.ar    1  UNL1       -0.2438
     16 C         -30.9034   -1.8075   30.4297 C.ar    1  UNL1        0.0191
     17 C         -29.8843   -4.3114   30.5220 C.ar    1  UNL1        0.0988
     18 C         -31.7518   -2.8283   30.5662 C.ar    1  UNL1        0.0031
     19 C         -31.2130   -4.1503   30.6726 C.ar    1  UNL1        0.0207
@<TRIPOS>BOND
     1     9    10    1
     2    10    12   ar
     3    10    13   ar
     4     2    14    1
     5    14    15   ar
     6    15    17   ar
     7    17    19   ar
     8    19    18   ar
     9    18    16   ar
    10    16    14   ar
    11     4    11   ar
    12    11     9   ar
    13     9     8   ar
    14     8     7   ar
    15     7     3   ar
    16     1     2   ar
    17     2     5   ar
    18     5     6   ar
    19     6     4   ar
    20     4     3   ar
    21     3     1   ar
