@<TRIPOS>MOLECULE
No_3195-gen_results/8p0m/2024-11-27-11-27-31/
 21 24 0 0 0
SMALL
GASTEIGER

@<TRIPOS>ATOM
      1 C         -28.0162   -0.8135   28.8779 C.ar    1  UNL1       -0.0000
      2 C         -27.0636   -0.1189   28.6079 C.ar    1  UNL1       -0.0003
      3 C         -25.7647   -0.3897   29.0360 C.ar    1  UNL1        0.0001
      4 C         -24.5516    0.4058   28.7646 C.ar    1  UNL1        0.0027
      5 C         -24.6957    1.4480   27.7988 C.ar    1  UNL1        0.0152
      6 C         -25.9755    1.7250   27.3077 C.ar    1  UNL1       -0.0203
      7 C         -27.0718    1.0134   27.6535 C.ar    1  UNL1       -0.0039
      8 C         -27.9653   -1.6216   30.1356 C.ar    1  UNL1       -0.0000
      9 C         -26.6745   -2.1506   30.4964 C.ar    1  UNL1        0.0000
     10 C         -25.5535   -1.4129   30.0823 C.ar    1  UNL1        0.0000
     11 C         -23.4134    1.8436   27.3104 C.ar    1  UNL1        0.0985
     12 N         -22.2257    1.5507   27.8559 N.ar    1  UNL1       -0.2423
     13 C         -23.2375    0.0178   29.1678 C.ar    1  UNL1        0.0207
     14 C         -22.0775    0.6798   28.7737 C.ar    1  UNL1        0.0989
     15 C         -28.3789    1.3478   27.0699 C.ar    1  UNL1       -0.0003
     16 C         -28.9219    1.0623   26.2482 C.ar    1  UNL1       -0.0000
     17 C         -30.2570    1.2875   25.8475 C.ar    1  UNL1       -0.0000
     18 C         -29.0723    2.3625   27.9794 C.ar    1  UNL1       -0.0000
     19 C         -30.3615    2.7791   27.6862 C.ar    1  UNL1       -0.0000
     20 C         -30.9292    2.2612   26.5388 C.ar    1  UNL1       -0.0000
     21 C         -26.0506    2.9069   26.3448 C.3     1  UNL1        0.0311
@<TRIPOS>BOND
     1     7    15    1
     2     6    21    1
     3    15    16   ar
     4    16    17   ar
     5    17    20   ar
     6    20    19   ar
     7    19    18   ar
     8    18    15   ar
     9     3     4   ar
    10     5     6   ar
    11     6     7   ar
    12     7     2   ar
    13     1     2   ar
    14     2     3   ar
    15     3    10   ar
    16    10     9   ar
    17     9     8   ar
    18     8     1   ar
    19     4     5   ar
    20     5    11   ar
    21    11    12   ar
    22    12    14   ar
    23    14    13   ar
    24    13     4   ar
