@<TRIPOS>MOLECULE
outputs/IAG933/test6/raw/output_3197_IAG933_linker_design_.xyz
 42 46 0 0 0
SMALL
GASTEIGER

@<TRIPOS>ATOM
      1 C         -24.8550   -1.0120   30.1430 C.3     1  UNL1        0.0963
      2 C         -24.9730   -2.5050   29.7880 C.2     1  UNL1       -0.0064
      3 C         -23.9060   -3.1730   29.1460 C.2     1  UNL1       -0.0029
      4 C         -23.9890   -4.5490   28.8530 C.2     1  UNL1       -0.0003
      5 C         -25.1370   -5.2800   29.2050 C.2     1  UNL1       -0.0000
      6 C         -26.2320   -4.6110   29.7840 C.2     1  UNL1       -0.0003
      7 C         -26.1550   -3.2320   30.0650 C.2     1  UNL1       -0.0029
      8 C         -25.3870   -0.6790   31.5710 C.3     1  UNL1        0.0916
      9 C         -25.1890    0.7730   32.0280 C.3     1  UNL1        0.0206
     10 C         -25.3360    0.6840   33.5440 C.3     1  UNL1        0.0203
     11 C         -24.8290   -0.7150   33.9050 C.3     1  UNL1        0.0888
     12 N         -24.7580   -1.4810   32.6460 N.3     1  UNL1       -0.2178
     13 C         -25.6880    1.6140   26.4610 C.3     1  UNL1        0.0740
     14 C         -26.2500    2.9200   26.3950 C.2     1  UNL1        0.0549
     15 C         -25.6420    4.0930   27.1230 C.2     1  UNL1        0.2624
     16 N         -25.6140    5.2520   26.4490 N.am    1  UNL1       -0.2000
     17 C         -25.0260    6.4790   26.9630 C.3     1  UNL1        0.1388
     18 O         -25.1430    3.9660   28.2430 O.2     1  UNL1       -0.2687
     19 C         -27.4380    3.0910   25.6450 C.2     1  UNL1        0.1021
     20 N         -28.0750    2.0890   25.0030 N.2     1  UNL1       -0.2119
     21 C         -27.5430    0.8490   25.0790 C.2     1  UNL1        0.2341
     22 O         -28.1930   -0.2080   24.4770 O.2     1  UNL1       -0.4585
     23 C         -29.4600    0.0050   23.8660 C.3     1  UNL1        0.2423
     24 C         -30.0650   -1.3770   23.5730 C.3     1  UNL1        0.2292
     25 O         -30.7290   -1.8780   24.7210 O.3     1  UNL1       -0.2162
     26 C         -26.3540    0.5760   25.7770 C.3     1  UNL1        0.2401
     27 F         -25.8600   -0.6810   25.7950 F       1  UNL1       -0.2269
     28 C         -24.8708    1.1383   27.5295 C.3     1  UNL1        0.0551
     29 O         -28.8945   -1.5485   29.4196 O.3     1  UNL1       -0.1899
     30 C         -24.7716    0.2496   28.2593 C.3     1  UNL1        0.0899
     31 C         -30.7484    0.5919   28.6230 C.3     1  UNL1        0.1451
     32 C         -29.4461    1.1527   28.0049 C.3     1  UNL1        0.0387
     33 CL        -22.9481    2.3528   25.6889 Cl      1  UNL1       -0.1124
     34 C         -23.7988    0.5731   28.1085 C.3     1  UNL1        0.1553
     35 C         -21.3392    1.7182   27.6240 C.3     1  UNL1        0.0202
     36 O         -22.9240    0.0918   28.9557 O.3     1  UNL1       -0.2230
     37 C         -22.7980    1.3121   27.2647 C.3     1  UNL1        0.1091
     38 O         -30.4557    0.1541   29.9618 O.3     1  UNL1       -0.3285
     39 C         -27.0873   -0.0713   28.5321 C.3     1  UNL1        0.0776
     40 N         -25.6455   -0.1054   29.3102 N.3     1  UNL1       -0.2680
     41 C         -29.0385   -0.1992   29.9872 C.3     1  UNL1        0.2702
     42 C         -28.3258    0.7384   29.0884 C.3     1  UNL1        0.0778
@<TRIPOS>BOND
     1     1    40    1
     2     2     7    1
     3     2     1    1
     4     3     2    2
     5     4     3    1
     6     4     5    2
     7     5     6    1
     8     6     7    2
     9     8     1    1
    10     8     9    1
    11     8    12    1
    12     9    10    1
    13    10    11    1
    14    12    11    1
    15    13    14    1
    16    14    15    1
    17    15    18    2
    18    16    17    1
    19    16    15    1
    20    19    14    2
    21    20    21    2
    22    20    19    1
    23    21    26    1
    24    22    21    1
    25    23    22    1
    26    24    23    1
    27    24    25    1
    28    26    27    1
    29    26    13    1
    30    28    13    1
    31    28    34    1
    32    28    30    1
    33    30    40    1
    34    31    38    1
    35    32    31    1
    36    32    42    1
    37    33    37    1
    38    34    30    1
    39    34    36    1
    40    37    35    1
    41    37    34    1
    42    38    41    1
    43    39    40    1
    44    41    29    1
    45    42    39    1
    46    42    41    1
