@<TRIPOS>MOLECULE
outputs/IAG933/test6/raw/output_3198_IAG933_linker_design_.xyz
 45 49 0 0 0
SMALL
GASTEIGER

@<TRIPOS>ATOM
      1 C         -24.8550   -1.0120   30.1430 C.3     1  UNL1        0.0625
      2 C         -24.9730   -2.5050   29.7880 C.2     1  UNL1       -0.0191
      3 C         -23.9060   -3.1730   29.1460 C.2     1  UNL1       -0.0042
      4 C         -23.9890   -4.5490   28.8530 C.2     1  UNL1       -0.0003
      5 C         -25.1370   -5.2800   29.2050 C.2     1  UNL1       -0.0000
      6 C         -26.2320   -4.6110   29.7840 C.2     1  UNL1       -0.0003
      7 C         -26.1550   -3.2320   30.0650 C.2     1  UNL1       -0.0042
      8 C         -25.3870   -0.6790   31.5710 C.3     1  UNL1        0.0788
      9 C         -25.1890    0.7730   32.0280 C.3     1  UNL1        0.0193
     10 C         -25.3360    0.6840   33.5440 C.3     1  UNL1        0.0202
     11 C         -24.8290   -0.7150   33.9050 C.3     1  UNL1        0.0887
     12 N         -24.7580   -1.4810   32.6460 N.3     1  UNL1       -0.2191
     13 C         -25.6880    1.6140   26.4610 C.2     1  UNL1        0.0387
     14 C         -26.2500    2.9200   26.3950 C.2     1  UNL1        0.0766
     15 C         -25.6420    4.0930   27.1230 C.2     1  UNL1        0.2664
     16 N         -25.6140    5.2520   26.4490 N.am    1  UNL1       -0.1997
     17 C         -25.0260    6.4790   26.9630 C.3     1  UNL1        0.1388
     18 O         -25.1430    3.9660   28.2430 O.2     1  UNL1       -0.2683
     19 C         -27.4380    3.0910   25.6450 C.2     1  UNL1        0.1067
     20 N         -28.0750    2.0890   25.0030 N.2     1  UNL1       -0.2081
     21 C         -27.5430    0.8490   25.0790 C.2     1  UNL1        0.2533
     22 O         -28.1930   -0.2080   24.4770 O.2     1  UNL1       -0.4558
     23 C         -29.4600    0.0050   23.8660 C.3     1  UNL1        0.2426
     24 C         -30.0650   -1.3770   23.5730 C.3     1  UNL1        0.2292
     25 O         -30.7290   -1.8780   24.7210 O.3     1  UNL1       -0.2162
     26 C         -26.3540    0.5760   25.7770 C.2     1  UNL1        0.1931
     27 F         -25.8600   -0.6810   25.7950 F       1  UNL1       -0.1992
     28 C         -22.0188    1.6327   27.3037 C.2     1  UNL1        0.1506
     29 C         -27.9005    0.6557   28.8144 C.2     1  UNL1        0.2650
     30 C         -24.4132    1.3124   27.1389 C.2     1  UNL1        0.0129
     31 C         -25.5037   -0.0886   29.1045 C.3     1  UNL1        0.1231
     32 C         -23.1986    0.5743   29.0964 C.2     1  UNL1       -0.0002
     33 C         -28.9671    4.8731   28.9526 C.2     1  UNL1        0.0000
     34 N         -26.6594    0.1877   28.9022 N.am    1  UNL1       -0.1985
     35 O         -28.6959   -0.2220   28.5615 O.2     1  UNL1       -0.2684
     36 C         -29.3497    2.5942   28.1369 C.2     1  UNL1        0.0046
     37 C         -28.3296    2.1020   28.9883 C.2     1  UNL1        0.0550
     38 C         -24.3926    0.6190   28.3776 C.2     1  UNL1       -0.0012
     39 C         -29.6462    3.9681   28.1022 C.2     1  UNL1        0.0001
     40 C         -28.0320    4.3819   29.8810 C.2     1  UNL1        0.0001
     41 F         -20.8848    1.9939   26.7288 F       1  UNL1       -0.2033
     42 C         -22.0183    1.0748   28.5762 C.2     1  UNL1        0.0302
     43 CL        -23.1602    2.5542   24.9985 Cl      1  UNL1       -0.0799
     44 C         -23.2085    1.7684   26.5794 C.2     1  UNL1        0.0848
     45 C         -27.7437    3.0003   29.9092 C.2     1  UNL1        0.0046
@<TRIPOS>BOND
     1     1    31    1
     2     2     7    1
     3     2     1    1
     4     3     2    2
     5     4     3    1
     6     4     5    2
     7     5     6    1
     8     6     7    2
     9     8     1    1
    10     8     9    1
    11     8    12    1
    12     9    10    1
    13    10    11    1
    14    12    11    1
    15    13    30    1
    16    14    13    1
    17    14    15    1
    18    15    18    2
    19    16    17    1
    20    16    15    1
    21    19    14    2
    22    20    21    2
    23    20    19    1
    24    21    26    1
    25    22    21    1
    26    23    22    1
    27    24    23    1
    28    24    25    1
    29    26    27    1
    30    26    13    2
    31    28    42    1
    32    29    34    1
    33    29    37    1
    34    30    38    2
    35    31    34    1
    36    33    40    1
    37    35    29    2
    38    36    37    2
    39    37    45    1
    40    38    32    1
    41    38    31    1
    42    39    36    1
    43    39    33    2
    44    40    45    2
    45    41    28    1
    46    42    32    2
    47    43    44    1
    48    44    30    1
    49    44    28    2
