@<TRIPOS>MOLECULE
outputs/IAG933/test6/raw/output_3200_IAG933_linker_design_.xyz
 45 49 0 0 0
SMALL
GASTEIGER

@<TRIPOS>ATOM
      1 C         -24.8550   -1.0120   30.1430 C.3     1  UNL1        0.0582
      2 C         -24.9730   -2.5050   29.7880 C.2     1  UNL1       -0.0195
      3 C         -23.9060   -3.1730   29.1460 C.2     1  UNL1       -0.0042
      4 C         -23.9890   -4.5490   28.8530 C.2     1  UNL1       -0.0003
      5 C         -25.1370   -5.2800   29.2050 C.2     1  UNL1       -0.0000
      6 C         -26.2320   -4.6110   29.7840 C.2     1  UNL1       -0.0003
      7 C         -26.1550   -3.2320   30.0650 C.2     1  UNL1       -0.0042
      8 C         -25.3870   -0.6790   31.5710 C.3     1  UNL1        0.0785
      9 C         -25.1890    0.7730   32.0280 C.3     1  UNL1        0.0192
     10 C         -25.3360    0.6840   33.5440 C.3     1  UNL1        0.0202
     11 C         -24.8290   -0.7150   33.9050 C.3     1  UNL1        0.0887
     12 N         -24.7580   -1.4810   32.6460 N.3     1  UNL1       -0.2191
     13 C         -25.6880    1.6140   26.4610 C.3     1  UNL1        0.0924
     14 C         -26.2500    2.9200   26.3950 C.2     1  UNL1        0.0568
     15 C         -25.6420    4.0930   27.1230 C.2     1  UNL1        0.2625
     16 N         -25.6140    5.2520   26.4490 N.am    1  UNL1       -0.2000
     17 C         -25.0260    6.4790   26.9630 C.3     1  UNL1        0.1388
     18 O         -25.1430    3.9660   28.2430 O.2     1  UNL1       -0.2687
     19 C         -27.4380    3.0910   25.6450 C.2     1  UNL1        0.1022
     20 N         -28.0750    2.0890   25.0030 N.2     1  UNL1       -0.2119
     21 C         -27.5430    0.8490   25.0790 C.2     1  UNL1        0.2341
     22 O         -28.1930   -0.2080   24.4770 O.2     1  UNL1       -0.4585
     23 C         -29.4600    0.0050   23.8660 C.3     1  UNL1        0.2423
     24 C         -30.0650   -1.3770   23.5730 C.3     1  UNL1        0.2292
     25 O         -30.7290   -1.8780   24.7210 O.3     1  UNL1       -0.2162
     26 C         -26.3540    0.5760   25.7770 C.3     1  UNL1        0.2419
     27 F         -25.8600   -0.6810   25.7950 F       1  UNL1       -0.2268
     28 N         -27.5301    2.8792   29.7124 N.am    1  UNL1       -0.2612
     29 C         -27.0125    3.7493   30.8480 C.3     1  UNL1        0.1123
     30 C         -24.9424    1.3235   27.7473 C.3     1  UNL1        0.1079
     31 C         -27.2281    1.5923   29.4605 C.2     1  UNL1        0.3074
     32 C         -22.7506    2.1558   25.3512 C.3     1  UNL1        0.0755
     33 C         -25.8863   -0.4530   29.0822 C.3     1  UNL1        0.1009
     34 C         -23.5365    1.4443   27.8261 C.2     1  UNL1        0.0414
     35 C         -28.6468    4.9032   28.9360 C.3     1  UNL1        0.0940
     36 C         -22.8419    1.2157   28.9549 C.3     1  UNL1        0.2221
     37 C         -28.1289    6.8676   30.3012 C.3     1  UNL1        0.0897
     38 O         -21.4325    1.4175   27.2574 O.2     1  UNL1       -0.3381
     39 C         -28.1676    4.6099   31.3776 C.3     1  UNL1        0.0940
     40 O         -21.6188    0.9567   28.6279 O.3     1  UNL1       -0.1683
     41 N         -25.8861    1.1406   29.0249 N.am    1  UNL1       -0.2612
     42 C         -28.8062    3.3954   29.1383 C.3     1  UNL1        0.1123
     43 N         -28.6960    5.4902   30.3099 N.3     1  UNL1       -0.2686
     44 O         -28.0928    0.7199   29.6663 O.2     1  UNL1       -0.2523
     45 C         -22.5907    1.6969   26.7713 C.2     1  UNL1        0.1567
@<TRIPOS>BOND
     1     1    33    1
     2     2     7    1
     3     2     1    1
     4     3     2    2
     5     4     3    1
     6     4     5    2
     7     5     6    1
     8     6     7    2
     9     8     1    1
    10     8     9    1
    11     8    12    1
    12     9    10    1
    13    10    11    1
    14    12    11    1
    15    13    30    1
    16    14    13    1
    17    14    15    1
    18    15    18    2
    19    16    17    1
    20    16    15    1
    21    19    14    2
    22    20    21    2
    23    20    19    1
    24    21    26    1
    25    22    21    1
    26    23    22    1
    27    24    23    1
    28    24    25    1
    29    26    27    1
    30    26    13    1
    31    28    29    1
    32    29    39    1
    33    30    34    1
    34    30    41    1
    35    31    44    2
    36    31    28   am
    37    32    45    1
    38    34    36    1
    39    35    42    1
    40    35    43    1
    41    37    43    1
    42    38    40    1
    43    40    36    1
    44    41    33    1
    45    41    31   am
    46    42    28    1
    47    43    39    1
    48    45    38    1
    49    45    34    2
