@<TRIPOS>MOLECULE
outputs/IAG933/test6/raw/output_3201_IAG933_linker_design_.xyz
 42 45 0 0 0
SMALL
GASTEIGER

@<TRIPOS>ATOM
      1 C         -24.8550   -1.0120   30.1430 C.3     1  UNL1        0.0585
      2 C         -24.9730   -2.5050   29.7880 C.2     1  UNL1       -0.0195
      3 C         -23.9060   -3.1730   29.1460 C.2     1  UNL1       -0.0042
      4 C         -23.9890   -4.5490   28.8530 C.2     1  UNL1       -0.0003
      5 C         -25.1370   -5.2800   29.2050 C.2     1  UNL1       -0.0000
      6 C         -26.2320   -4.6110   29.7840 C.2     1  UNL1       -0.0003
      7 C         -26.1550   -3.2320   30.0650 C.2     1  UNL1       -0.0042
      8 C         -25.3870   -0.6790   31.5710 C.3     1  UNL1        0.0785
      9 C         -25.1890    0.7730   32.0280 C.3     1  UNL1        0.0192
     10 C         -25.3360    0.6840   33.5440 C.3     1  UNL1        0.0202
     11 C         -24.8290   -0.7150   33.9050 C.3     1  UNL1        0.0887
     12 N         -24.7580   -1.4810   32.6460 N.3     1  UNL1       -0.2191
     13 C         -25.6880    1.6140   26.4610 C.2     1  UNL1        0.0406
     14 C         -26.2500    2.9200   26.3950 C.2     1  UNL1        0.0747
     15 C         -25.6420    4.0930   27.1230 C.2     1  UNL1        0.2662
     16 N         -25.6140    5.2520   26.4490 N.am    1  UNL1       -0.1997
     17 C         -25.0260    6.4790   26.9630 C.3     1  UNL1        0.1388
     18 O         -25.1430    3.9660   28.2430 O.2     1  UNL1       -0.2683
     19 C         -27.4380    3.0910   25.6450 C.2     1  UNL1        0.1065
     20 N         -28.0750    2.0890   25.0030 N.2     1  UNL1       -0.2081
     21 C         -27.5430    0.8490   25.0790 C.2     1  UNL1        0.2530
     22 O         -28.1930   -0.2080   24.4770 O.2     1  UNL1       -0.4558
     23 C         -29.4600    0.0050   23.8660 C.3     1  UNL1        0.2426
     24 C         -30.0650   -1.3770   23.5730 C.3     1  UNL1        0.2292
     25 O         -30.7290   -1.8780   24.7210 O.3     1  UNL1       -0.2162
     26 C         -26.3540    0.5760   25.7770 C.2     1  UNL1        0.1912
     27 F         -25.8600   -0.6810   25.7950 F       1  UNL1       -0.1995
     28 S         -23.0415    1.8640   26.4395 S.3     1  UNL1       -0.1203
     29 C         -24.4785    1.3445   27.0453 C.3     1  UNL1        0.1318
     30 C         -27.1807   -0.2547   29.3226 C.2     1  UNL1        0.0784
     31 N         -31.7991   -0.6122   30.8616 N.3     1  UNL1       -0.1324
     32 C         -21.6993    1.3227   27.4594 C.3     1  UNL1        0.0606
     33 N         -24.5922    0.6174   28.2511 N.3     1  UNL1       -0.2579
     34 O         -30.0913   -0.7135   27.6162 O.2     1  UNL1       -0.2729
     35 C         -23.7337    0.7600   29.0484 C.3     1  UNL1        0.0743
     36 C         -25.6381   -0.0831   29.0642 C.3     1  UNL1        0.1029
     37 C         -31.1273   -2.9556   30.5214 C.3     1  UNL1        0.0210
     38 C         -29.8079   -0.9691   29.9150 C.3     1  UNL1        0.1061
     39 N         -28.0541   -0.2835   28.3483 N.am    1  UNL1       -0.1812
     40 C         -31.2079   -1.5810   29.9066 C.3     1  UNL1        0.1010
     41 C         -29.3212   -0.6771   28.5630 C.2     1  UNL1        0.2468
     42 C         -22.1789    0.6459   28.7948 C.3     1  UNL1        0.0291
@<TRIPOS>BOND
     1     1    36    1
     2     2     7    1
     3     2     1    1
     4     3     2    2
     5     4     3    1
     6     4     5    2
     7     5     6    1
     8     6     7    2
     9     8     1    1
    10     8     9    1
    11     8    12    1
    12     9    10    1
    13    10    11    1
    14    12    11    1
    15    14    13    1
    16    14    15    1
    17    15    18    2
    18    16    17    1
    19    16    15    1
    20    19    14    2
    21    20    21    2
    22    20    19    1
    23    21    26    1
    24    22    21    1
    25    23    22    1
    26    24    23    1
    27    24    25    1
    28    26    27    1
    29    26    13    2
    30    28    29    1
    31    28    32    1
    32    29    13    1
    33    29    33    1
    34    32    42    1
    35    33    35    1
    36    33    36    1
    37    34    41    2
    38    36    30    1
    39    39    41    1
    40    39    30    2
    41    40    38    1
    42    40    37    1
    43    40    31    1
    44    41    38    1
    45    42    35    1
