@<TRIPOS>MOLECULE
outputs/IAG933/test6/raw/output_3202_IAG933_linker_design_.xyz
 45 49 0 0 0
SMALL
GASTEIGER

@<TRIPOS>ATOM
      1 C         -24.8550   -1.0120   30.1430 C.3     1  UNL1        0.2034
      2 C         -24.9730   -2.5050   29.7880 C.2     1  UNL1        0.0217
      3 C         -23.9060   -3.1730   29.1460 C.2     1  UNL1       -0.0004
      4 C         -23.9890   -4.5490   28.8530 C.2     1  UNL1       -0.0002
      5 C         -25.1370   -5.2800   29.2050 C.2     1  UNL1       -0.0000
      6 C         -26.2320   -4.6110   29.7840 C.2     1  UNL1       -0.0002
      7 C         -26.1550   -3.2320   30.0650 C.2     1  UNL1       -0.0004
      8 C         -25.3870   -0.6790   31.5710 C.3     1  UNL1        0.1201
      9 C         -25.1890    0.7730   32.0280 C.3     1  UNL1        0.0233
     10 C         -25.3360    0.6840   33.5440 C.3     1  UNL1        0.0204
     11 C         -24.8290   -0.7150   33.9050 C.3     1  UNL1        0.0889
     12 N         -24.7580   -1.4810   32.6460 N.3     1  UNL1       -0.2150
     13 C         -25.6880    1.6140   26.4610 C.2     1  UNL1        0.0475
     14 C         -26.2500    2.9200   26.3950 C.2     1  UNL1        0.0769
     15 C         -25.6420    4.0930   27.1230 C.2     1  UNL1        0.2664
     16 N         -25.6140    5.2520   26.4490 N.am    1  UNL1       -0.1997
     17 C         -25.0260    6.4790   26.9630 C.3     1  UNL1        0.1388
     18 O         -25.1430    3.9660   28.2430 O.2     1  UNL1       -0.2683
     19 C         -27.4380    3.0910   25.6450 C.2     1  UNL1        0.1067
     20 N         -28.0750    2.0890   25.0030 N.2     1  UNL1       -0.2081
     21 C         -27.5430    0.8490   25.0790 C.2     1  UNL1        0.2533
     22 O         -28.1930   -0.2080   24.4770 O.2     1  UNL1       -0.4558
     23 C         -29.4600    0.0050   23.8660 C.3     1  UNL1        0.2426
     24 C         -30.0650   -1.3770   23.5730 C.3     1  UNL1        0.2292
     25 O         -30.7290   -1.8780   24.7210 O.3     1  UNL1       -0.2162
     26 C         -26.3540    0.5760   25.7770 C.2     1  UNL1        0.1934
     27 F         -25.8600   -0.6810   25.7950 F       1  UNL1       -0.1992
     28 C         -24.4715    0.5208   28.2632 C.2     1  UNL1        0.3347
     29 C         -26.8976   -0.5829   28.6588 C.2     1  UNL1        0.2167
     30 C         -29.5137    2.0370   29.6177 C.2     1  UNL1        0.2019
     31 C         -22.0306    1.8455   26.4240 C.2     1  UNL1        0.2135
     32 N         -23.1245    0.3016   28.8344 N.2     1  UNL1        0.0062
     33 O         -21.3087    1.3930   27.5450 O.2     1  UNL1       -0.4075
     34 O         -27.2509    1.7727   29.2961 O.2     1  UNL1       -0.4605
     35 C         -21.9529    0.7660   28.6102 C.2     1  UNL1        0.4262
     36 C         -29.3494    0.8844   28.9962 C.2     1  UNL1        0.2659
     37 C         -27.8541    0.6091   28.9371 C.2     1  UNL1        0.2211
     38 C         -31.4242    2.7941   28.4640 C.3     1  UNL1        0.2523
     39 C         -28.1908    2.4694   30.0612 C.3     1  UNL1        0.2721
     40 F         -23.7555    2.3771   25.0894 F       1  UNL1       -0.2006
     41 C         -24.5023    1.2326   27.1052 C.2     1  UNL1        0.1158
     42 N         -25.3660   -0.3247   28.9890 N.pl3   1  UNL1       -0.1630
     43 O         -30.4833    0.0805   28.6239 O.2     1  UNL1       -0.2802
     44 O         -30.7445    2.6420   29.8218 O.2     1  UNL1       -0.4686
     45 C         -23.3888    1.7647   26.2303 C.2     1  UNL1        0.1848
@<TRIPOS>BOND
     1     1    42    1
     2     2     7    1
     3     2     1    1
     4     3     2    2
     5     4     3    1
     6     4     5    2
     7     5     6    1
     8     6     7    2
     9     8     1    1
    10     8     9    1
    11     8    12    1
    12     9    10    1
    13    10    11    1
    14    12    11    1
    15    13    41    1
    16    14    13    1
    17    14    15    1
    18    15    18    2
    19    16    17    1
    20    16    15    1
    21    19    14    2
    22    20    21    2
    23    20    19    1
    24    21    26    1
    25    22    21    1
    26    23    22    1
    27    24    23    1
    28    24    25    1
    29    26    27    1
    30    26    13    2
    31    28    32    1
    32    28    42    1
    33    29    37    2
    34    29    42    1
    35    30    44    1
    36    30    39    1
    37    31    33    1
    38    33    35    1
    39    34    39    1
    40    35    32    2
    41    36    30    2
    42    37    36    1
    43    37    34    1
    44    38    44    1
    45    40    45    1
    46    41    28    2
    47    43    36    1
    48    45    31    2
    49    45    41    1
