@<TRIPOS>MOLECULE
No_3204-gen_results/8p0m/2024-11-27-11-27-31/
 8 8 0 0 0
SMALL
GASTEIGER

@<TRIPOS>ATOM
      1 C         -28.0162   -0.8135   28.8779 C.ar    1  UNL1        0.0106
      2 C         -28.4690   -0.7850   29.8287 C.3     1  UNL1        0.2086
      3 C         -28.1960    0.3478   28.0550 C.ar    1  UNL1       -0.0017
      4 C         -27.4421    0.5100   26.7946 C.ar    1  UNL1       -0.0002
      5 C         -26.1689   -0.0794   26.6787 C.ar    1  UNL1       -0.0000
      6 C         -25.7312   -0.9607   27.6875 C.ar    1  UNL1       -0.0002
      7 C         -26.5043   -1.2222   28.7582 C.ar    1  UNL1       -0.0017
      8 O         -28.4837   -1.8963   30.6753 O.3     1  UNL1       -0.2152
@<TRIPOS>BOND
     1     2     8    1
     2     2     1    1
     3     1     3   ar
     4     3     4   ar
     5     4     5   ar
     6     5     6   ar
     7     6     7   ar
     8     7     1   ar
