@<TRIPOS>MOLECULE
outputs/IAG933/test6/raw/output_3206_IAG933_linker_design_.xyz
 41 45 0 0 0
SMALL
GASTEIGER

@<TRIPOS>ATOM
      1 C         -24.8550   -1.0120   30.1430 C.3     1  UNL1        0.0585
      2 C         -24.9730   -2.5050   29.7880 C.2     1  UNL1       -0.0195
      3 C         -23.9060   -3.1730   29.1460 C.2     1  UNL1       -0.0042
      4 C         -23.9890   -4.5490   28.8530 C.2     1  UNL1       -0.0003
      5 C         -25.1370   -5.2800   29.2050 C.2     1  UNL1       -0.0000
      6 C         -26.2320   -4.6110   29.7840 C.2     1  UNL1       -0.0003
      7 C         -26.1550   -3.2320   30.0650 C.2     1  UNL1       -0.0042
      8 C         -25.3870   -0.6790   31.5710 C.3     1  UNL1        0.0785
      9 C         -25.1890    0.7730   32.0280 C.3     1  UNL1        0.0192
     10 C         -25.3360    0.6840   33.5440 C.3     1  UNL1        0.0202
     11 C         -24.8290   -0.7150   33.9050 C.3     1  UNL1        0.0887
     12 N         -24.7580   -1.4810   32.6460 N.3     1  UNL1       -0.2191
     13 C         -25.6880    1.6140   26.4610 C.2     1  UNL1        0.0517
     14 C         -26.2500    2.9200   26.3950 C.2     1  UNL1        0.0777
     15 C         -25.6420    4.0930   27.1230 C.2     1  UNL1        0.2665
     16 N         -25.6140    5.2520   26.4490 N.am    1  UNL1       -0.1997
     17 C         -25.0260    6.4790   26.9630 C.3     1  UNL1        0.1388
     18 O         -25.1430    3.9660   28.2430 O.2     1  UNL1       -0.2683
     19 C         -27.4380    3.0910   25.6450 C.2     1  UNL1        0.1068
     20 N         -28.0750    2.0890   25.0030 N.2     1  UNL1       -0.2081
     21 C         -27.5430    0.8490   25.0790 C.2     1  UNL1        0.2533
     22 O         -28.1930   -0.2080   24.4770 O.2     1  UNL1       -0.4558
     23 C         -29.4600    0.0050   23.8660 C.3     1  UNL1        0.2426
     24 C         -30.0650   -1.3770   23.5730 C.3     1  UNL1        0.2292
     25 O         -30.7290   -1.8780   24.7210 O.3     1  UNL1       -0.2162
     26 C         -26.3540    0.5760   25.7770 C.2     1  UNL1        0.1942
     27 F         -25.8600   -0.6810   25.7950 F       1  UNL1       -0.1992
     28 C         -24.6371    1.2736   27.2510 C.2     1  UNL1        0.0541
     29 C         -29.3883   -2.7895   31.8101 C.2     1  UNL1       -0.0000
     30 C         -23.1657    0.4422   28.9436 C.2     1  UNL1        0.0654
     31 N         -27.4486    1.4659   29.3447 N.3     1  UNL1       -0.1263
     32 C         -29.2170   -3.0822   30.4434 C.2     1  UNL1       -0.0003
     33 C         -28.5628   -2.1580   29.5843 C.2     1  UNL1       -0.0028
     34 C         -22.2407    0.9979   27.8174 C.2     1  UNL1        0.0174
     35 C         -25.5509   -0.3099   28.9509 C.3     1  UNL1        0.1042
     36 C         -29.0606   -1.4997   32.2806 C.2     1  UNL1       -0.0003
     37 C         -28.4863   -0.5456   31.4031 C.2     1  UNL1       -0.0028
     38 C         -23.0988    1.5559   26.7208 C.2     1  UNL1        0.0162
     39 N         -24.5837    0.7640   28.5794 N.pl3   1  UNL1       -0.2854
     40 C         -28.0894   -0.8814   30.0757 C.2     1  UNL1       -0.0033
     41 C         -27.0722    0.0431   29.2343 C.3     1  UNL1        0.1327
@<TRIPOS>BOND
     1     1    35    1
     2     2     7    1
     3     2     1    1
     4     3     2    2
     5     4     3    1
     6     4     5    2
     7     5     6    1
     8     6     7    2
     9     8     1    1
    10     8     9    1
    11     8    12    1
    12     9    10    1
    13    10    11    1
    14    12    11    1
    15    13    28    1
    16    14    13    1
    17    14    15    1
    18    15    18    2
    19    16    17    1
    20    16    15    1
    21    19    14    2
    22    20    21    2
    23    20    19    1
    24    21    26    1
    25    22    21    1
    26    23    22    1
    27    24    23    1
    28    24    25    1
    29    26    27    1
    30    26    13    2
    31    28    39    1
    32    29    36    1
    33    32    29    2
    34    33    40    2
    35    33    32    1
    36    34    30    2
    37    35    41    1
    38    37    36    2
    39    38    28    2
    40    38    34    1
    41    39    30    1
    42    39    35    1
    43    40    37    1
    44    41    31    1
    45    41    40    1
