@<TRIPOS>MOLECULE
No_3207-gen_results/8p0m/2024-11-27-11-27-31/
 19 20 0 0 0
SMALL
GASTEIGER

@<TRIPOS>ATOM
      1 C         -28.0162   -0.8135   28.8779 C.ar    1  UNL1       -0.0041
      2 C         -28.4690   -0.7850   29.8287 C.ar    1  UNL1       -0.0003
      3 C         -28.1960    0.3478   28.0550 C.ar    1  UNL1       -0.0170
      4 C         -29.0191    1.3501   28.3782 C.ar    1  UNL1       -0.0041
      5 C         -29.4107    0.1803   30.3782 C.ar    1  UNL1       -0.0000
      6 C         -29.6059    1.2495   29.6193 C.ar    1  UNL1       -0.0003
      7 C         -27.4597    0.3802   26.7091 C.3     1  UNL1        0.0894
      8 C         -26.0094    0.3317   26.7236 C.3     1  UNL1        0.0139
      9 C         -25.3055    0.0239   27.8527 C.3     1  UNL1        0.0268
     10 C         -23.9153    0.1563   27.8949 C.ar    1  UNL1       -0.0222
     11 C         -23.1483   -0.2523   29.0524 C.ar    1  UNL1       -0.0043
     12 C         -21.7767    0.0855   29.0711 C.ar    1  UNL1       -0.0003
     13 C         -21.2092    0.9417   28.1344 C.ar    1  UNL1       -0.0000
     14 C         -22.0487    1.5860   27.1995 C.ar    1  UNL1       -0.0003
     15 C         -23.3462    1.2635   27.1439 C.ar    1  UNL1       -0.0043
     16 C         -28.2183    0.3645   25.5714 C.3     1  UNL1        0.3224
     17 C         -25.4247    0.6496   25.4571 C.3     1  UNL1        0.0009
     18 F         -27.7438    0.7480   24.6539 F       1  UNL1       -0.1981
     19 F         -29.3879    0.9993   25.8906 F       1  UNL1       -0.1981
@<TRIPOS>BOND
     1     3     7    1
     2     7     8    1
     3     8     9    1
     4     7    16    1
     5     8    17    1
     6    16    18    1
     7    16    19    1
     8     9    10    1
     9     1     2   ar
    10     2     5   ar
    11     5     6   ar
    12     6     4   ar
    13     4     3   ar
    14     3     1   ar
    15    10    11   ar
    16    11    12   ar
    17    12    13   ar
    18    13    14   ar
    19    14    15   ar
    20    15    10   ar
