@<TRIPOS>MOLECULE
outputs/IAG933/test6/raw/output_3208_IAG933_linker_design_.xyz
 44 48 0 0 0
SMALL
GASTEIGER

@<TRIPOS>ATOM
      1 C         -24.8550   -1.0120   30.1430 C.3     1  UNL1        0.0967
      2 C         -24.9730   -2.5050   29.7880 C.2     1  UNL1       -0.0064
      3 C         -23.9060   -3.1730   29.1460 C.2     1  UNL1       -0.0029
      4 C         -23.9890   -4.5490   28.8530 C.2     1  UNL1       -0.0003
      5 C         -25.1370   -5.2800   29.2050 C.2     1  UNL1       -0.0000
      6 C         -26.2320   -4.6110   29.7840 C.2     1  UNL1       -0.0003
      7 C         -26.1550   -3.2320   30.0650 C.2     1  UNL1       -0.0029
      8 C         -25.3870   -0.6790   31.5710 C.3     1  UNL1        0.0916
      9 C         -25.1890    0.7730   32.0280 C.3     1  UNL1        0.0206
     10 C         -25.3360    0.6840   33.5440 C.3     1  UNL1        0.0203
     11 C         -24.8290   -0.7150   33.9050 C.3     1  UNL1        0.0888
     12 N         -24.7580   -1.4810   32.6460 N.3     1  UNL1       -0.2178
     13 C         -25.6880    1.6140   26.4610 C.2     1  UNL1        0.0354
     14 C         -26.2500    2.9200   26.3950 C.2     1  UNL1        0.0763
     15 C         -25.6420    4.0930   27.1230 C.2     1  UNL1        0.2664
     16 N         -25.6140    5.2520   26.4490 N.am    1  UNL1       -0.1997
     17 C         -25.0260    6.4790   26.9630 C.3     1  UNL1        0.1388
     18 O         -25.1430    3.9660   28.2430 O.2     1  UNL1       -0.2683
     19 C         -27.4380    3.0910   25.6450 C.2     1  UNL1        0.1067
     20 N         -28.0750    2.0890   25.0030 N.2     1  UNL1       -0.2081
     21 C         -27.5430    0.8490   25.0790 C.2     1  UNL1        0.2533
     22 O         -28.1930   -0.2080   24.4770 O.2     1  UNL1       -0.4558
     23 C         -29.4600    0.0050   23.8660 C.3     1  UNL1        0.2426
     24 C         -30.0650   -1.3770   23.5730 C.3     1  UNL1        0.2292
     25 O         -30.7290   -1.8780   24.7210 O.3     1  UNL1       -0.2162
     26 C         -26.3540    0.5760   25.7770 C.2     1  UNL1        0.1928
     27 F         -25.8600   -0.6810   25.7950 F       1  UNL1       -0.1992
     28 C         -23.5552    1.2464   27.2350 C.2     1  UNL1        0.0472
     29 C         -23.7807    0.6786   28.0413 C.3     1  UNL1        0.1230
     30 C         -30.3024    0.9686   30.2475 C.3     1  UNL1        0.0000
     31 F         -22.2846   -0.5063   29.9344 F       1  UNL1       -0.2270
     32 C         -30.1066    1.9251   29.0419 C.3     1  UNL1        0.0000
     33 C         -20.1748   -0.2527   28.2502 C.2     1  UNL1        0.0382
     34 C         -21.2447    0.4578   28.0513 C.2     1  UNL1        0.1538
     35 C         -27.1429    1.0418   29.1984 C.3     1  UNL1        0.0174
     36 C         -28.1765    0.0294   29.6553 C.3     1  UNL1        0.0014
     37 C         -24.4997    1.1756   27.2030 C.2     1  UNL1       -0.0002
     38 N         -25.0318   -0.0516   29.2738 N.3     1  UNL1       -0.2625
     39 F         -22.5067    2.6624   25.4405 F       1  UNL1       -0.1836
     40 C         -28.8604    0.8555   30.8248 C.3     1  UNL1        0.0000
     41 C         -22.5088    0.2466   28.8098 C.3     1  UNL1        0.2375
     42 O         -21.2279    1.4774   27.0459 O.2     1  UNL1       -0.4478
     43 C         -22.3797    1.8885   26.5296 C.3     1  UNL1        0.3483
     44 C         -26.2933    0.0199   28.5702 C.3     1  UNL1        0.0729
@<TRIPOS>BOND
     1     1    38    1
     2     2     7    1
     3     2     1    1
     4     3     2    2
     5     4     3    1
     6     4     5    2
     7     5     6    1
     8     6     7    2
     9     8     1    1
    10     8     9    1
    11     8    12    1
    12     9    10    1
    13    10    11    1
    14    12    11    1
    15    13    37    1
    16    14    13    1
    17    14    15    1
    18    15    18    2
    19    16    17    1
    20    16    15    1
    21    19    14    2
    22    20    21    2
    23    20    19    1
    24    21    26    1
    25    22    21    1
    26    23    22    1
    27    24    23    1
    28    24    25    1
    29    26    27    1
    30    26    13    2
    31    28    29    1
    32    29    41    1
    33    29    38    1
    34    30    40    1
    35    32    30    1
    36    34    33    2
    37    34    41    1
    38    35    36    1
    39    36    40    1
    40    37    28    2
    41    37    29    1
    42    41    31    1
    43    42    34    1
    44    43    39    1
    45    43    42    1
    46    43    28    1
    47    44    35    1
    48    44    38    1
