@<TRIPOS>MOLECULE
No_3209-gen_results/8p0m/2024-11-27-11-27-31/
 22 24 0 0 0
SMALL
GASTEIGER

@<TRIPOS>ATOM
      1 C         -28.0162   -0.8135   28.8779 C.ar    1  UNL1       -0.0043
      2 C         -28.4690   -0.7850   29.8287 C.ar    1  UNL1       -0.0003
      3 C         -26.5042   -0.7777   28.8766 C.ar    1  UNL1       -0.0219
      4 C         -25.6540   -0.6597   27.7191 C.3     1  UNL1        0.0307
      5 C         -27.9180   -0.9374   31.1824 C.ar    1  UNL1       -0.0000
      6 C         -26.5423   -0.9399   31.2606 C.ar    1  UNL1       -0.0003
      7 C         -25.7832   -0.8935   30.1201 C.ar    1  UNL1       -0.0043
      8 C         -25.2134    0.6923   27.3830 C.3     1  UNL1        0.0270
      9 C         -23.9202    0.9215   27.7698 C.ar    1  UNL1       -0.0222
     10 C         -23.2576    2.1194   27.2629 C.ar    1  UNL1       -0.0043
     11 C         -21.9130    2.4079   27.6415 C.ar    1  UNL1       -0.0003
     12 C         -23.0377    0.2081   28.6292 C.ar    1  UNL1       -0.0043
     13 C         -21.7392    0.4024   28.9471 C.ar    1  UNL1       -0.0003
     14 C         -21.1694    1.5296   28.3989 C.ar    1  UNL1       -0.0000
     15 C         -25.9381    1.5008   26.5679 C.3     1  UNL1        0.0094
     16 C         -26.2587    1.0773   25.3167 C.3     1  UNL1        0.0267
     17 C         -27.3590    0.3527   25.1275 C.ar    1  UNL1       -0.0222
     18 C         -28.0245    0.1532   23.9086 C.ar    1  UNL1       -0.0043
     19 C         -29.3527    0.4652   23.9868 C.ar    1  UNL1       -0.0003
     20 C         -30.1993    0.1671   25.0472 C.ar    1  UNL1       -0.0000
     21 C         -29.5214    0.3105   26.3212 C.ar    1  UNL1       -0.0003
     22 C         -28.2528    0.4845   26.3383 C.ar    1  UNL1       -0.0043
@<TRIPOS>BOND
     1     3     4    1
     2     4     8    1
     3     8     9    1
     4     8    15    1
     5    15    16    1
     6    16    17    1
     7    17    18   ar
     8    18    19   ar
     9    19    20   ar
    10    20    21   ar
    11    21    22   ar
    12    22    17   ar
    13     9    10   ar
    14    10    11   ar
    15    11    14   ar
    16    14    13   ar
    17    13    12   ar
    18    12     9   ar
    19     1     2   ar
    20     2     5   ar
    21     5     6   ar
    22     6     7   ar
    23     7     3   ar
    24     3     1   ar
