@<TRIPOS>MOLECULE
outputs/IAG933/test6/raw/output_3213_IAG933_linker_design_.xyz
 41 45 0 0 0
SMALL
GASTEIGER

@<TRIPOS>ATOM
      1 C         -24.8550   -1.0120   30.1430 C.3     1  UNL1        0.1150
      2 C         -24.9730   -2.5050   29.7880 C.2     1  UNL1       -0.0125
      3 C         -23.9060   -3.1730   29.1460 C.2     1  UNL1       -0.0038
      4 C         -23.9890   -4.5490   28.8530 C.2     1  UNL1       -0.0003
      5 C         -25.1370   -5.2800   29.2050 C.2     1  UNL1       -0.0000
      6 C         -26.2320   -4.6110   29.7840 C.2     1  UNL1       -0.0003
      7 C         -26.1550   -3.2320   30.0650 C.2     1  UNL1       -0.0038
      8 C         -25.3870   -0.6790   31.5710 C.3     1  UNL1        0.0855
      9 C         -25.1890    0.7730   32.0280 C.3     1  UNL1        0.0197
     10 C         -25.3360    0.6840   33.5440 C.3     1  UNL1        0.0203
     11 C         -24.8290   -0.7150   33.9050 C.3     1  UNL1        0.0887
     12 N         -24.7580   -1.4810   32.6460 N.3     1  UNL1       -0.2186
     13 C         -25.6880    1.6140   26.4610 C.2     1  UNL1        0.0576
     14 C         -26.2500    2.9200   26.3950 C.2     1  UNL1        0.0760
     15 C         -25.6420    4.0930   27.1230 C.2     1  UNL1        0.2662
     16 N         -25.6140    5.2520   26.4490 N.am    1  UNL1       -0.1997
     17 C         -25.0260    6.4790   26.9630 C.3     1  UNL1        0.1388
     18 O         -25.1430    3.9660   28.2430 O.2     1  UNL1       -0.2683
     19 C         -27.4380    3.0910   25.6450 C.2     1  UNL1        0.1065
     20 N         -28.0750    2.0890   25.0030 N.2     1  UNL1       -0.2081
     21 C         -27.5430    0.8490   25.0790 C.2     1  UNL1        0.2531
     22 O         -28.1930   -0.2080   24.4770 O.2     1  UNL1       -0.4558
     23 C         -29.4600    0.0050   23.8660 C.3     1  UNL1        0.2426
     24 C         -30.0650   -1.3770   23.5730 C.3     1  UNL1        0.2292
     25 O         -30.7290   -1.8780   24.7210 O.3     1  UNL1       -0.2162
     26 C         -26.3540    0.5760   25.7770 C.2     1  UNL1        0.1926
     27 F         -25.8600   -0.6810   25.7950 F       1  UNL1       -0.1995
     28 N         -24.3543    0.5235   28.3149 N.am    1  UNL1       -0.2189
     29 F         -20.5685    2.1796   26.8983 F       1  UNL1       -0.2026
     30 C         -23.0571    0.2732   28.5560 C.3     1  UNL1        0.2920
     31 O         -22.4542   -0.5313   29.3107 O.2     1  UNL1       -0.4515
     32 C         -20.3341    0.1760   28.2988 C.2     1  UNL1        0.0711
     33 F         -23.2579    3.3215   25.4616 F       1  UNL1       -0.0213
     34 O         -23.0403    1.9696   25.5102 O.3     1  UNL1       -0.0638
     35 C         -22.3808    1.1466   27.5244 C.2     1  UNL1        0.1522
     36 O         -26.4824    0.4433   29.2259 O.2     1  UNL1       -0.2743
     37 C         -24.4431    1.2752   27.1823 C.3     1  UNL1        0.2177
     38 C         -25.2921    0.0347   29.1606 C.2     1  UNL1        0.2349
     39 C         -21.1147   -0.5382   29.0493 C.2     1  UNL1        0.1771
     40 N         -23.2632    1.4989   26.7224 N.3     1  UNL1       -0.1795
     41 C         -21.0015    1.2303   27.6144 C.2     1  UNL1        0.1621
@<TRIPOS>BOND
     1     1    38    1
     2     2     7    1
     3     2     1    1
     4     3     2    2
     5     4     3    1
     6     4     5    2
     7     5     6    1
     8     6     7    2
     9     8     1    1
    10     8     9    1
    11     8    12    1
    12     9    10    1
    13    10    11    1
    14    12    11    1
    15    14    13    1
    16    14    15    1
    17    15    18    2
    18    16    17    1
    19    16    15    1
    20    19    14    2
    21    20    21    2
    22    20    19    1
    23    21    26    1
    24    22    21    1
    25    23    22    1
    26    24    23    1
    27    24    25    1
    28    26    27    1
    29    26    13    2
    30    28    30    1
    31    28    38   am
    32    29    41    1
    33    30    35    1
    34    30    31    1
    35    32    39    2
    36    33    34    1
    37    34    40    1
    38    35    41    2
    39    37    13    1
    40    37    28    1
    41    38    36    2
    42    39    31    1
    43    40    37    1
    44    40    35    1
    45    41    32    1
