@<TRIPOS>MOLECULE
outputs/IAG933/test6/raw/output_3215_IAG933_linker_design_.xyz
 49 55 0 0 0
SMALL
GASTEIGER

@<TRIPOS>ATOM
      1 C         -24.8550   -1.0120   30.1430 C.3     1  UNL1        0.2039
      2 C         -24.9730   -2.5050   29.7880 C.2     1  UNL1        0.0186
      3 C         -23.9060   -3.1730   29.1460 C.2     1  UNL1       -0.0008
      4 C         -23.9890   -4.5490   28.8530 C.2     1  UNL1       -0.0002
      5 C         -25.1370   -5.2800   29.2050 C.2     1  UNL1       -0.0000
      6 C         -26.2320   -4.6110   29.7840 C.2     1  UNL1       -0.0002
      7 C         -26.1550   -3.2320   30.0650 C.2     1  UNL1       -0.0008
      8 C         -25.3870   -0.6790   31.5710 C.3     1  UNL1        0.1170
      9 C         -25.1890    0.7730   32.0280 C.3     1  UNL1        0.0229
     10 C         -25.3360    0.6840   33.5440 C.3     1  UNL1        0.0204
     11 C         -24.8290   -0.7150   33.9050 C.3     1  UNL1        0.0888
     12 N         -24.7580   -1.4810   32.6460 N.3     1  UNL1       -0.2154
     13 C         -25.6880    1.6140   26.4610 C.ar    1  UNL1        0.0241
     14 C         -26.2500    2.9200   26.3950 C.ar    1  UNL1        0.0545
     15 C         -25.6420    4.0930   27.1230 C.ar    1  UNL1        0.2225
     16 N         -25.6140    5.2520   26.4490 N.2     1  UNL1       -0.2356
     17 C         -25.0260    6.4790   26.9630 C.3     1  UNL1        0.1550
     18 O         -25.1430    3.9660   28.2430 O.2     1  UNL1       -0.4409
     19 C         -27.4380    3.0910   25.6450 C.3     1  UNL1        0.1592
     20 N         -28.0750    2.0890   25.0030 N.2     1  UNL1       -0.2340
     21 C         -27.5430    0.8490   25.0790 C.2     1  UNL1        0.2341
     22 O         -28.1930   -0.2080   24.4770 O.2     1  UNL1       -0.4585
     23 C         -29.4600    0.0050   23.8660 C.3     1  UNL1        0.2423
     24 C         -30.0650   -1.3770   23.5730 C.3     1  UNL1        0.2292
     25 O         -30.7290   -1.8780   24.7210 O.3     1  UNL1       -0.2162
     26 C         -26.3540    0.5760   25.7770 C.3     1  UNL1        0.2578
     27 F         -25.8600   -0.6810   25.7950 F       1  UNL1       -0.2223
     28 C         -27.9484    2.4153   31.5913 C.3     1  UNL1        0.0198
     29 C         -20.7361    0.1692   28.4511 C.2     1  UNL1        0.0064
     30 C         -31.1525    3.5719   30.9790 C.3     1  UNL1        0.0721
     31 C         -22.2268    1.5204   27.0554 C.2     1  UNL1        0.1986
     32 C         -31.5385    4.9378   31.5479 C.3     1  UNL1        0.0188
     33 C         -21.8545   -0.1559   29.2543 C.2     1  UNL1        0.0371
     34 N         -29.7717    3.3872   30.5348 N.3     1  UNL1       -0.2727
     35 C         -23.2585    1.1391   27.8389 C.2     1  UNL1        0.0753
     36 C         -24.6103    2.8445   28.8137 C.ar    1  UNL1        0.1270
     37 O         -26.0757    4.9464   31.2613 O.3     1  UNL1       -0.2252
     38 C         -20.9105    1.1153   27.3727 C.2     1  UNL1        0.0422
     39 O         -22.4272    2.3301   25.9673 O.2     1  UNL1       -0.2865
     40 C         -27.3712    4.2256   29.4419 C.3     1  UNL1        0.0333
     41 C         -26.4376    3.7285   30.5092 C.3     1  UNL1        0.1338
     42 C         -28.9977    3.4643   31.6956 C.3     1  UNL1        0.0722
     43 C         -25.1089    2.9177   30.2928 C.3     1  UNL1        0.0949
     44 C         -27.5356    2.9804   30.0036 C.3     1  UNL1        0.0313
     45 O         -24.1823    0.0185   29.6077 O.2     1  UNL1       -0.4732
     46 C         -24.4644    1.7675   27.6413 C.ar    1  UNL1        0.0355
     47 C         -28.2524    2.0291   29.0733 C.3     1  UNL1        0.0198
     48 C         -23.0993    0.2952   28.8399 C.2     1  UNL1        0.1420
     49 C         -29.7164    2.1622   29.5974 C.3     1  UNL1        0.0722
@<TRIPOS>BOND
     1     1    45    1
     2     2     7    1
     3     2     1    1
     4     3     2    2
     5     4     3    1
     6     4     5    2
     7     5     6    1
     8     6     7    2
     9     8     1    1
    10     8     9    1
    11     8    12    1
    12     9    10    1
    13    10    11    1
    14    12    11    1
    15    13    46   ar
    16    14    13   ar
    17    14    15   ar
    18    15    18   ar
    19    16    17    1
    20    16    15    2
    21    18    36   ar
    22    19    14    1
    23    20    21    2
    24    20    19    1
    25    21    26    1
    26    22    21    1
    27    23    22    1
    28    24    23    1
    29    24    25    1
    30    26    27    1
    31    26    13    1
    32    28    42    1
    33    29    33    1
    34    30    32    1
    35    31    38    1
    36    31    35    2
    37    34    30    1
    38    34    42    1
    39    35    48    1
    40    36    43    1
    41    38    29    2
    42    39    31    1
    43    40    44    1
    44    40    41    1
    45    41    37    1
    46    43    41    1
    47    44    41    1
    48    44    28    1
    49    46    35    1
    50    46    36   ar
    51    47    49    1
    52    47    44    1
    53    48    33    2
    54    48    45    1
    55    49    34    1
