@<TRIPOS>MOLECULE
No_3216-gen_results/8p0m/2024-11-27-11-27-31/
 13 14 0 0 0
SMALL
GASTEIGER

@<TRIPOS>ATOM
      1 C         -28.0162   -0.8135   28.8779 C.ar    1  UNL1        0.0000
      2 C         -27.0636   -0.1190   28.6079 C.ar    1  UNL1        0.0000
      3 C         -25.7923   -0.4302   29.0761 C.ar    1  UNL1        0.0001
      4 C         -25.5314   -1.5876   29.6105 C.ar    1  UNL1        0.0000
      5 C         -26.6366   -2.4336   29.9654 C.ar    1  UNL1        0.0000
      6 C         -27.8411   -2.0285   29.6196 C.ar    1  UNL1        0.0000
      7 C         -26.9598    1.2190   27.8485 C.ar    1  UNL1        0.0001
      8 C         -26.0141    1.7224   27.3946 C.ar    1  UNL1        0.0046
      9 C         -24.6349    1.2984   27.9019 C.ar    1  UNL1        0.0567
     10 C         -24.4564    0.4897   28.6840 C.ar    1  UNL1        0.0046
     11 C         -23.5861    2.3397   27.4909 C.2     1  UNL1        0.2842
     12 N         -22.3860    2.1077   28.0139 N.am    1  UNL1       -0.0837
     13 O         -23.7770    3.2204   26.6516 O.2     1  UNL1       -0.2667
@<TRIPOS>BOND
     1     9    11    1
     2    11    12   am
     3    11    13    2
     4     1     2   ar
     5     3     4   ar
     6     4     5   ar
     7     5     6   ar
     8     6     1   ar
     9     2     3   ar
    10     3    10   ar
    11    10     9   ar
    12     9     8   ar
    13     8     7   ar
    14     7     2   ar
