@<TRIPOS>MOLECULE
No_3217-gen_results/8p0m/2024-11-27-11-27-31/
 7 7 0 0 0
SMALL
GASTEIGER

@<TRIPOS>ATOM
      1 O         -28.1229   -1.3353   28.4874 O.2     1  UNL1       -0.2733
      2 C         -27.0637   -0.8242   28.8687 C.2     1  UNL1        0.2414
      3 C         -26.9592    0.0926   29.7582 C.3     1  UNL1        0.0869
      4 N         -25.8012   -1.3566   28.3971 N.am    1  UNL1       -0.2054
      5 C         -25.7368    0.7239   30.2099 C.3     1  UNL1        0.0114
      6 C         -24.5680   -0.8667   28.7917 C.3     1  UNL1        0.1152
      7 C         -24.4971    0.1706   29.6778 C.3     1  UNL1        0.0239
@<TRIPOS>BOND
     1     1     2    2
     2     2     3    1
     3     2     4   am
     4     4     6    1
     5     5     7    1
     6     3     5    1
     7     7     6    1
