@<TRIPOS>MOLECULE
outputs/IAG933/test6/raw/output_3218_IAG933_linker_design_.xyz
 45 48 0 0 0
SMALL
GASTEIGER

@<TRIPOS>ATOM
      1 C         -24.8550   -1.0120   30.1430 C.3     1  UNL1        0.1153
      2 C         -24.9730   -2.5050   29.7880 C.2     1  UNL1       -0.0027
      3 C         -23.9060   -3.1730   29.1460 C.2     1  UNL1       -0.0026
      4 C         -23.9890   -4.5490   28.8530 C.2     1  UNL1       -0.0003
      5 C         -25.1370   -5.2800   29.2050 C.2     1  UNL1       -0.0000
      6 C         -26.2320   -4.6110   29.7840 C.2     1  UNL1       -0.0003
      7 C         -26.1550   -3.2320   30.0650 C.2     1  UNL1       -0.0026
      8 C         -25.3870   -0.6790   31.5710 C.3     1  UNL1        0.0954
      9 C         -25.1890    0.7730   32.0280 C.3     1  UNL1        0.0209
     10 C         -25.3360    0.6840   33.5440 C.3     1  UNL1        0.0203
     11 C         -24.8290   -0.7150   33.9050 C.3     1  UNL1        0.0888
     12 N         -24.7580   -1.4810   32.6460 N.3     1  UNL1       -0.2174
     13 C         -25.6880    1.6140   26.4610 C.2     1  UNL1        0.0394
     14 C         -26.2500    2.9200   26.3950 C.2     1  UNL1        0.0766
     15 C         -25.6420    4.0930   27.1230 C.2     1  UNL1        0.2664
     16 N         -25.6140    5.2520   26.4490 N.am    1  UNL1       -0.1997
     17 C         -25.0260    6.4790   26.9630 C.3     1  UNL1        0.1388
     18 O         -25.1430    3.9660   28.2430 O.2     1  UNL1       -0.2683
     19 C         -27.4380    3.0910   25.6450 C.2     1  UNL1        0.1067
     20 N         -28.0750    2.0890   25.0030 N.2     1  UNL1       -0.2081
     21 C         -27.5430    0.8490   25.0790 C.2     1  UNL1        0.2533
     22 O         -28.1930   -0.2080   24.4770 O.2     1  UNL1       -0.4558
     23 C         -29.4600    0.0050   23.8660 C.3     1  UNL1        0.2426
     24 C         -30.0650   -1.3770   23.5730 C.3     1  UNL1        0.2292
     25 O         -30.7290   -1.8780   24.7210 O.3     1  UNL1       -0.2162
     26 C         -26.3540    0.5760   25.7770 C.2     1  UNL1        0.1931
     27 F         -25.8600   -0.6810   25.7950 F       1  UNL1       -0.1992
     28 O         -22.4927   -0.1153   30.2215 O.2     1  UNL1       -0.2828
     29 F         -20.6010    0.8319   28.4767 F       1  UNL1       -0.2007
     30 C         -21.8943    0.9339   28.1597 C.2     1  UNL1        0.1801
     31 C         -29.3539    2.8077   29.9815 C.3     1  UNL1        0.1890
     32 N         -25.4044   -0.0118   29.0744 N.pl3   1  UNL1       -0.2821
     33 C         -27.5928   -0.8399   28.6148 C.3     1  UNL1        0.2228
     34 O         -28.7945    2.7508   31.1506 O.3     1  UNL1       -0.2200
     35 O         -29.9013   -0.0738   27.5929 O.3     1  UNL1       -0.2200
     36 C         -24.3127    0.5636   28.3377 C.2     1  UNL1        0.0934
     37 C         -27.4910    1.4310   29.0822 C.2     1  UNL1       -0.0082
     38 C         -28.9670    1.3975   29.1598 C.3     1  UNL1        0.0889
     39 C         -22.9942    0.4393   28.9009 C.2     1  UNL1        0.2363
     40 C         -23.2683    1.8479   26.4851 C.2     1  UNL1        0.0038
     41 O         -28.7774   -1.1724   29.5190 O.3     1  UNL1       -0.2138
     42 C         -26.8153    0.1742   28.8891 C.2     1  UNL1        0.0582
     43 C         -21.9987    1.6613   26.9915 C.2     1  UNL1        0.0330
     44 C         -24.3805    1.3023   27.1355 C.2     1  UNL1        0.0194
     45 C         -30.1043    1.0239   28.4097 C.3     1  UNL1        0.1890
@<TRIPOS>BOND
     1     1    32    1
     2     2     7    1
     3     2     1    1
     4     3     2    2
     5     4     3    1
     6     4     5    2
     7     5     6    1
     8     6     7    2
     9     8     1    1
    10     8     9    1
    11     8    12    1
    12     9    10    1
    13    10    11    1
    14    12    11    1
    15    13    44    1
    16    14    13    1
    17    14    15    1
    18    15    18    2
    19    16    17    1
    20    16    15    1
    21    19    14    2
    22    20    21    2
    23    20    19    1
    24    21    26    1
    25    22    21    1
    26    23    22    1
    27    24    23    1
    28    24    25    1
    29    26    27    1
    30    26    13    2
    31    30    29    1
    32    30    39    1
    33    31    34    1
    34    33    42    1
    35    33    41    1
    36    35    45    1
    37    36    39    2
    38    36    32    1
    39    37    38    1
    40    38    31    1
    41    39    28    1
    42    40    43    1
    43    40    44    2
    44    42    32    1
    45    42    37    2
    46    43    30    2
    47    44    36    1
    48    45    38    1
