@<TRIPOS>MOLECULE
No_3219-gen_results/8p0m/2024-11-27-11-27-31/
 20 22 0 0 0
SMALL
GASTEIGER

@<TRIPOS>ATOM
      1 C         -28.0162   -0.8135   28.8779 C.ar    1  UNL1       -0.0034
      2 C         -28.4690   -0.7850   29.8287 C.ar    1  UNL1       -0.0003
      3 C         -28.1960    0.3478   28.0550 C.ar    1  UNL1       -0.0077
      4 C         -29.0191    1.3501   28.3782 C.ar    1  UNL1       -0.0034
      5 C         -29.6249    1.2683   29.6012 C.ar    1  UNL1       -0.0003
      6 C         -29.3791    0.1470   30.3923 C.ar    1  UNL1       -0.0000
      7 C         -27.4550    0.3821   26.7102 C.3     1  UNL1        0.1478
      8 C         -26.0156    0.4242   26.8243 C.ar    1  UNL1       -0.0077
      9 C         -25.3311   -0.0592   27.8790 C.ar    1  UNL1       -0.0034
     10 C         -23.9601    0.1638   28.0315 C.ar    1  UNL1       -0.0003
     11 C         -23.1836   -0.3569   29.1483 C.ar    1  UNL1       -0.0000
     12 C         -21.8449    0.0236   29.3147 C.ar    1  UNL1       -0.0000
     13 C         -21.2630    0.9060   28.3618 C.ar    1  UNL1       -0.0000
     14 C         -22.0459    1.5271   27.3672 C.ar    1  UNL1       -0.0000
     15 C         -23.3534    1.2257   27.2873 C.ar    1  UNL1       -0.0000
     16 C         -25.3762    1.2502   25.8303 C.ar    1  UNL1       -0.0034
     17 C         -24.0973    1.7430   26.1465 C.ar    1  UNL1       -0.0003
     18 C         -28.1761    0.2929   25.5567 C.2     1  UNL1        0.3724
     19 O         -28.5378    1.1456   25.0837 O.co2   1  UNL1       -0.2449
     20 O         -28.3468   -0.8731   25.0734 O.co2   1  UNL1       -0.2449
@<TRIPOS>BOND
     1     3     7    1
     2     7     8    1
     3     7    18    1
     4    18    19   ar
     5    18    20   ar
     6     8     9   ar
     7     9    10   ar
     8    15    17   ar
     9    17    16   ar
    10    16     8   ar
    11     1     2   ar
    12     2     6   ar
    13     6     5   ar
    14     5     4   ar
    15     4     3   ar
    16     3     1   ar
    17    10    11   ar
    18    11    12   ar
    19    12    13   ar
    20    13    14   ar
    21    14    15   ar
    22    15    10   ar
