@<TRIPOS>MOLECULE
outputs/IAG933/test6/raw/output_322_IAG933_linker_design_.xyz
 50 55 0 0 0
SMALL
GASTEIGER

@<TRIPOS>ATOM
      1 C         -24.8550   -1.0120   30.1430 C.3     1  UNL1        0.0438
      2 C         -24.9730   -2.5050   29.7880 C.2     1  UNL1       -0.0208
      3 C         -23.9060   -3.1730   29.1460 C.2     1  UNL1       -0.0042
      4 C         -23.9890   -4.5490   28.8530 C.2     1  UNL1       -0.0003
      5 C         -25.1370   -5.2800   29.2050 C.2     1  UNL1       -0.0000
      6 C         -26.2320   -4.6110   29.7840 C.2     1  UNL1       -0.0003
      7 C         -26.1550   -3.2320   30.0650 C.2     1  UNL1       -0.0042
      8 C         -25.3870   -0.6790   31.5710 C.3     1  UNL1        0.0795
      9 C         -25.1890    0.7730   32.0280 C.3     1  UNL1        0.0450
     10 C         -25.3360    0.6840   33.5440 C.3     1  UNL1        0.0226
     11 C         -24.8290   -0.7150   33.9050 C.3     1  UNL1        0.0888
     12 N         -24.7580   -1.4810   32.6460 N.3     1  UNL1       -0.2190
     13 C         -25.6880    1.6140   26.4610 C.2     1  UNL1        0.0316
     14 C         -26.2500    2.9200   26.3950 C.2     1  UNL1        0.0739
     15 C         -25.6420    4.0930   27.1230 C.2     1  UNL1        0.2662
     16 N         -25.6140    5.2520   26.4490 N.am    1  UNL1       -0.1997
     17 C         -25.0260    6.4790   26.9630 C.3     1  UNL1        0.1388
     18 O         -25.1430    3.9660   28.2430 O.2     1  UNL1       -0.2683
     19 C         -27.4380    3.0910   25.6450 C.2     1  UNL1        0.1065
     20 N         -28.0750    2.0890   25.0030 N.2     1  UNL1       -0.2081
     21 C         -27.5430    0.8490   25.0790 C.2     1  UNL1        0.2530
     22 O         -28.1930   -0.2080   24.4770 O.2     1  UNL1       -0.4558
     23 C         -29.4600    0.0050   23.8660 C.3     1  UNL1        0.2426
     24 C         -30.0650   -1.3770   23.5730 C.3     1  UNL1        0.2292
     25 O         -30.7290   -1.8780   24.7210 O.3     1  UNL1       -0.2162
     26 C         -26.3540    0.5760   25.7770 C.2     1  UNL1        0.1904
     27 F         -25.8600   -0.6810   25.7950 F       1  UNL1       -0.1995
     28 O         -23.9220    6.0602   33.2681 O.3     1  UNL1       -0.0691
     29 C         -26.0712    5.1071   32.4872 C.3     1  UNL1        0.1849
     30 C         -26.9283    3.2150   33.2784 C.3     1  UNL1        0.0591
     31 O         -25.0118    6.0355   30.8325 O.3     1  UNL1       -0.0691
     32 C         -27.5665    4.3471   33.8132 C.2     1  UNL1       -0.0052
     33 N         -28.9421    3.2642   35.4858 N.pl3   1  UNL1       -0.1284
     34 C         -24.8174    1.9773   31.2522 C.3     1  UNL1        0.1179
     35 C         -27.7266    6.7647   33.4366 C.2     1  UNL1       -0.0028
     36 C         -28.5751    6.8177   34.5215 C.2     1  UNL1        0.0011
     37 O         -25.2300    3.0455   31.6300 O.3     1  UNL1       -0.3562
     38 C         -28.9684    5.6683   35.2162 C.2     1  UNL1        0.0177
     39 C         -24.4489    1.4342   26.9849 C.3     1  UNL1        0.0974
     40 N         -24.3266    0.7926   28.1116 N.3     1  UNL1       -0.2163
     41 C         -21.7968    1.5829   26.8151 C.3     1  UNL1        0.0032
     42 C         -28.5269    4.4100   34.8200 C.2     1  UNL1        0.0849
     43 C         -26.0130    3.7357   32.3667 C.3     1  UNL1        0.1459
     44 C         -23.1424    1.1244   28.9296 C.3     1  UNL1        0.0755
     45 C         -21.8911    1.7705   28.3542 C.3     1  UNL1        0.0175
     46 O         -24.4523    8.0032   32.0395 O.3     1  UNL1       -0.0691
     47 C         -27.1327    5.5181   33.2065 C.2     1  UNL1       -0.0004
     48 C         -23.8012    2.0713   29.9874 C.3     1  UNL1        0.0470
     49 S         -24.9226    6.4890   32.2682 S.3     1  UNL1        0.0272
     50 C         -23.1859    2.0345   26.2361 C.3     1  UNL1        0.0220
@<TRIPOS>BOND
     1     2     7    1
     2     2     1    1
     3     3     2    2
     4     4     3    1
     5     4     5    2
     6     5     6    1
     7     6     7    2
     8     8     1    1
     9     8     9    1
    10     8    12    1
    11     9    34    1
    12     9    10    1
    13    10    11    1
    14    12    11    1
    15    14    13    1
    16    14    15    1
    17    15    18    2
    18    16    17    1
    19    16    15    1
    20    19    14    2
    21    20    21    2
    22    20    19    1
    23    21    26    1
    24    22    21    1
    25    23    22    1
    26    24    23    1
    27    24    25    1
    28    26    27    1
    29    26    13    2
    30    29    49    1
    31    29    47    1
    32    30    32    1
    33    31    49    1
    34    32    42    1
    35    34    48    1
    36    34    37    1
    37    35    36    2
    38    36    38    1
    39    39    13    1
    40    39    40    1
    41    40    44    1
    42    41    45    1
    43    42    38    2
    44    42    33    1
    45    43    37    1
    46    43    29    1
    47    43    30    1
    48    44    48    1
    49    45    44    1
    50    46    49    1
    51    47    35    1
    52    47    32    2
    53    49    28    1
    54    50    41    1
    55    50    39    1
