@<TRIPOS>MOLECULE
outputs/IAG933/test6/raw/output_3222_IAG933_linker_design_.xyz
 43 46 0 0 0
SMALL
GASTEIGER

@<TRIPOS>ATOM
      1 C         -24.8550   -1.0120   30.1430 C.3     1  UNL1        0.1533
      2 C         -24.9730   -2.5050   29.7880 C.2     1  UNL1        0.0059
      3 C         -23.9060   -3.1730   29.1460 C.2     1  UNL1       -0.0019
      4 C         -23.9890   -4.5490   28.8530 C.2     1  UNL1       -0.0002
      5 C         -25.1370   -5.2800   29.2050 C.2     1  UNL1       -0.0000
      6 C         -26.2320   -4.6110   29.7840 C.2     1  UNL1       -0.0002
      7 C         -26.1550   -3.2320   30.0650 C.2     1  UNL1       -0.0019
      8 C         -25.3870   -0.6790   31.5710 C.3     1  UNL1        0.1041
      9 C         -25.1890    0.7730   32.0280 C.3     1  UNL1        0.0217
     10 C         -25.3360    0.6840   33.5440 C.3     1  UNL1        0.0203
     11 C         -24.8290   -0.7150   33.9050 C.3     1  UNL1        0.0888
     12 N         -24.7580   -1.4810   32.6460 N.3     1  UNL1       -0.2166
     13 C         -25.6880    1.6140   26.4610 C.2     1  UNL1        0.0407
     14 C         -26.2500    2.9200   26.3950 C.2     1  UNL1        0.0744
     15 C         -25.6420    4.0930   27.1230 C.2     1  UNL1        0.2218
     16 N         -25.6140    5.2520   26.4490 N.2     1  UNL1       -0.2357
     17 C         -25.0260    6.4790   26.9630 C.3     1  UNL1        0.1550
     18 O         -25.1430    3.9660   28.2430 O.2     1  UNL1       -0.4641
     19 C         -27.4380    3.0910   25.6450 C.2     1  UNL1        0.1068
     20 N         -28.0750    2.0890   25.0030 N.2     1  UNL1       -0.2081
     21 C         -27.5430    0.8490   25.0790 C.2     1  UNL1        0.2533
     22 O         -28.1930   -0.2080   24.4770 O.2     1  UNL1       -0.4558
     23 C         -29.4600    0.0050   23.8660 C.3     1  UNL1        0.2426
     24 C         -30.0650   -1.3770   23.5730 C.3     1  UNL1        0.2292
     25 O         -30.7290   -1.8780   24.7210 O.3     1  UNL1       -0.2162
     26 C         -26.3540    0.5760   25.7770 C.2     1  UNL1        0.1931
     27 F         -25.8600   -0.6810   25.7950 F       1  UNL1       -0.1992
     28 C         -24.3347    1.9785   29.4227 C.3     1  UNL1        0.0679
     29 O         -23.5007   -0.6551   30.3708 O.3     1  UNL1       -0.3486
     30 C         -23.1239    1.4530   29.1878 C.3     1  UNL1        0.1296
     31 O         -27.2858    5.7305   29.9623 O.3     1  UNL1       -0.3537
     32 C         -26.8255    6.3535   31.2014 C.3     1  UNL1        0.1422
     33 C         -25.2476    4.6955   32.2603 C.3     1  UNL1        0.0028
     34 CL        -22.1303    2.3807   25.4235 Cl      1  UNL1       -0.0208
     35 C         -25.2924    3.0742   29.2372 C.3     1  UNL1        0.1717
     36 C         -25.8986    3.4844   31.5619 C.3     1  UNL1        0.0062
     37 C         -26.1891    3.5964   30.2755 C.3     1  UNL1        0.0698
     38 N         -22.7753    2.0669   28.0184 N.am    1  UNL1       -0.1907
     39 C         -25.3286    5.9702   31.3708 C.3     1  UNL1        0.0321
     40 O         -20.9618    0.9679   27.2022 O.2     1  UNL1       -0.2551
     41 C         -27.4939    4.3264   29.8919 C.3     1  UNL1        0.1457
     42 C         -22.7413   -0.0572   29.2563 C.3     1  UNL1        0.1642
     43 C         -21.9967    1.6987   26.9965 C.2     1  UNL1        0.3259
@<TRIPOS>BOND
     1     1    29    1
     2     2     7    1
     3     2     1    1
     4     3     2    2
     5     4     3    1
     6     4     5    2
     7     5     6    1
     8     6     7    2
     9     8     1    1
    10     8     9    1
    11     8    12    1
    12     9    10    1
    13    10    11    1
    14    12    11    1
    15    14    13    1
    16    14    15    1
    17    15    18    1
    18    16    17    1
    19    16    15    2
    20    18    35    1
    21    19    14    2
    22    20    21    2
    23    20    19    1
    24    21    26    1
    25    22    21    1
    26    23    22    1
    27    24    23    1
    28    24    25    1
    29    26    27    1
    30    26    13    2
    31    30    42    1
    32    30    28    1
    33    31    32    1
    34    32    39    1
    35    34    43    1
    36    35    28    1
    37    36    33    1
    38    37    35    1
    39    37    36    1
    40    38    30    1
    41    39    33    1
    42    41    31    1
    43    41    37    1
    44    42    29    1
    45    43    40    2
    46    43    38    1
