@<TRIPOS>MOLECULE
outputs/IAG933/test6/raw/output_3223_IAG933_linker_design_.xyz
 43 46 0 0 0
SMALL
GASTEIGER

@<TRIPOS>ATOM
      1 C         -24.8550   -1.0120   30.1430 C.3     1  UNL1        0.1152
      2 C         -24.9730   -2.5050   29.7880 C.2     1  UNL1       -0.0027
      3 C         -23.9060   -3.1730   29.1460 C.2     1  UNL1       -0.0026
      4 C         -23.9890   -4.5490   28.8530 C.2     1  UNL1       -0.0003
      5 C         -25.1370   -5.2800   29.2050 C.2     1  UNL1       -0.0000
      6 C         -26.2320   -4.6110   29.7840 C.2     1  UNL1       -0.0003
      7 C         -26.1550   -3.2320   30.0650 C.2     1  UNL1       -0.0026
      8 C         -25.3870   -0.6790   31.5710 C.3     1  UNL1        0.0954
      9 C         -25.1890    0.7730   32.0280 C.3     1  UNL1        0.0209
     10 C         -25.3360    0.6840   33.5440 C.3     1  UNL1        0.0203
     11 C         -24.8290   -0.7150   33.9050 C.3     1  UNL1        0.0888
     12 N         -24.7580   -1.4810   32.6460 N.3     1  UNL1       -0.2174
     13 C         -25.6880    1.6140   26.4610 C.3     1  UNL1        0.0930
     14 C         -26.2500    2.9200   26.3950 C.2     1  UNL1        0.0589
     15 C         -25.6420    4.0930   27.1230 C.2     1  UNL1        0.2628
     16 N         -25.6140    5.2520   26.4490 N.am    1  UNL1       -0.2000
     17 C         -25.0260    6.4790   26.9630 C.3     1  UNL1        0.1388
     18 O         -25.1430    3.9660   28.2430 O.2     1  UNL1       -0.2686
     19 C         -27.4380    3.0910   25.6450 C.2     1  UNL1        0.1025
     20 N         -28.0750    2.0890   25.0030 N.2     1  UNL1       -0.2118
     21 C         -27.5430    0.8490   25.0790 C.2     1  UNL1        0.2344
     22 O         -28.1930   -0.2080   24.4770 O.2     1  UNL1       -0.4585
     23 C         -29.4600    0.0050   23.8660 C.3     1  UNL1        0.2423
     24 C         -30.0650   -1.3770   23.5730 C.3     1  UNL1        0.2292
     25 O         -30.7290   -1.8780   24.7210 O.3     1  UNL1       -0.2162
     26 C         -26.3540    0.5760   25.7770 C.3     1  UNL1        0.2440
     27 F         -25.8600   -0.6810   25.7950 F       1  UNL1       -0.2265
     28 C         -27.1973   -0.3390   28.7243 C.3     1  UNL1        0.0609
     29 N         -24.5822   -0.1529   29.0974 N.pl3   1  UNL1       -0.2861
     30 C         -28.7567    2.3856   31.2614 C.3     1  UNL1        0.0198
     31 F         -21.3500    1.7678   27.1970 F       1  UNL1       -0.2324
     32 C         -25.6027    0.3448   28.5029 C.2     1  UNL1        0.0268
     33 C         -30.5921    1.7562   27.8340 C.3     1  UNL1        0.2007
     34 C         -23.3205    0.2372   28.6706 C.2     1  UNL1        0.0634
     35 O         -29.8724    2.1425   29.0159 O.3     1  UNL1       -0.2795
     36 C         -29.4985    1.1237   31.6966 C.3     1  UNL1        0.0016
     37 C         -22.6207    1.7024   26.8647 C.3     1  UNL1        0.1843
     38 C         -22.8543    2.1220   25.4522 C.3     1  UNL1        0.0431
     39 C         -28.5769    0.3022   28.3623 C.3     1  UNL1        0.1070
     40 C         -24.9400    1.0345   27.5855 C.2     1  UNL1       -0.0057
     41 C         -23.5188    1.0868   27.6366 C.2     1  UNL1        0.0220
     42 C         -27.7452    2.1438   30.1717 C.3     1  UNL1        0.1010
     43 N         -28.7508    1.4228   29.2854 N.3     1  UNL1       -0.1654
@<TRIPOS>BOND
     1     1     2    1
     2     2     7    1
     3     3     2    2
     4     4     3    1
     5     4     5    2
     6     5     6    1
     7     6     7    2
     8     8     1    1
     9     8     9    1
    10     8    12    1
    11     9    10    1
    12    10    11    1
    13    12    11    1
    14    13    40    1
    15    14    13    1
    16    14    15    1
    17    15    18    2
    18    16    17    1
    19    16    15    1
    20    19    14    2
    21    20    21    2
    22    20    19    1
    23    21    26    1
    24    22    21    1
    25    23    22    1
    26    24    23    1
    27    24    25    1
    28    26    27    1
    29    26    13    1
    30    29     1    1
    31    30    36    1
    32    32    28    1
    33    32    29    1
    34    33    35    1
    35    34    29    1
    36    35    43    1
    37    37    38    1
    38    37    31    1
    39    37    41    1
    40    39    28    1
    41    39    43    1
    42    40    41    1
    43    40    32    2
    44    41    34    2
    45    42    30    1
    46    43    42    1
