@<TRIPOS>MOLECULE
outputs/IAG933/test6/raw/output_3224_IAG933_linker_design_.xyz
 40 44 0 0 0
SMALL
GASTEIGER

@<TRIPOS>ATOM
      1 C         -24.8550   -1.0120   30.1430 C.3     1  UNL1        0.1587
      2 C         -24.9730   -2.5050   29.7880 C.2     1  UNL1        0.0009
      3 C         -23.9060   -3.1730   29.1460 C.2     1  UNL1       -0.0025
      4 C         -23.9890   -4.5490   28.8530 C.2     1  UNL1       -0.0003
      5 C         -25.1370   -5.2800   29.2050 C.2     1  UNL1       -0.0000
      6 C         -26.2320   -4.6110   29.7840 C.2     1  UNL1       -0.0003
      7 C         -26.1550   -3.2320   30.0650 C.2     1  UNL1       -0.0025
      8 C         -25.3870   -0.6790   31.5710 C.3     1  UNL1        0.0990
      9 C         -25.1890    0.7730   32.0280 C.3     1  UNL1        0.0210
     10 C         -25.3360    0.6840   33.5440 C.3     1  UNL1        0.0203
     11 C         -24.8290   -0.7150   33.9050 C.3     1  UNL1        0.0888
     12 N         -24.7580   -1.4810   32.6460 N.3     1  UNL1       -0.2173
     13 C         -25.6880    1.6140   26.4610 C.2     1  UNL1        0.0429
     14 C         -26.2500    2.9200   26.3950 C.2     1  UNL1        0.0746
     15 C         -25.6420    4.0930   27.1230 C.2     1  UNL1        0.2662
     16 N         -25.6140    5.2520   26.4490 N.am    1  UNL1       -0.1997
     17 C         -25.0260    6.4790   26.9630 C.3     1  UNL1        0.1388
     18 O         -25.1430    3.9660   28.2430 O.2     1  UNL1       -0.2683
     19 C         -27.4380    3.0910   25.6450 C.2     1  UNL1        0.1065
     20 N         -28.0750    2.0890   25.0030 N.2     1  UNL1       -0.2081
     21 C         -27.5430    0.8490   25.0790 C.2     1  UNL1        0.2530
     22 O         -28.1930   -0.2080   24.4770 O.2     1  UNL1       -0.4558
     23 C         -29.4600    0.0050   23.8660 C.3     1  UNL1        0.2426
     24 C         -30.0650   -1.3770   23.5730 C.3     1  UNL1        0.2292
     25 O         -30.7290   -1.8780   24.7210 O.3     1  UNL1       -0.2162
     26 C         -26.3540    0.5760   25.7770 C.2     1  UNL1        0.1911
     27 F         -25.8600   -0.6810   25.7950 F       1  UNL1       -0.1995
     28 N         -23.0642   -0.0942   29.1581 N.pl3   1  UNL1        0.0879
     29 C         -22.2752    1.2322   27.2884 C.3     1  UNL1        0.3127
     30 O         -21.8045    1.9965   25.2904 O.3     1  UNL1       -0.3303
     31 O         -26.4698    0.4318   28.5020 O.2     1  UNL1       -0.2694
     32 N         -24.4327   -0.1469   29.1885 N.am    1  UNL1       -0.0877
     33 C         -23.1152    2.1055   25.5343 C.2     1  UNL1        0.4263
     34 C         -24.7267    1.2341   27.2241 C.3     1  UNL1        0.1851
     35 N         -20.9319    0.3341   28.4663 N.2     1  UNL1        0.1979
     36 C         -25.2421    0.4747   28.3197 C.2     1  UNL1        0.2839
     37 N         -21.2694    1.5923   26.4658 N.3     1  UNL1        0.0097
     38 N         -23.4697    1.5544   26.7160 N.am    1  UNL1       -0.2076
     39 O         -23.9086    2.7710   24.8613 O.2     1  UNL1       -0.2243
     40 C         -22.1171    0.4399   28.4218 C.2     1  UNL1        0.4528
@<TRIPOS>BOND
     1     1     2    1
     2     2     7    1
     3     3     2    2
     4     4     3    1
     5     4     5    2
     6     5     6    1
     7     6     7    2
     8     8     1    1
     9     8     9    1
    10     8    12    1
    11     9    10    1
    12    10    11    1
    13    12    11    1
    14    14    13    1
    15    14    15    1
    16    15    18    2
    17    16    17    1
    18    16    15    1
    19    19    14    2
    20    20    21    2
    21    20    19    1
    22    21    26    1
    23    22    21    1
    24    23    22    1
    25    24    23    1
    26    24    25    1
    27    26    27    1
    28    26    13    2
    29    28    32    1
    30    29    37    1
    31    29    40    1
    32    30    33    1
    33    30    37    1
    34    32     1    1
    35    33    38   am
    36    34    13    1
    37    34    36    1
    38    36    31    2
    39    36    32   am
    40    38    34    1
    41    38    29    1
    42    39    33    2
    43    40    35    2
    44    40    28    1
