@<TRIPOS>MOLECULE
No_3227-gen_results/8p0m/2024-11-27-11-27-31/
 4 3 0 0 0
SMALL
GASTEIGER

@<TRIPOS>ATOM
      1 CL        -28.1493   -0.8198   28.9079 Cl      1  UNL1       -0.0764
      2 C         -28.5324   -0.0471   29.7727 C.3     1  UNL1        0.2393
      3 F         -27.6515    0.7172   30.3086 F       1  UNL1       -0.2194
      4 C         -29.8669    0.1151   30.2289 C.3     1  UNL1        0.0565
@<TRIPOS>BOND
     1     1     2    1
     2     2     3    1
     3     2     4    1
