@<TRIPOS>MOLECULE
No_3228-gen_results/8p0m/2024-11-27-11-27-31/
 17 17 0 0 0
SMALL
GASTEIGER

@<TRIPOS>ATOM
      1 C         -28.0162   -0.8135   28.8779 C.3     1  UNL1        0.1441
      2 C         -27.0636   -0.1189   28.6079 C.ar    1  UNL1       -0.0005
      3 C         -25.7923   -0.4302   29.0761 C.ar    1  UNL1       -0.0023
      4 C         -24.5456    0.3494   28.8225 C.ar    1  UNL1        0.0077
      5 C         -24.6586    1.4196   27.8878 C.ar    1  UNL1        0.0975
      6 C         -25.9471    1.6811   27.3792 C.ar    1  UNL1        0.0077
      7 C         -27.0439    0.9739   27.6871 C.ar    1  UNL1       -0.0024
      8 N         -28.6643   -0.5274   30.1017 N.am    1  UNL1       -0.1712
      9 C         -29.6646   -0.3963   30.4406 C.2     1  UNL1        0.4099
     10 F         -30.5503   -0.5789   29.6038 F       1  UNL1       -0.1424
     11 O         -30.1937   -0.0968   31.6361 O.2     1  UNL1       -0.2344
     12 C         -23.4528    2.1614   27.5915 C.2     1  UNL1        0.4766
     13 N         -22.2491    1.7512   28.0724 N.pl3   1  UNL1        0.2047
     14 N         -23.4830    3.0213   26.5680 N.pl3   1  UNL1        0.2047
     15 C         -28.3320    1.3413   27.0837 C.2     1  UNL1       -0.0048
     16 C         -28.8606    2.3819   27.4524 C.2     1  UNL1       -0.0258
     17 C         -30.1440    2.8356   26.8687 C.3     1  UNL1        0.0307
@<TRIPOS>BOND
     1     1     2    1
     2     1     8    1
     3     8     9   am
     4     9    10    1
     5     9    11    2
     6     5    12    1
     7    12    13    2
     8    12    14    1
     9     7    15    1
    10    15    16    2
    11    16    17    1
    12     2     3   ar
    13     3     4   ar
    14     4     5   ar
    15     5     6   ar
    16     6     7   ar
    17     7     2   ar
