@<TRIPOS>MOLECULE
No_3229-gen_results/8p0m/2024-11-27-11-27-31/
 15 16 0 0 0
SMALL
GASTEIGER

@<TRIPOS>ATOM
      1 C         -28.0162   -0.8135   28.8779 C.ar    1  UNL1        0.0790
      2 C         -28.4690   -0.7850   29.8287 C.ar    1  UNL1        0.0701
      3 C         -26.5455   -0.8762   28.8500 C.ar    1  UNL1        0.0173
      4 C         -25.8041   -1.0324   30.0571 C.ar    1  UNL1        0.0014
      5 C         -27.9437   -0.9869   31.2075 C.ar    1  UNL1        0.0163
      6 C         -26.5825   -1.0386   31.2231 C.ar    1  UNL1        0.0014
      7 N         -29.9648   -0.7353   29.8902 N.am    1  UNL1       -0.2406
      8 C         -30.7710   -1.5353   30.3549 C.3     1  UNL1        0.1017
      9 C         -31.4273   -2.2155   29.9981 C.3     1  UNL1        0.0454
     10 C         -31.7666   -2.1391   28.5335 C.3     1  UNL1        0.1186
     11 N         -31.4538   -0.9472   28.0233 N.am    1  UNL1       -0.1881
     12 C         -30.3289   -0.3568   28.5749 C.2     1  UNL1        0.3270
     13 O         -29.4752    0.1776   27.8293 O.2     1  UNL1       -0.2504
     14 N         -28.3777   -0.1478   27.7578 N.pl3   1  UNL1       -0.2345
     15 C         -27.4916    0.0926   26.6503 C.3     1  UNL1        0.1355
@<TRIPOS>BOND
     1     2     7    1
     2     7     8    1
     3     9    10    1
     4     7    12   am
     5    11    12   am
     6    12    13    2
     7     1    14    1
     8    14    15    1
     9     8     9    1
    10    10    11    1
    11     1     2   ar
    12     2     5   ar
    13     5     6   ar
    14     6     4   ar
    15     4     3   ar
    16     3     1   ar
