@<TRIPOS>MOLECULE
No_323-gen_results/8p0m/2024-11-27-11-27-31/
 28 31 0 0 0
SMALL
GASTEIGER

@<TRIPOS>ATOM
      1 C         -28.0162   -0.8135   28.8779 C.ar    1  UNL1        0.0136
      2 C         -27.0636   -0.1190   28.6079 C.ar    1  UNL1        0.0283
      3 C         -25.7647   -0.3897   29.0360 C.ar    1  UNL1        0.1401
      4 C         -25.5296   -1.5302   29.9014 C.ar    1  UNL1        0.0305
      5 C         -26.6888   -2.2893   30.1810 C.ar    1  UNL1        0.0137
      6 C         -27.8727   -1.9508   29.7373 C.ar    1  UNL1        0.0578
      7 F         -24.6993    0.3604   28.7753 F       1  UNL1       -0.2042
      8 CL        -29.2297   -2.9278   30.1916 Cl      1  UNL1       -0.0822
      9 C         -26.9131    1.1273   27.6821 C.ar    1  UNL1        0.0019
     10 C         -26.3087    1.1408   26.5913 C.ar    1  UNL1        0.0001
     11 C         -27.8465    2.1918   27.9871 C.ar    1  UNL1       -0.0036
     12 C         -26.2670    1.9839   25.6023 C.ar    1  UNL1       -0.0003
     13 C         -27.8871    3.2456   27.0502 C.ar    1  UNL1       -0.0143
     14 C         -27.1160    3.1929   25.8769 C.ar    1  UNL1       -0.0036
     15 C         -28.6924    4.4593   27.2729 C.3     1  UNL1        0.0663
     16 C         -29.7339    4.6411   26.5684 C.ar    1  UNL1       -0.0143
     17 C         -30.4720    5.7995   26.6668 C.ar    1  UNL1       -0.0036
     18 C         -31.6314    6.1040   25.8931 C.ar    1  UNL1       -0.0003
     19 C         -32.1504    5.0389   25.1490 C.ar    1  UNL1       -0.0000
     20 C         -31.4632    3.8593   24.9759 C.ar    1  UNL1       -0.0003
     21 C         -30.3087    3.6984   25.7012 C.ar    1  UNL1       -0.0036
     22 C         -28.2197    5.3120   28.3370 C.ar    1  UNL1       -0.0183
     23 C         -27.1362    5.1005   29.1118 C.ar    1  UNL1       -0.0039
     24 C         -26.6491    6.0702   29.8823 C.ar    1  UNL1       -0.0003
     25 C         -27.2600    7.2717   30.0296 C.ar    1  UNL1       -0.0003
     26 C         -28.3797    7.5471   29.2619 C.ar    1  UNL1       -0.0045
     27 C         -28.8293    6.5876   28.3695 C.ar    1  UNL1       -0.0252
     28 C         -30.0026    6.8183   27.5478 C.3     1  UNL1        0.0307
@<TRIPOS>BOND
     1     3     7    1
     2     6     8    1
     3     2     9    1
     4    13    15    1
     5    15    16    1
     6    15    22    1
     7    27    28    1
     8     1     2   ar
     9     2     3   ar
    10     3     4   ar
    11     4     5   ar
    12     5     6   ar
    13     6     1   ar
    14    22    23   ar
    15    23    24   ar
    16    24    25   ar
    17    25    26   ar
    18    26    27   ar
    19    27    22   ar
    20     9    10   ar
    21    10    12   ar
    22    12    14   ar
    23    14    13   ar
    24    13    11   ar
    25    11     9   ar
    26    16    17   ar
    27    17    18   ar
    28    18    19   ar
    29    19    20   ar
    30    20    21   ar
    31    21    16   ar
