@<TRIPOS>MOLECULE
outputs/IAG933/test6/raw/output_3231_IAG933_linker_design_.xyz
 44 48 0 0 0
SMALL
GASTEIGER

@<TRIPOS>ATOM
      1 C         -24.8550   -1.0120   30.1430 C.3     1  UNL1        0.0984
      2 C         -24.9730   -2.5050   29.7880 C.2     1  UNL1       -0.0064
      3 C         -23.9060   -3.1730   29.1460 C.2     1  UNL1       -0.0029
      4 C         -23.9890   -4.5490   28.8530 C.2     1  UNL1       -0.0003
      5 C         -25.1370   -5.2800   29.2050 C.2     1  UNL1       -0.0000
      6 C         -26.2320   -4.6110   29.7840 C.2     1  UNL1       -0.0003
      7 C         -26.1550   -3.2320   30.0650 C.2     1  UNL1       -0.0029
      8 C         -25.3870   -0.6790   31.5710 C.3     1  UNL1        0.0916
      9 C         -25.1890    0.7730   32.0280 C.3     1  UNL1        0.0206
     10 C         -25.3360    0.6840   33.5440 C.3     1  UNL1        0.0203
     11 C         -24.8290   -0.7150   33.9050 C.3     1  UNL1        0.0888
     12 N         -24.7580   -1.4810   32.6460 N.3     1  UNL1       -0.2178
     13 C         -25.6880    1.6140   26.4610 C.3     1  UNL1        0.1313
     14 C         -26.2500    2.9200   26.3950 C.2     1  UNL1        0.0697
     15 C         -25.6420    4.0930   27.1230 C.2     1  UNL1        0.2637
     16 N         -25.6140    5.2520   26.4490 N.am    1  UNL1       -0.2000
     17 C         -25.0260    6.4790   26.9630 C.3     1  UNL1        0.1388
     18 O         -25.1430    3.9660   28.2430 O.2     1  UNL1       -0.2686
     19 C         -27.4380    3.0910   25.6450 C.2     1  UNL1        0.1035
     20 N         -28.0750    2.0890   25.0030 N.2     1  UNL1       -0.2118
     21 C         -27.5430    0.8490   25.0790 C.2     1  UNL1        0.2355
     22 O         -28.1930   -0.2080   24.4770 O.2     1  UNL1       -0.4585
     23 C         -29.4600    0.0050   23.8660 C.3     1  UNL1        0.2423
     24 C         -30.0650   -1.3770   23.5730 C.3     1  UNL1        0.2292
     25 O         -30.7290   -1.8780   24.7210 O.3     1  UNL1       -0.2162
     26 C         -26.3540    0.5760   25.7770 C.3     1  UNL1        0.2547
     27 F         -25.8600   -0.6810   25.7950 F       1  UNL1       -0.2254
     28 C         -28.4086    0.1078   29.1660 C.3     1  UNL1        0.1679
     29 N         -24.6463    0.0142   29.2156 N.3     1  UNL1       -0.2434
     30 O         -29.8199   -0.1454   27.1870 O.co2   1  UNL1       -0.2452
     31 N         -26.5543    1.6022   29.2996 N.am    1  UNL1       -0.1786
     32 C         -25.8657    0.4900   28.6419 C.3     1  UNL1        0.1780
     33 C         -29.0777    0.0050   30.6377 C.3     1  UNL1        0.0208
     34 CL        -22.9850    2.4308   25.9084 Cl      1  UNL1       -0.0969
     35 C         -23.4004    1.6140   27.3312 C.3     1  UNL1        0.1423
     36 C         -23.1547    0.1862   29.1693 C.3     1  UNL1        0.0776
     37 O         -28.6479    2.5148   29.2791 O.2     1  UNL1       -0.2727
     38 C         -27.9162    1.5377   29.2677 C.2     1  UNL1        0.2531
     39 N         -24.8514    1.2613   27.4791 N.3     1  UNL1       -0.2294
     40 C         -22.4218    0.7341   27.8956 C.3     1  UNL1        0.0464
     41 C         -21.0813    0.9841   27.5598 C.3     1  UNL1        0.0041
     42 C         -29.6211   -0.5181   28.3621 C.2     1  UNL1        0.3722
     43 C         -27.1172   -0.5934   28.6054 C.3     1  UNL1        0.0714
     44 O         -30.4974   -1.4195   28.8749 O.co2   1  UNL1       -0.2452
@<TRIPOS>BOND
     1     1     2    1
     2     2     7    1
     3     3     2    2
     4     4     3    1
     5     4     5    2
     6     5     6    1
     7     6     7    2
     8     8     1    1
     9     8     9    1
    10     8    12    1
    11     9    10    1
    12    10    11    1
    13    12    11    1
    14    13    14    1
    15    14    15    1
    16    15    18    2
    17    16    17    1
    18    16    15    1
    19    19    14    2
    20    20    21    2
    21    20    19    1
    22    21    26    1
    23    22    21    1
    24    23    22    1
    25    24    23    1
    26    24    25    1
    27    26    27    1
    28    26    13    1
    29    28    38    1
    30    28    33    1
    31    29     1    1
    32    30    42   ar
    33    32    43    1
    34    32    29    1
    35    32    31    1
    36    35    34    1
    37    35    39    1
    38    35    40    1
    39    36    29    1
    40    38    37    2
    41    38    31    1
    42    39    13    1
    43    39    32    1
    44    40    41    1
    45    40    36    1
    46    42    44   ar
    47    42    28    1
    48    43    28    1
