@<TRIPOS>MOLECULE
No_3237-gen_results/8p0m/2024-11-27-11-27-31/
 16 17 0 0 0
SMALL
GASTEIGER

@<TRIPOS>ATOM
      1 CL        -28.1493   -0.8198   28.9079 Cl      1  UNL1       -0.0791
      2 C         -27.8339    0.4961   29.0598 C.ar    1  UNL1        0.0921
      3 C         -27.5135    1.2383   28.0485 C.ar    1  UNL1        0.1558
      4 C         -27.0548    2.6251   28.1330 C.ar    1  UNL1        0.0355
      5 C         -26.9438    3.1838   29.4305 C.ar    1  UNL1        0.0038
      6 C         -27.2205    2.3582   30.5116 C.ar    1  UNL1        0.0011
      7 C         -27.5987    1.0586   30.3700 C.ar    1  UNL1        0.0145
      8 C         -26.4856    4.5602   29.5942 C.ar    1  UNL1        0.0115
      9 C         -25.8716    5.1677   28.6239 C.ar    1  UNL1        0.0577
     10 C         -25.9314    4.5685   27.2481 C.ar    1  UNL1        0.0115
     11 C         -26.4004    3.3412   27.0948 C.ar    1  UNL1        0.0039
     12 CL        -25.2780    6.8174   28.6827 Cl      1  UNL1       -0.0822
     13 O         -27.5444    0.7864   26.8030 O.3     1  UNL1       -0.4499
     14 C         -28.5981    0.8121   25.9695 C.2     1  UNL1        0.1750
     15 C         -29.7005    0.7045   26.3637 C.2     1  UNL1        0.0148
     16 C         -30.6127    0.8973   25.9344 C.3     1  UNL1        0.0341
@<TRIPOS>BOND
     1     1     2    1
     2     9    12    1
     3     3    13    1
     4    13    14    1
     5    14    15    2
     6    15    16    1
     7     2     3   ar
     8     3     4   ar
     9     5     6   ar
    10     6     7   ar
    11     7     2   ar
    12     4     5   ar
    13     5     8   ar
    14     8     9   ar
    15     9    10   ar
    16    10    11   ar
    17    11     4   ar
