@<TRIPOS>MOLECULE
No_3239-gen_results/8p0m/2024-11-27-11-27-31/
 12 12 0 0 0
SMALL
GASTEIGER

@<TRIPOS>ATOM
      1 C         -28.0162   -0.8135   28.8779 C.3     1  UNL1        0.1386
      2 C         -27.0636   -0.1190   28.6079 C.ar    1  UNL1       -0.0007
      3 C         -25.7923   -0.4302   29.0761 C.ar    1  UNL1       -0.0025
      4 C         -24.5456    0.3494   28.8225 C.ar    1  UNL1        0.0013
      5 C         -24.6586    1.4196   27.8878 C.ar    1  UNL1        0.0209
      6 C         -25.9471    1.6811   27.3792 C.ar    1  UNL1        0.0013
      7 C         -27.0439    0.9739   27.6871 C.ar    1  UNL1       -0.0025
      8 N         -28.6643   -0.5274   30.1017 N.pl3   1  UNL1       -0.2315
      9 C         -29.6153   -1.2473   30.6541 C.2     1  UNL1        0.0805
     10 C         -30.1339   -2.2836   30.0191 C.2     1  UNL1        0.0188
     11 C         -23.4511    2.1513   27.6039 C.2     1  UNL1        0.1221
     12 N         -22.2532    1.7402   28.1075 N.2     1  UNL1       -0.1464
@<TRIPOS>BOND
     1     1     2    1
     2     1     8    1
     3     8     9    1
     4     9    10    2
     5     5    11    1
     6    11    12    2
     7     2     3   ar
     8     3     4   ar
     9     4     5   ar
    10     5     6   ar
    11     6     7   ar
    12     7     2   ar
