@<TRIPOS>MOLECULE
outputs/IAG933/test6/raw/output_324_IAG933_linker_design_.xyz
 43 47 0 0 0
SMALL
GASTEIGER

@<TRIPOS>ATOM
      1 C         -24.8550   -1.0120   30.1430 C.3     1  UNL1        0.0782
      2 C         -24.9730   -2.5050   29.7880 C.2     1  UNL1       -0.0155
      3 C         -23.9060   -3.1730   29.1460 C.2     1  UNL1       -0.0039
      4 C         -23.9890   -4.5490   28.8530 C.2     1  UNL1       -0.0003
      5 C         -25.1370   -5.2800   29.2050 C.2     1  UNL1       -0.0000
      6 C         -26.2320   -4.6110   29.7840 C.2     1  UNL1       -0.0003
      7 C         -26.1550   -3.2320   30.0650 C.2     1  UNL1       -0.0039
      8 C         -25.3870   -0.6790   31.5710 C.3     1  UNL1        0.0824
      9 C         -25.1890    0.7730   32.0280 C.3     1  UNL1        0.0196
     10 C         -25.3360    0.6840   33.5440 C.3     1  UNL1        0.0203
     11 C         -24.8290   -0.7150   33.9050 C.3     1  UNL1        0.0887
     12 N         -24.7580   -1.4810   32.6460 N.3     1  UNL1       -0.2187
     13 C         -25.6880    1.6140   26.4610 C.2     1  UNL1        0.0388
     14 C         -26.2500    2.9200   26.3950 C.2     1  UNL1        0.0766
     15 C         -25.6420    4.0930   27.1230 C.2     1  UNL1        0.2664
     16 N         -25.6140    5.2520   26.4490 N.am    1  UNL1       -0.1997
     17 C         -25.0260    6.4790   26.9630 C.3     1  UNL1        0.1388
     18 O         -25.1430    3.9660   28.2430 O.2     1  UNL1       -0.2683
     19 C         -27.4380    3.0910   25.6450 C.2     1  UNL1        0.1067
     20 N         -28.0750    2.0890   25.0030 N.2     1  UNL1       -0.2081
     21 C         -27.5430    0.8490   25.0790 C.2     1  UNL1        0.2533
     22 O         -28.1930   -0.2080   24.4770 O.2     1  UNL1       -0.4558
     23 C         -29.4600    0.0050   23.8660 C.3     1  UNL1        0.2426
     24 C         -30.0650   -1.3770   23.5730 C.3     1  UNL1        0.2292
     25 O         -30.7290   -1.8780   24.7210 O.3     1  UNL1       -0.2162
     26 C         -26.3540    0.5760   25.7770 C.2     1  UNL1        0.1931
     27 F         -25.8600   -0.6810   25.7950 F       1  UNL1       -0.1992
     28 C         -28.4695    3.2177   30.1216 C.2     1  UNL1        0.0055
     29 CL        -22.8031    2.1518   25.5469 Cl      1  UNL1       -0.0783
     30 C         -25.3209    0.3949   28.2919 C.ar    1  UNL1       -0.0028
     31 C         -23.4346    1.3512   27.0058 C.ar    1  UNL1        0.1032
     32 C         -27.9708    1.1506   28.9116 C.2     1  UNL1       -0.0177
     33 C         -29.7406    3.1108   29.6390 C.2     1  UNL1        0.0300
     34 C         -24.3449   -0.0681   29.1156 C.ar    1  UNL1        0.0628
     35 I         -31.1023    4.6264   30.4657 I       1  UNL1       -0.0425
     36 C         -29.3135    1.1562   28.4193 C.2     1  UNL1       -0.0035
     37 N         -22.9818    0.2628   28.9576 N.ar    1  UNL1       -0.2216
     38 C         -30.1712    2.1668   28.8190 C.2     1  UNL1        0.0055
     39 C         -24.7897    1.1369   27.2380 C.ar    1  UNL1        0.0143
     40 F         -21.4200    1.4702   27.8286 F       1  UNL1       -0.1823
     41 C         -27.6096    2.1724   29.7782 C.2     1  UNL1       -0.0035
     42 C         -26.8751    0.1193   28.5358 C.3     1  UNL1        0.0538
     43 C         -22.5708    1.0306   27.8968 C.ar    1  UNL1        0.2325
@<TRIPOS>BOND
     1     1    34    1
     2     2     7    1
     3     2     1    1
     4     3     2    2
     5     4     3    1
     6     4     5    2
     7     5     6    1
     8     6     7    2
     9     8     1    1
    10     8     9    1
    11     8    12    1
    12     9    10    1
    13    10    11    1
    14    12    11    1
    15    13    39    1
    16    14    13    1
    17    14    15    1
    18    15    18    2
    19    16    17    1
    20    16    15    1
    21    19    14    2
    22    20    21    2
    23    20    19    1
    24    21    26    1
    25    22    21    1
    26    23    22    1
    27    24    23    1
    28    24    25    1
    29    26    27    1
    30    26    13    2
    31    29    31    1
    32    30    42    1
    33    30    34   ar
    34    31    39   ar
    35    31    43   ar
    36    32    41    2
    37    33    28    2
    38    33    35    1
    39    36    38    2
    40    36    32    1
    41    37    34   ar
    42    38    33    1
    43    39    30   ar
    44    40    43    1
    45    41    28    1
    46    42    32    1
    47    43    37   ar
