@<TRIPOS>MOLECULE
outputs/IAG933/test6/raw/output_3240_IAG933_linker_design_.xyz
 41 44 0 0 0
SMALL
GASTEIGER

@<TRIPOS>ATOM
      1 C         -24.8550   -1.0120   30.1430 C.3     1  UNL1        0.0625
      2 C         -24.9730   -2.5050   29.7880 C.2     1  UNL1       -0.0191
      3 C         -23.9060   -3.1730   29.1460 C.2     1  UNL1       -0.0042
      4 C         -23.9890   -4.5490   28.8530 C.2     1  UNL1       -0.0003
      5 C         -25.1370   -5.2800   29.2050 C.2     1  UNL1       -0.0000
      6 C         -26.2320   -4.6110   29.7840 C.2     1  UNL1       -0.0003
      7 C         -26.1550   -3.2320   30.0650 C.2     1  UNL1       -0.0042
      8 C         -25.3870   -0.6790   31.5710 C.3     1  UNL1        0.0788
      9 C         -25.1890    0.7730   32.0280 C.3     1  UNL1        0.0193
     10 C         -25.3360    0.6840   33.5440 C.3     1  UNL1        0.0202
     11 C         -24.8290   -0.7150   33.9050 C.3     1  UNL1        0.0887
     12 N         -24.7580   -1.4810   32.6460 N.3     1  UNL1       -0.2191
     13 C         -25.6880    1.6140   26.4610 C.2     1  UNL1        0.0386
     14 C         -26.2500    2.9200   26.3950 C.2     1  UNL1        0.0766
     15 C         -25.6420    4.0930   27.1230 C.2     1  UNL1        0.2664
     16 N         -25.6140    5.2520   26.4490 N.am    1  UNL1       -0.1997
     17 C         -25.0260    6.4790   26.9630 C.3     1  UNL1        0.1388
     18 O         -25.1430    3.9660   28.2430 O.2     1  UNL1       -0.2683
     19 C         -27.4380    3.0910   25.6450 C.2     1  UNL1        0.1067
     20 N         -28.0750    2.0890   25.0030 N.2     1  UNL1       -0.2081
     21 C         -27.5430    0.8490   25.0790 C.2     1  UNL1        0.2533
     22 O         -28.1930   -0.2080   24.4770 O.2     1  UNL1       -0.4558
     23 C         -29.4600    0.0050   23.8660 C.3     1  UNL1        0.2426
     24 C         -30.0650   -1.3770   23.5730 C.3     1  UNL1        0.2292
     25 O         -30.7290   -1.8780   24.7210 O.3     1  UNL1       -0.2162
     26 C         -26.3540    0.5760   25.7770 C.2     1  UNL1        0.1931
     27 F         -25.8600   -0.6810   25.7950 F       1  UNL1       -0.1992
     28 C         -21.6988    1.1768   28.4566 C.2     1  UNL1        0.0006
     29 C         -24.3172    1.3686   27.1720 C.2     1  UNL1        0.0107
     30 C         -25.3001   -0.0020   29.0414 C.3     1  UNL1        0.1229
     31 C         -22.8677    0.5927   29.0522 C.2     1  UNL1       -0.0026
     32 C         -27.2012    3.1800   30.7222 C.3     1  UNL1        0.1748
     33 N         -26.4375    0.9513   29.3011 N.am    1  UNL1       -0.2002
     34 C         -21.8156    1.7649   27.1643 C.2     1  UNL1        0.0114
     35 C         -24.1265    0.6709   28.4052 C.2     1  UNL1       -0.0013
     36 O         -28.4349    2.4028   30.6107 O.3     1  UNL1       -0.3417
     37 C         -23.0859    1.8011   26.5370 C.2     1  UNL1        0.0575
     38 CL        -23.1260    2.1499   24.8964 Cl      1  UNL1       -0.0823
     39 O         -27.9226   -0.5111   28.7008 O.2     1  UNL1       -0.2706
     40 C         -27.6750    0.6155   29.1447 C.2     1  UNL1        0.2718
     41 C         -28.6430    1.5856   29.4743 C.3     1  UNL1        0.2288
@<TRIPOS>BOND
     1     1    30    1
     2     2     7    1
     3     2     1    1
     4     3     2    2
     5     4     3    1
     6     4     5    2
     7     5     6    1
     8     6     7    2
     9     8     1    1
    10     8     9    1
    11     8    12    1
    12     9    10    1
    13    10    11    1
    14    12    11    1
    15    13    29    1
    16    14    13    1
    17    14    15    1
    18    15    18    2
    19    16    17    1
    20    16    15    1
    21    19    14    2
    22    20    21    2
    23    20    19    1
    24    21    26    1
    25    22    21    1
    26    23    22    1
    27    24    23    1
    28    24    25    1
    29    26    27    1
    30    26    13    2
    31    28    31    1
    32    29    35    1
    33    30    33    1
    34    34    28    2
    35    35    30    1
    36    35    31    2
    37    36    32    1
    38    37    34    1
    39    37    29    2
    40    38    37    1
    41    39    40    2
    42    40    33    1
    43    40    41    1
    44    41    36    1
