@<TRIPOS>MOLECULE
outputs/IAG933/test6/raw/output_3242_IAG933_linker_design_.xyz
 45 49 0 0 0
SMALL
GASTEIGER

@<TRIPOS>ATOM
      1 C         -24.8550   -1.0120   30.1430 C.3     1  UNL1        0.1984
      2 C         -24.9730   -2.5050   29.7880 C.2     1  UNL1        0.0213
      3 C         -23.9060   -3.1730   29.1460 C.2     1  UNL1       -0.0004
      4 C         -23.9890   -4.5490   28.8530 C.2     1  UNL1       -0.0002
      5 C         -25.1370   -5.2800   29.2050 C.2     1  UNL1       -0.0000
      6 C         -26.2320   -4.6110   29.7840 C.2     1  UNL1       -0.0002
      7 C         -26.1550   -3.2320   30.0650 C.2     1  UNL1       -0.0004
      8 C         -25.3870   -0.6790   31.5710 C.3     1  UNL1        0.1197
      9 C         -25.1890    0.7730   32.0280 C.3     1  UNL1        0.0233
     10 C         -25.3360    0.6840   33.5440 C.3     1  UNL1        0.0204
     11 C         -24.8290   -0.7150   33.9050 C.3     1  UNL1        0.0889
     12 N         -24.7580   -1.4810   32.6460 N.3     1  UNL1       -0.2150
     13 C         -25.6880    1.6140   26.4610 C.2     1  UNL1        0.0461
     14 C         -26.2500    2.9200   26.3950 C.2     1  UNL1        0.0768
     15 C         -25.6420    4.0930   27.1230 C.2     1  UNL1        0.2664
     16 N         -25.6140    5.2520   26.4490 N.am    1  UNL1       -0.1997
     17 C         -25.0260    6.4790   26.9630 C.3     1  UNL1        0.1388
     18 O         -25.1430    3.9660   28.2430 O.2     1  UNL1       -0.2683
     19 C         -27.4380    3.0910   25.6450 C.2     1  UNL1        0.1067
     20 N         -28.0750    2.0890   25.0030 N.2     1  UNL1       -0.2081
     21 C         -27.5430    0.8490   25.0790 C.2     1  UNL1        0.2533
     22 O         -28.1930   -0.2080   24.4770 O.2     1  UNL1       -0.4558
     23 C         -29.4600    0.0050   23.8660 C.3     1  UNL1        0.2426
     24 C         -30.0650   -1.3770   23.5730 C.3     1  UNL1        0.2292
     25 O         -30.7290   -1.8780   24.7210 O.3     1  UNL1       -0.2162
     26 C         -26.3540    0.5760   25.7770 C.2     1  UNL1        0.1933
     27 F         -25.8600   -0.6810   25.7950 F       1  UNL1       -0.1992
     28 C         -22.0500    1.5044   27.5019 C.2     1  UNL1        0.1973
     29 C         -22.0845    0.6870   28.5637 C.2     1  UNL1        0.2659
     30 C         -23.1750    1.6093   26.7212 C.2     1  UNL1        0.0961
     31 C         -27.9777   -0.3591   29.4956 C.3     1  UNL1        0.0628
     32 C         -24.4097    1.2171   27.2240 C.2     1  UNL1        0.0976
     33 C         -28.2409    0.9893   30.2150 C.3     1  UNL1        0.0762
     34 N         -23.1942    0.0605   28.9708 N.2     1  UNL1       -0.0338
     35 N         -25.3723   -0.2219   29.0971 N.pl3   1  UNL1       -0.1890
     36 F         -20.9134    2.2634   27.2675 F       1  UNL1       -0.1992
     37 C         -29.2646    3.2762   30.2442 C.3     1  UNL1        0.0721
     38 C         -26.7051   -0.4744   28.6336 C.3     1  UNL1        0.2038
     39 C         -29.1597    1.8548   28.1543 C.3     1  UNL1        0.0721
     40 C         -29.7341    0.5089   27.7511 C.3     1  UNL1        0.0175
     41 N         -29.3719    2.0365   29.5292 N.3     1  UNL1       -0.2725
     42 C         -27.8830    3.9538   30.3626 C.3     1  UNL1        0.0188
     43 CL        -22.8530    2.1661   25.0778 Cl      1  UNL1       -0.0795
     44 C         -24.4322    0.3645   28.4004 C.2     1  UNL1        0.3252
     45 C         -29.1218   -0.7118   28.4229 C.3     1  UNL1        0.0069
@<TRIPOS>BOND
     1     1    35    1
     2     2     7    1
     3     2     1    1
     4     3     2    2
     5     4     3    1
     6     4     5    2
     7     5     6    1
     8     6     7    2
     9     8     1    1
    10     8     9    1
    11     8    12    1
    12     9    10    1
    13    10    11    1
    14    12    11    1
    15    13    32    1
    16    14    13    1
    17    14    15    1
    18    15    18    2
    19    16    17    1
    20    16    15    1
    21    19    14    2
    22    20    21    2
    23    20    19    1
    24    21    26    1
    25    22    21    1
    26    23    22    1
    27    24    23    1
    28    24    25    1
    29    26    27    1
    30    26    13    2
    31    28    29    1
    32    29    34    2
    33    30    32    1
    34    30    28    2
    35    31    38    1
    36    31    33    1
    37    32    44    2
    38    36    28    1
    39    37    42    1
    40    38    35    1
    41    39    41    1
    42    40    39    1
    43    40    45    1
    44    41    33    1
    45    41    37    1
    46    43    30    1
    47    44    34    1
    48    44    35    1
    49    45    31    1
