@<TRIPOS>MOLECULE
outputs/IAG933/test6/raw/output_3243_IAG933_linker_design_.xyz
 45 49 0 0 0
SMALL
GASTEIGER

@<TRIPOS>ATOM
      1 C         -24.8550   -1.0120   30.1430 C.3     1  UNL1        0.0815
      2 C         -24.9730   -2.5050   29.7880 C.2     1  UNL1       -0.0154
      3 C         -23.9060   -3.1730   29.1460 C.2     1  UNL1       -0.0039
      4 C         -23.9890   -4.5490   28.8530 C.2     1  UNL1       -0.0003
      5 C         -25.1370   -5.2800   29.2050 C.2     1  UNL1       -0.0000
      6 C         -26.2320   -4.6110   29.7840 C.2     1  UNL1       -0.0003
      7 C         -26.1550   -3.2320   30.0650 C.2     1  UNL1       -0.0039
      8 C         -25.3870   -0.6790   31.5710 C.3     1  UNL1        0.0825
      9 C         -25.1890    0.7730   32.0280 C.3     1  UNL1        0.0196
     10 C         -25.3360    0.6840   33.5440 C.3     1  UNL1        0.0203
     11 C         -24.8290   -0.7150   33.9050 C.3     1  UNL1        0.0887
     12 N         -24.7580   -1.4810   32.6460 N.3     1  UNL1       -0.2187
     13 C         -25.6880    1.6140   26.4610 C.3     1  UNL1        0.0963
     14 C         -26.2500    2.9200   26.3950 C.2     1  UNL1        0.0590
     15 C         -25.6420    4.0930   27.1230 C.2     1  UNL1        0.2628
     16 N         -25.6140    5.2520   26.4490 N.am    1  UNL1       -0.2000
     17 C         -25.0260    6.4790   26.9630 C.3     1  UNL1        0.1388
     18 O         -25.1430    3.9660   28.2430 O.2     1  UNL1       -0.2686
     19 C         -27.4380    3.0910   25.6450 C.2     1  UNL1        0.1025
     20 N         -28.0750    2.0890   25.0030 N.2     1  UNL1       -0.2118
     21 C         -27.5430    0.8490   25.0790 C.2     1  UNL1        0.2344
     22 O         -28.1930   -0.2080   24.4770 O.2     1  UNL1       -0.4585
     23 C         -29.4600    0.0050   23.8660 C.3     1  UNL1        0.2423
     24 C         -30.0650   -1.3770   23.5730 C.3     1  UNL1        0.2292
     25 O         -30.7290   -1.8780   24.7210 O.3     1  UNL1       -0.2162
     26 C         -26.3540    0.5760   25.7770 C.3     1  UNL1        0.2441
     27 F         -25.8600   -0.6810   25.7950 F       1  UNL1       -0.2265
     28 C         -28.7017    2.2750   29.7428 C.3     1  UNL1        0.0638
     29 F         -21.1571    1.2644   28.0425 F       1  UNL1       -0.1823
     30 C         -30.4916    2.0793   31.7858 C.3     1  UNL1        0.0190
     31 CL        -22.6375    2.1804   25.7271 Cl      1  UNL1       -0.0785
     32 O         -28.7708   -0.9931   28.1185 O.3     1  UNL1       -0.2149
     33 C         -30.2976    0.9191   28.1617 C.3     1  UNL1        0.2596
     34 C         -28.8442    0.4344   28.1027 C.3     1  UNL1        0.2385
     35 C         -24.6813    1.3584   27.4427 C.ar    1  UNL1        0.0344
     36 C         -22.4056    0.9989   28.1256 C.ar    1  UNL1        0.2324
     37 C         -23.3259    1.4969   27.1733 C.ar    1  UNL1        0.1028
     38 C         -28.0521    0.9624   29.2881 C.3     1  UNL1        0.2015
     39 N         -22.9240    0.1877   29.1224 N.ar    1  UNL1       -0.2183
     40 O         -26.6092    1.1742   28.9599 O.3     1  UNL1       -0.4754
     41 O         -31.1127    0.0168   27.3727 O.3     1  UNL1       -0.2007
     42 C         -24.3111    0.0101   29.3231 C.ar    1  UNL1        0.0999
     43 C         -25.2193    0.9215   28.6352 C.ar    1  UNL1        0.1496
     44 N         -30.5278    0.7418   29.5579 N.3     1  UNL1       -0.1883
     45 C         -30.1048    1.9266   30.2644 C.3     1  UNL1        0.0791
@<TRIPOS>BOND
     1     1    42    1
     2     2     7    1
     3     2     1    1
     4     3     2    2
     5     4     3    1
     6     4     5    2
     7     5     6    1
     8     6     7    2
     9     8     1    1
    10     8     9    1
    11     8    12    1
    12     9    10    1
    13    10    11    1
    14    12    11    1
    15    13    35    1
    16    14    13    1
    17    14    15    1
    18    15    18    2
    19    16    17    1
    20    16    15    1
    21    19    14    2
    22    20    21    2
    23    20    19    1
    24    21    26    1
    25    22    21    1
    26    23    22    1
    27    24    23    1
    28    24    25    1
    29    26    27    1
    30    26    13    1
    31    28    45    1
    32    29    36    1
    33    31    37    1
    34    33    41    1
    35    33    44    1
    36    34    32    1
    37    34    33    1
    38    34    38    1
    39    35    43   ar
    40    36    39   ar
    41    37    35   ar
    42    37    36   ar
    43    38    40    1
    44    38    28    1
    45    39    42   ar
    46    43    40    1
    47    43    42   ar
    48    44    45    1
    49    45    30    1
