@<TRIPOS>MOLECULE
No_3248-gen_results/8p0m/2024-11-27-11-27-31/
 18 19 0 0 0
SMALL
GASTEIGER

@<TRIPOS>ATOM
      1 C         -28.0162   -0.8135   28.8779 C.ar    1  UNL1        0.0045
      2 C         -28.4690   -0.7850   29.8287 C.ar    1  UNL1        0.0001
      3 C         -27.1356    0.2359   28.5352 C.ar    1  UNL1        0.0536
      4 C         -26.8745    1.2825   29.3982 C.ar    1  UNL1        0.0045
      5 C         -27.5070    1.2380   30.6295 C.ar    1  UNL1        0.0001
      6 C         -28.3293    0.1745   30.9350 C.ar    1  UNL1        0.0000
      7 C         -26.4077    0.3070   27.2259 C.2     1  UNL1        0.2491
      8 N         -25.7649    1.3939   26.9085 N.am    1  UNL1       -0.2740
      9 C         -24.4695    1.3137   26.4565 C.3     1  UNL1        0.0984
     10 C         -23.4014    1.7606   27.2397 C.3     1  UNL1        0.0478
     11 C         -22.6053    1.2636   27.7805 C.ar    1  UNL1       -0.0205
     12 C         -21.3285    1.9247   28.4004 C.ar    1  UNL1       -0.0042
     13 C         -22.8267   -0.0792   28.3837 C.ar    1  UNL1       -0.0042
     14 C         -26.4816    2.5877   26.7488 C.3     1  UNL1        0.1152
     15 O         -26.4327   -0.6924   26.4527 O.2     1  UNL1       -0.2699
     16 C         -21.8698   -0.6748   29.2921 C.ar    1  UNL1       -0.0003
     17 C         -20.2732    1.0478   28.3644 C.ar    1  UNL1       -0.0003
     18 C         -20.5658   -0.2363   29.1483 C.ar    1  UNL1       -0.0000
@<TRIPOS>BOND
     1     3     7    1
     2     7     8   am
     3     8     9    1
     4     9    10    1
     5     8    14    1
     6     7    15    2
     7    10    11    1
     8     1     2   ar
     9     2     6   ar
    10     6     5   ar
    11     5     4   ar
    12     4     3   ar
    13     3     1   ar
    14    11    12   ar
    15    12    17   ar
    16    17    18   ar
    17    18    16   ar
    18    16    13   ar
    19    13    11   ar
