@<TRIPOS>MOLECULE
No_3252-gen_results/8p0m/2024-11-27-11-27-31/
 23 25 0 0 0
SMALL
GASTEIGER

@<TRIPOS>ATOM
      1 C         -28.0162   -0.8135   28.8779 C.ar    1  UNL1        0.0489
      2 C         -28.4690   -0.7850   29.8287 C.ar    1  UNL1        0.0607
      3 C         -26.5042   -0.7777   28.8766 C.ar    1  UNL1        0.1460
      4 C         -25.8103   -0.8531   30.1028 C.ar    1  UNL1        0.0346
      5 C         -27.9906   -0.8916   31.2257 C.ar    1  UNL1        0.0116
      6 C         -26.6042   -0.8676   31.2652 C.ar    1  UNL1        0.0039
      7 CL        -30.2937   -0.8377   29.8355 Cl      1  UNL1       -0.0821
      8 C         -24.3700   -0.8208   30.1393 C.ar    1  UNL1        0.0030
      9 C         -23.6623   -1.3275   30.7489 C.ar    1  UNL1        0.0001
     10 C         -23.7481    0.1451   29.1412 C.ar    1  UNL1        0.0025
     11 C         -22.3515    0.2299   29.0896 C.ar    1  UNL1        0.0303
     12 C         -22.2252   -1.2929   30.8975 C.ar    1  UNL1        0.0001
     13 C         -21.7292    1.0967   28.0828 C.2     1  UNL1        0.1598
     14 C         -21.5729   -0.5198   29.9860 C.ar    1  UNL1        0.0024
     15 N         -20.6223    1.6323   28.2137 N.2     1  UNL1       -0.1356
     16 CL        -22.7254    1.6383   26.7729 Cl      1  UNL1       -0.0594
     17 O         -25.8512   -0.7115   27.7236 O.3     1  UNL1       -0.4535
     18 C         -26.3067    0.2193   26.6898 C.ar    1  UNL1        0.1453
     19 C         -25.9871   -0.1073   25.3942 C.ar    1  UNL1        0.0375
     20 C         -26.8521    1.4605   26.9874 C.ar    1  UNL1        0.0375
     21 C         -27.1811    2.3028   25.9971 C.ar    1  UNL1        0.0031
     22 C         -26.3317    0.7117   24.3527 C.ar    1  UNL1        0.0031
     23 C         -26.9401    1.9216   24.6596 C.ar    1  UNL1        0.0002
@<TRIPOS>BOND
     1     2     7    1
     2     4     8    1
     3    11    13    1
     4    13    15    2
     5    13    16    1
     6     3    17    1
     7    17    18    1
     8     8     9   ar
     9     9    12   ar
    10    12    14   ar
    11    14    11   ar
    12    11    10   ar
    13    10     8   ar
    14    18    19   ar
    15    19    22   ar
    16    22    23   ar
    17    23    21   ar
    18    21    20   ar
    19    20    18   ar
    20     1     2   ar
    21     2     5   ar
    22     5     6   ar
    23     6     4   ar
    24     4     3   ar
    25     3     1   ar
