@<TRIPOS>MOLECULE
outputs/IAG933/test6/raw/output_3254_IAG933_linker_design_.xyz
 45 49 0 0 0
SMALL
GASTEIGER

@<TRIPOS>ATOM
      1 C         -24.8550   -1.0120   30.1430 C.3     1  UNL1        0.1177
      2 C         -24.9730   -2.5050   29.7880 C.2     1  UNL1       -0.0026
      3 C         -23.9060   -3.1730   29.1460 C.2     1  UNL1       -0.0026
      4 C         -23.9890   -4.5490   28.8530 C.2     1  UNL1       -0.0003
      5 C         -25.1370   -5.2800   29.2050 C.2     1  UNL1       -0.0000
      6 C         -26.2320   -4.6110   29.7840 C.2     1  UNL1       -0.0003
      7 C         -26.1550   -3.2320   30.0650 C.2     1  UNL1       -0.0026
      8 C         -25.3870   -0.6790   31.5710 C.3     1  UNL1        0.0954
      9 C         -25.1890    0.7730   32.0280 C.3     1  UNL1        0.0209
     10 C         -25.3360    0.6840   33.5440 C.3     1  UNL1        0.0203
     11 C         -24.8290   -0.7150   33.9050 C.3     1  UNL1        0.0888
     12 N         -24.7580   -1.4810   32.6460 N.3     1  UNL1       -0.2174
     13 C         -25.6880    1.6140   26.4610 C.2     1  UNL1        0.0282
     14 C         -26.2500    2.9200   26.3950 C.2     1  UNL1        0.0733
     15 C         -25.6420    4.0930   27.1230 C.2     1  UNL1        0.2661
     16 N         -25.6140    5.2520   26.4490 N.am    1  UNL1       -0.1997
     17 C         -25.0260    6.4790   26.9630 C.3     1  UNL1        0.1388
     18 O         -25.1430    3.9660   28.2430 O.2     1  UNL1       -0.2683
     19 C         -27.4380    3.0910   25.6450 C.2     1  UNL1        0.1064
     20 N         -28.0750    2.0890   25.0030 N.2     1  UNL1       -0.2081
     21 C         -27.5430    0.8490   25.0790 C.2     1  UNL1        0.2530
     22 O         -28.1930   -0.2080   24.4770 O.2     1  UNL1       -0.4558
     23 C         -29.4600    0.0050   23.8660 C.3     1  UNL1        0.2426
     24 C         -30.0650   -1.3770   23.5730 C.3     1  UNL1        0.2292
     25 O         -30.7290   -1.8780   24.7210 O.3     1  UNL1       -0.2162
     26 C         -26.3540    0.5760   25.7770 C.2     1  UNL1        0.1899
     27 F         -25.8600   -0.6810   25.7950 F       1  UNL1       -0.1996
     28 N         -25.2033   -0.1274   29.0331 N.am    1  UNL1       -0.2579
     29 C         -27.9144    4.1343   30.1646 C.2     1  UNL1       -0.0043
     30 C         -22.9059    0.3914   28.8725 C.2     1  UNL1        0.0113
     31 C         -29.3007    4.9353   27.8233 C.2     1  UNL1       -0.0003
     32 O         -23.1716    2.7383   25.5812 O.2     1  UNL1       -0.2906
     33 C         -27.9130    5.4652   29.7512 C.2     1  UNL1       -0.0003
     34 C         -23.1421    1.9824   26.5967 C.2     1  UNL1        0.1822
     35 C         -28.5287    3.2040   29.3471 C.2     1  UNL1       -0.0217
     36 C         -21.8776    1.7948   27.2012 C.2     1  UNL1        0.0382
     37 C         -28.5972    5.8577   28.5974 C.2     1  UNL1       -0.0000
     38 C         -28.2104    1.7351   29.6041 C.3     1  UNL1        0.0359
     39 C         -21.7689    0.9949   28.3488 C.2     1  UNL1        0.0039
     40 C         -29.2824    3.6120   28.2209 C.2     1  UNL1       -0.0043
     41 O         -27.4022   -0.6443   28.3340 O.2     1  UNL1       -0.2745
     42 C         -24.2112    0.5419   28.3614 C.2     1  UNL1        0.0427
     43 C         -24.3160    1.3423   27.1692 C.3     1  UNL1        0.1225
     44 C         -26.7397    1.5146   29.3032 C.3     1  UNL1        0.0903
     45 C         -26.5807    0.1176   28.7639 C.2     1  UNL1        0.2297
@<TRIPOS>BOND
     1     1    28    1
     2     2     7    1
     3     2     1    1
     4     3     2    2
     5     4     3    1
     6     4     5    2
     7     5     6    1
     8     6     7    2
     9     8     1    1
    10     8     9    1
    11     8    12    1
    12     9    10    1
    13    10    11    1
    14    12    11    1
    15    14    13    1
    16    14    15    1
    17    15    18    2
    18    16    17    1
    19    16    15    1
    20    19    14    2
    21    20    21    2
    22    20    19    1
    23    21    26    1
    24    22    21    1
    25    23    22    1
    26    24    23    1
    27    24    25    1
    28    26    27    1
    29    26    13    2
    30    31    40    2
    31    31    37    1
    32    32    34    2
    33    33    29    1
    34    34    43    1
    35    34    36    1
    36    35    38    1
    37    35    29    2
    38    36    39    2
    39    37    33    2
    40    39    30    1
    41    40    35    1
    42    41    45    2
    43    42    30    2
    44    42    28    1
    45    43    13    1
    46    43    42    1
    47    44    38    1
    48    45    28   am
    49    45    44    1
