@<TRIPOS>MOLECULE
outputs/IAG933/test6/raw/output_3255_IAG933_linker_design_.xyz
 46 50 0 0 0
SMALL
GASTEIGER

@<TRIPOS>ATOM
      1 C         -24.8550   -1.0120   30.1430 C.3     1  UNL1        0.0602
      2 C         -24.9730   -2.5050   29.7880 C.2     1  UNL1       -0.0171
      3 C         -23.9060   -3.1730   29.1460 C.2     1  UNL1       -0.0039
      4 C         -23.9890   -4.5490   28.8530 C.2     1  UNL1       -0.0003
      5 C         -25.1370   -5.2800   29.2050 C.2     1  UNL1       -0.0000
      6 C         -26.2320   -4.6110   29.7840 C.2     1  UNL1       -0.0003
      7 C         -26.1550   -3.2320   30.0650 C.2     1  UNL1       -0.0039
      8 C         -25.3870   -0.6790   31.5710 C.3     1  UNL1        0.0808
      9 C         -25.1890    0.7730   32.0280 C.3     1  UNL1        0.0195
     10 C         -25.3360    0.6840   33.5440 C.3     1  UNL1        0.0203
     11 C         -24.8290   -0.7150   33.9050 C.3     1  UNL1        0.0887
     12 N         -24.7580   -1.4810   32.6460 N.3     1  UNL1       -0.2188
     13 C         -25.6880    1.6140   26.4610 C.3     1  UNL1        0.0920
     14 C         -26.2500    2.9200   26.3950 C.2     1  UNL1        0.0589
     15 C         -25.6420    4.0930   27.1230 C.2     1  UNL1        0.2628
     16 N         -25.6140    5.2520   26.4490 N.am    1  UNL1       -0.2000
     17 C         -25.0260    6.4790   26.9630 C.3     1  UNL1        0.1388
     18 O         -25.1430    3.9660   28.2430 O.2     1  UNL1       -0.2686
     19 C         -27.4380    3.0910   25.6450 C.2     1  UNL1        0.1025
     20 N         -28.0750    2.0890   25.0030 N.2     1  UNL1       -0.2118
     21 C         -27.5430    0.8490   25.0790 C.2     1  UNL1        0.2344
     22 O         -28.1930   -0.2080   24.4770 O.2     1  UNL1       -0.4585
     23 C         -29.4600    0.0050   23.8660 C.3     1  UNL1        0.2423
     24 C         -30.0650   -1.3770   23.5730 C.3     1  UNL1        0.2292
     25 O         -30.7290   -1.8780   24.7210 O.3     1  UNL1       -0.2162
     26 C         -26.3540    0.5760   25.7770 C.3     1  UNL1        0.2440
     27 F         -25.8600   -0.6810   25.7950 F       1  UNL1       -0.2265
     28 C         -30.3777    3.5198   28.5108 C.3     1  UNL1        0.0453
     29 C         -30.3602   -0.0017   27.4879 C.3     1  UNL1        0.1119
     30 C         -26.8161    0.6707   28.9491 C.3     1  UNL1        0.0274
     31 C         -27.9610    0.8824   28.5675 C.3     1  UNL1        0.0245
     32 F         -21.0218    2.0109   26.8717 F       1  UNL1       -0.2291
     33 C         -25.3239    0.6484   28.5965 C.2     1  UNL1       -0.0293
     34 C         -21.2140    1.1997   27.9508 C.3     1  UNL1        0.2197
     35 C         -23.0973   -0.0740   29.0514 C.2     1  UNL1       -0.0058
     36 C         -24.5196   -0.0249   29.3018 C.2     1  UNL1       -0.0215
     37 O         -27.4351    2.6871   30.4638 O.3     1  UNL1       -0.2204
     38 C         -23.4816    1.1968   27.1833 C.2     1  UNL1       -0.0057
     39 C         -22.6173    0.7651   28.0369 C.2     1  UNL1        0.0123
     40 N         -30.0847    1.3623   27.9195 N.pl3   1  UNL1       -0.3106
     41 C         -31.0759    2.4068   27.8641 C.2     1  UNL1        0.0250
     42 C         -24.7706    1.1868   27.4103 C.2     1  UNL1       -0.0195
     43 C         -32.3575    2.4180   27.4840 C.2     1  UNL1        0.0110
     44 C         -29.2317    1.4634   29.1423 C.3     1  UNL1        0.0758
     45 C         -29.4222    2.9486   29.5363 C.3     1  UNL1        0.0567
     46 C         -28.0467    3.5641   29.6639 C.3     1  UNL1        0.1841
@<TRIPOS>BOND
     1     1    36    1
     2     2     7    1
     3     2     1    1
     4     3     2    2
     5     4     3    1
     6     4     5    2
     7     5     6    1
     8     6     7    2
     9     8     1    1
    10     8     9    1
    11     8    12    1
    12     9    10    1
    13    10    11    1
    14    12    11    1
    15    13    42    1
    16    14    13    1
    17    14    15    1
    18    15    18    2
    19    16    17    1
    20    16    15    1
    21    19    14    2
    22    20    21    2
    23    20    19    1
    24    21    26    1
    25    22    21    1
    26    23    22    1
    27    24    23    1
    28    24    25    1
    29    26    27    1
    30    26    13    1
    31    28    45    1
    32    29    40    1
    33    31    30    1
    34    32    34    1
    35    33    30    1
    36    33    36    1
    37    34    39    1
    38    35    36    2
    39    38    42    1
    40    38    39    2
    41    39    35    1
    42    40    44    1
    43    41    40    1
    44    41    28    1
    45    42    33    2
    46    43    41    2
    47    44    31    1
    48    44    45    1
    49    45    46    1
    50    46    37    1
