@<TRIPOS>MOLECULE
No_3258-gen_results/8p0m/2024-11-27-11-27-31/
 29 32 0 0 0
SMALL
GASTEIGER

@<TRIPOS>ATOM
      1 C         -28.0162   -0.8135   28.8779 C.3     1  UNL1        0.0319
      2 C         -28.4690   -0.7850   29.8287 C.3     1  UNL1        0.0452
      3 C         -27.0871    0.2903   28.6377 C.ar    1  UNL1       -0.0258
      4 C         -26.0238    0.3644   29.2526 C.ar    1  UNL1       -0.0262
      5 C         -27.5370   -0.6187   31.0883 C.3     1  UNL1        0.0109
      6 C         -26.3844    0.1834   30.8012 C.3     1  UNL1        0.0264
      7 C         -29.6227   -1.6698   30.2973 C.ar    1  UNL1        0.0653
      8 N         -29.6070   -2.7948   30.6556 N.ar    1  UNL1       -0.2479
      9 C         -30.9459   -1.0227   30.1532 C.ar    1  UNL1        0.0933
     10 C         -30.6699   -3.6330   30.8271 C.ar    1  UNL1        0.0985
     11 C         -31.0527    0.3244   29.7096 C.2     1  UNL1        0.3889
     12 C         -32.0537   -1.8178   30.4466 C.ar    1  UNL1        0.0094
     13 C         -31.9112   -3.1172   30.8319 C.ar    1  UNL1        0.0209
     14 O         -30.6848    1.2288   30.4136 O.co2   1  UNL1       -0.2405
     15 O         -31.7680    0.5216   28.6313 O.co2   1  UNL1       -0.2405
     16 C         -26.5951    0.4612   27.0709 C.ar    1  UNL1       -0.0043
     17 C         -25.4932    0.9084   26.7647 C.ar    1  UNL1        0.0035
     18 C         -24.4691    1.1940   27.7287 C.ar    1  UNL1        0.0711
     19 C         -24.7442    0.9281   29.0456 C.ar    1  UNL1       -0.0007
     20 C         -23.1050    1.6507   27.3112 C.3     1  UNL1        0.4186
     21 F         -22.9154    2.0389   26.1617 F       1  UNL1       -0.1659
     22 F         -22.7815    2.8447   28.0941 F       1  UNL1       -0.1659
     23 F         -22.1282    0.7736   27.6734 F       1  UNL1       -0.1659
     24 C         -27.6491    0.3310   25.9983 C.ar    1  UNL1       -0.0003
     25 C         -28.8494    1.0454   26.0899 C.ar    1  UNL1       -0.0000
     26 C         -29.2137    1.6425   25.1712 C.ar    1  UNL1       -0.0000
     27 C         -28.9102    1.1458   23.8119 C.ar    1  UNL1       -0.0000
     28 C         -27.3396   -0.0422   24.7396 C.ar    1  UNL1       -0.0000
     29 C         -27.8649    0.3681   23.6883 C.ar    1  UNL1       -0.0000
@<TRIPOS>BOND
     1     1     2    1
     2     1     3    1
     3     2     5    1
     4     4     6    1
     5     5     6    1
     6     2     7    1
     7     9    11    1
     8    11    14   ar
     9    11    15   ar
    10    18    20    1
    11    20    21    1
    12    20    22    1
    13    20    23    1
    14    16    24    1
    15     7     8   ar
    16     8    10   ar
    17    10    13   ar
    18    13    12   ar
    19    12     9   ar
    20     9     7   ar
    21     3     4   ar
    22     4    19   ar
    23    19    18   ar
    24    18    17   ar
    25    17    16   ar
    26    16     3   ar
    27    24    25   ar
    28    25    26   ar
    29    26    27   ar
    30    27    29   ar
    31    29    28   ar
    32    28    24   ar
