@<TRIPOS>MOLECULE
No_3259-gen_results/8p0m/2024-11-27-11-27-31/
 30 33 0 0 0
SMALL
GASTEIGER

@<TRIPOS>ATOM
      1 C         -28.0162   -0.8135   28.8779 C.ar    1  UNL1        0.0514
      2 C         -28.4690   -0.7850   29.8287 C.ar    1  UNL1        0.0961
      3 C         -26.5042   -0.7777   28.8766 C.ar    1  UNL1        0.1400
      4 C         -25.8103   -0.8531   30.1028 C.ar    1  UNL1        0.0369
      5 C         -27.9906   -0.8916   31.2257 C.ar    1  UNL1        0.1684
      6 C         -24.3976   -0.8364   30.1775 C.ar    1  UNL1        0.0025
      7 C         -26.5754   -0.8899   31.2661 C.ar    1  UNL1        0.0424
      8 C         -23.7708   -0.9176   31.0960 C.ar    1  UNL1       -0.0001
      9 C         -23.6556   -0.7144   28.8858 C.ar    1  UNL1        0.0213
     10 C         -22.2519   -0.5749   28.9404 C.ar    1  UNL1       -0.0007
     11 C         -22.2935   -0.7627   31.3088 C.ar    1  UNL1       -0.0000
     12 C         -21.6026   -0.5853   30.0994 C.ar    1  UNL1       -0.0002
     13 CL        -30.3088   -0.7632   29.8352 Cl      1  UNL1       -0.0789
     14 O         -25.8255   -0.7734   27.7508 O.3     1  UNL1       -0.4706
     15 C         -24.5242   -0.6528   27.7255 C.3     1  UNL1        0.2320
     16 O         -28.7400   -0.9135   32.3099 O.3     1  UNL1       -0.4042
     17 C         -29.8382   -0.3733   32.4952 C.1     1  UNL1        0.1205
     18 C         -30.7593   -0.0318   32.9001 C.1     1  UNL1       -0.0136
     19 C         -31.8104    0.5884   33.3369 C.3     1  UNL1        0.2313
     20 F         -32.6659    0.4009   33.8586 F       1  UNL1       -0.2225
     21 C         -31.9393    1.8428   32.4329 C.3     1  UNL1        0.0753
     22 C         -31.0995    2.7497   32.3358 C.ar    1  UNL1       -0.0184
     23 C         -30.7858    3.4909   33.5555 C.ar    1  UNL1       -0.0041
     24 C         -29.6562    4.2691   33.5223 C.ar    1  UNL1       -0.0003
     25 C         -30.4006    3.1905   31.1742 C.ar    1  UNL1       -0.0041
     26 C         -29.3109    4.0974   31.1592 C.ar    1  UNL1       -0.0003
     27 C         -28.9905    4.7370   32.4016 C.ar    1  UNL1       -0.0003
     28 C         -27.8914    5.6835   32.4068 C.2     1  UNL1       -0.0046
     29 C         -27.8494    6.6628   32.9424 C.2     1  UNL1       -0.0258
     30 C         -27.1885    7.6520   33.0101 C.3     1  UNL1        0.0307
@<TRIPOS>BOND
     1     4     6    1
     2     2    13    1
     3     3    14    1
     4     9    15    1
     5    14    15    1
     6     5    16    1
     7    16    17    1
     8    17    18    3
     9    18    19    1
    10    19    20    1
    11    19    21    1
    12    21    22    1
    13    27    28    1
    14    28    29    2
    15    29    30    1
    16     6     8   ar
    17     8    11   ar
    18    11    12   ar
    19    12    10   ar
    20    10     9   ar
    21     9     6   ar
    22    22    23   ar
    23    23    24   ar
    24    24    27   ar
    25    27    26   ar
    26    26    25   ar
    27    25    22   ar
    28     1     2   ar
    29     2     5   ar
    30     5     7   ar
    31     7     4   ar
    32     4     3   ar
    33     3     1   ar
