@<TRIPOS>MOLECULE
outputs/IAG933/test6/raw/output_3260_IAG933_linker_design_.xyz
 42 46 0 0 0
SMALL
GASTEIGER

@<TRIPOS>ATOM
      1 C         -24.8550   -1.0120   30.1430 C.3     1  UNL1        0.1111
      2 C         -24.9730   -2.5050   29.7880 C.2     1  UNL1       -0.0030
      3 C         -23.9060   -3.1730   29.1460 C.2     1  UNL1       -0.0026
      4 C         -23.9890   -4.5490   28.8530 C.2     1  UNL1       -0.0003
      5 C         -25.1370   -5.2800   29.2050 C.2     1  UNL1       -0.0000
      6 C         -26.2320   -4.6110   29.7840 C.2     1  UNL1       -0.0003
      7 C         -26.1550   -3.2320   30.0650 C.2     1  UNL1       -0.0026
      8 C         -25.3870   -0.6790   31.5710 C.3     1  UNL1        0.0950
      9 C         -25.1890    0.7730   32.0280 C.3     1  UNL1        0.0209
     10 C         -25.3360    0.6840   33.5440 C.3     1  UNL1        0.0203
     11 C         -24.8290   -0.7150   33.9050 C.3     1  UNL1        0.0888
     12 N         -24.7580   -1.4810   32.6460 N.3     1  UNL1       -0.2174
     13 C         -25.6880    1.6140   26.4610 C.2     1  UNL1        0.0266
     14 C         -26.2500    2.9200   26.3950 C.2     1  UNL1        0.0731
     15 C         -25.6420    4.0930   27.1230 C.2     1  UNL1        0.2661
     16 N         -25.6140    5.2520   26.4490 N.am    1  UNL1       -0.1997
     17 C         -25.0260    6.4790   26.9630 C.3     1  UNL1        0.1388
     18 O         -25.1430    3.9660   28.2430 O.2     1  UNL1       -0.2683
     19 C         -27.4380    3.0910   25.6450 C.2     1  UNL1        0.1064
     20 N         -28.0750    2.0890   25.0030 N.2     1  UNL1       -0.2081
     21 C         -27.5430    0.8490   25.0790 C.2     1  UNL1        0.2530
     22 O         -28.1930   -0.2080   24.4770 O.2     1  UNL1       -0.4558
     23 C         -29.4600    0.0050   23.8660 C.3     1  UNL1        0.2426
     24 C         -30.0650   -1.3770   23.5730 C.3     1  UNL1        0.2292
     25 O         -30.7290   -1.8780   24.7210 O.3     1  UNL1       -0.2162
     26 C         -26.3540    0.5760   25.7770 C.2     1  UNL1        0.1896
     27 F         -25.8600   -0.6810   25.7950 F       1  UNL1       -0.1996
     28 C         -27.4273   -0.2827   29.0683 C.3     1  UNL1        0.1717
     29 C         -24.1207    0.6544   28.2899 C.2     1  UNL1        0.0647
     30 C         -21.6850    1.0285   27.8735 C.2     1  UNL1        0.1693
     31 C         -21.9660    1.5387   26.7058 C.2     1  UNL1        0.0715
     32 O         -28.2238   -0.8087   28.0513 O.3     1  UNL1       -0.2213
     33 F         -23.2454    1.1953   24.8210 F       1  UNL1       -0.1987
     34 C         -24.3628    1.3446   27.0068 C.3     1  UNL1        0.1282
     35 C         -22.7490    0.4237   28.6510 C.2     1  UNL1        0.1768
     36 C         -27.9321    1.0049   29.4718 C.3     1  UNL1        0.0569
     37 N         -25.1289    0.1147   29.2783 N.pl3   1  UNL1       -0.3042
     38 F         -22.3927   -0.4323   29.6089 F       1  UNL1       -0.2008
     39 F         -20.4923    0.9297   28.1632 F       1  UNL1       -0.2019
     40 F         -23.4395    3.1111   25.6192 F       1  UNL1       -0.1987
     41 C         -26.4073    0.7928   29.3016 C.3     1  UNL1        0.1058
     42 C         -23.2375    1.7957   26.0652 C.3     1  UNL1        0.2932
@<TRIPOS>BOND
     1     1    37    1
     2     2     7    1
     3     2     1    1
     4     3     2    2
     5     4     3    1
     6     4     5    2
     7     5     6    1
     8     6     7    2
     9     8     1    1
    10     8     9    1
    11     8    12    1
    12     9    10    1
    13    10    11    1
    14    12    11    1
    15    14    13    1
    16    14    15    1
    17    15    18    2
    18    16    17    1
    19    16    15    1
    20    19    14    2
    21    20    21    2
    22    20    19    1
    23    21    26    1
    24    22    21    1
    25    23    22    1
    26    24    23    1
    27    24    25    1
    28    26    27    1
    29    26    13    2
    30    28    32    1
    31    28    41    1
    32    28    36    1
    33    29    35    2
    34    29    37    1
    35    30    39    1
    36    30    35    1
    37    31    30    2
    38    33    42    1
    39    34    13    1
    40    34    29    1
    41    35    38    1
    42    40    42    1
    43    41    37    1
    44    41    36    1
    45    42    31    1
    46    42    34    1
