@<TRIPOS>MOLECULE
No_3261-gen_results/8p0m/2024-11-27-11-27-31/
 30 32 0 0 0
SMALL
GASTEIGER

@<TRIPOS>ATOM
      1 C         -28.0162   -0.8135   28.8779 C.3     1  UNL1        0.2457
      2 C         -27.0636   -0.1189   28.6079 C.3     1  UNL1        0.2110
      3 F         -27.0425    0.2440   27.4277 F       1  UNL1       -0.2326
      4 O         -29.2139   -0.2463   28.7638 O.3     1  UNL1       -0.2019
      5 C         -25.7661    0.0705   29.3036 C.3     1  UNL1        0.0655
      6 C         -24.6237    0.4517   28.7167 C.ar    1  UNL1       -0.0229
      7 C         -23.3368    0.4201   29.3057 C.ar    1  UNL1       -0.0216
      8 C         -22.1825    0.8796   28.6509 C.ar    1  UNL1       -0.0042
      9 C         -22.3633    1.5631   27.3841 C.ar    1  UNL1       -0.0003
     10 C         -23.6283    1.7764   26.8781 C.ar    1  UNL1       -0.0003
     11 C         -24.6950    1.2515   27.5009 C.ar    1  UNL1       -0.0045
     12 N         -27.9294   -1.8435   29.8158 N.3     1  UNL1       -0.2428
     13 C         -26.7476   -2.4921   30.1817 C.3     1  UNL1        0.0918
     14 C         -29.1319   -2.5508   30.2742 C.3     1  UNL1        0.0993
     15 C         -29.1232   -2.7983   31.7090 C.3     1  UNL1        0.1486
     16 C         -29.9053   -3.6820   32.2140 C.2     1  UNL1        0.2003
     17 O         -29.9680   -4.7984   31.7854 O.2     1  UNL1       -0.2918
     18 N         -29.3295   -1.3670   32.2192 N.3     1  UNL1       -0.2077
     19 C         -29.4177   -1.2130   33.5059 C.3     1  UNL1        0.1251
     20 C         -30.3279   -2.1826   34.1308 C.3     1  UNL1        0.2066
     21 C         -29.8800   -3.5766   33.8552 C.3     1  UNL1        0.2415
     22 O         -30.7038   -4.5846   34.3594 O.3     1  UNL1       -0.2123
     23 O         -30.1987   -1.9751   35.5940 O.3     1  UNL1       -0.2184
     24 C         -23.0929   -0.3071   30.5290 C.3     1  UNL1        0.0523
     25 C         -23.8781    0.0144   31.6710 C.ar    1  UNL1       -0.0178
     26 C         -24.0391   -0.9134   32.6838 C.ar    1  UNL1       -0.0039
     27 C         -24.3311    1.3566   31.7985 C.ar    1  UNL1       -0.0039
     28 C         -25.1708    1.6690   32.9539 C.ar    1  UNL1       -0.0003
     29 C         -24.8802   -0.5983   33.7731 C.ar    1  UNL1       -0.0003
     30 C         -25.4617    0.7074   33.8764 C.ar    1  UNL1       -0.0000
@<TRIPOS>BOND
     1     1     2    1
     2     2     3    1
     3     1     4    1
     4     2     5    1
     5     1    12    1
     6    12    13    1
     7    12    14    1
     8    14    15    1
     9    15    16    1
    10    16    17    2
    11    15    18    1
    12    18    19    1
    13    19    20    1
    14    16    21    1
    15    20    21    1
    16    21    22    1
    17    20    23    1
    18     7    24    1
    19    24    25    1
    20     5     6    1
    21     6     7   ar
    22     7     8   ar
    23     8     9   ar
    24     9    10   ar
    25    10    11   ar
    26    11     6   ar
    27    25    26   ar
    28    26    29   ar
    29    29    30   ar
    30    30    28   ar
    31    28    27   ar
    32    27    25   ar
