@<TRIPOS>MOLECULE
outputs/IAG933/test6/raw/output_3262_IAG933_linker_design_.xyz
 38 42 0 0 0
SMALL
GASTEIGER

@<TRIPOS>ATOM
      1 C         -24.8550   -1.0120   30.1430 C.3     1  UNL1        0.1482
      2 C         -24.9730   -2.5050   29.7880 C.2     1  UNL1       -0.0095
      3 C         -23.9060   -3.1730   29.1460 C.2     1  UNL1       -0.0037
      4 C         -23.9890   -4.5490   28.8530 C.2     1  UNL1       -0.0003
      5 C         -25.1370   -5.2800   29.2050 C.2     1  UNL1       -0.0000
      6 C         -26.2320   -4.6110   29.7840 C.2     1  UNL1       -0.0003
      7 C         -26.1550   -3.2320   30.0650 C.2     1  UNL1       -0.0037
      8 C         -25.3870   -0.6790   31.5710 C.3     1  UNL1        0.0885
      9 C         -25.1890    0.7730   32.0280 C.3     1  UNL1        0.0198
     10 C         -25.3360    0.6840   33.5440 C.3     1  UNL1        0.0203
     11 C         -24.8290   -0.7150   33.9050 C.3     1  UNL1        0.0887
     12 N         -24.7580   -1.4810   32.6460 N.3     1  UNL1       -0.2185
     13 C         -25.6880    1.6140   26.4610 C.3     1  UNL1        0.1944
     14 C         -26.2500    2.9200   26.3950 C.2     1  UNL1        0.0788
     15 C         -25.6420    4.0930   27.1230 C.2     1  UNL1        0.2643
     16 N         -25.6140    5.2520   26.4490 N.am    1  UNL1       -0.1999
     17 C         -25.0260    6.4790   26.9630 C.3     1  UNL1        0.1388
     18 O         -25.1430    3.9660   28.2430 O.2     1  UNL1       -0.2686
     19 C         -27.4380    3.0910   25.6450 C.2     1  UNL1        0.1041
     20 N         -28.0750    2.0890   25.0030 N.2     1  UNL1       -0.2117
     21 C         -27.5430    0.8490   25.0790 C.2     1  UNL1        0.2362
     22 O         -28.1930   -0.2080   24.4770 O.2     1  UNL1       -0.4585
     23 C         -29.4600    0.0050   23.8660 C.3     1  UNL1        0.2423
     24 C         -30.0650   -1.3770   23.5730 C.3     1  UNL1        0.2292
     25 O         -30.7290   -1.8780   24.7210 O.3     1  UNL1       -0.2162
     26 C         -26.3540    0.5760   25.7770 C.3     1  UNL1        0.2639
     27 F         -25.8600   -0.6810   25.7950 F       1  UNL1       -0.2247
     28 N         -24.3579    1.5857   26.5526 N.ar    1  UNL1       -0.1471
     29 N         -20.6503    0.8492   28.4605 N.2     1  UNL1        0.1980
     30 C         -22.6217    1.1861   27.4218 C.ar    1  UNL1        0.2106
     31 C         -21.9595    0.6074   28.4863 C.2     1  UNL1        0.4310
     32 N         -24.7142    0.5020   28.4515 N.2     1  UNL1       -0.0186
     33 N         -22.6740   -0.1216   29.4405 N.pl3   1  UNL1        0.0404
     34 C         -22.3918    1.9316   26.2078 C.ar    1  UNL1        0.2869
     35 N         -21.3401    2.4087   25.6481 N.2     1  UNL1       -0.1040
     36 O         -23.5135    2.0647   25.5569 O.2     1  UNL1       -0.3505
     37 C         -24.0401   -0.2110   29.3303 C.2     1  UNL1        0.3529
     38 C         -23.9099    1.0442   27.5982 C.ar    1  UNL1        0.2985
@<TRIPOS>BOND
     1     1    37    1
     2     2     7    1
     3     2     1    1
     4     3     2    2
     5     4     3    1
     6     4     5    2
     7     5     6    1
     8     6     7    2
     9     8     1    1
    10     8     9    1
    11     8    12    1
    12     9    10    1
    13    10    11    1
    14    12    11    1
    15    13    28    1
    16    14    13    1
    17    14    15    1
    18    15    18    2
    19    16    17    1
    20    16    15    1
    21    19    14    2
    22    20    21    2
    23    20    19    1
    24    21    26    1
    25    22    21    1
    26    23    22    1
    27    24    23    1
    28    24    25    1
    29    26    27    1
    30    26    13    1
    31    28    38   ar
    32    29    31    2
    33    30    38   ar
    34    30    31    1
    35    31    33    1
    36    32    37    2
    37    34    30   ar
    38    35    34    2
    39    36    34   ar
    40    36    28   ar
    41    37    33    1
    42    38    32    1
