@<TRIPOS>MOLECULE
No_3264-gen_results/8p0m/2024-11-27-11-27-31/
 10 10 0 0 0
SMALL
GASTEIGER

@<TRIPOS>ATOM
      1 C         -28.0162   -0.8135   28.8779 C.ar    1  UNL1       -0.0026
      2 C         -28.4690   -0.7850   29.8287 C.ar    1  UNL1       -0.0007
      3 C         -26.5042   -0.7777   28.8766 C.ar    1  UNL1       -0.0003
      4 C         -25.9150   -0.6580   29.9230 C.ar    1  UNL1       -0.0000
      5 C         -30.0078   -0.8570   29.8768 C.3     1  UNL1        0.1386
      6 C         -26.5279   -0.6329   31.1908 C.ar    1  UNL1       -0.0003
      7 C         -27.9294   -0.7307   31.1655 C.ar    1  UNL1       -0.0026
      8 N         -30.7181    0.0328   30.4857 N.pl3   1  UNL1       -0.2315
      9 C         -31.9514    0.1031   30.6038 C.2     1  UNL1        0.0805
     10 C         -32.6005    1.2131   31.2606 C.2     1  UNL1        0.0188
@<TRIPOS>BOND
     1     2     5    1
     2     5     8    1
     3     8     9    1
     4     9    10    2
     5     1     2   ar
     6     2     7   ar
     7     7     6   ar
     8     6     4   ar
     9     4     3   ar
    10     3     1   ar
