@<TRIPOS>MOLECULE
No_3265-gen_results/8p0m/2024-11-27-11-27-31/
 20 22 0 0 0
SMALL
GASTEIGER

@<TRIPOS>ATOM
      1 C         -28.0162   -0.8135   28.8779 C.ar    1  UNL1        0.0067
      2 C         -27.0636   -0.1190   28.6079 C.ar    1  UNL1        0.0005
      3 C         -25.7923   -0.4302   29.0761 C.ar    1  UNL1       -0.0001
      4 C         -24.5456    0.3494   28.8225 C.ar    1  UNL1        0.0024
      5 C         -23.2409    0.0217   29.3323 C.ar    1  UNL1        0.0000
      6 C         -27.8820   -1.8995   29.8633 C.ar    1  UNL1        0.0346
      7 C         -26.6706   -2.3272   30.3212 C.ar    1  UNL1        0.0067
      8 C         -25.5433   -1.5852   29.9316 C.ar    1  UNL1        0.0005
      9 C         -22.1918    0.8302   29.0004 C.ar    1  UNL1        0.0031
     10 C         -22.1472    1.7783   28.0287 C.ar    1  UNL1        0.0367
     11 C         -24.5322    1.3987   27.8163 C.ar    1  UNL1        0.0549
     12 C         -23.3620    2.0694   27.4607 C.ar    1  UNL1        0.1382
     13 BR        -29.3948   -2.9167   30.3991 Br      1  UNL1       -0.0490
     14 O         -23.4844    3.0228   26.5014 O.3     1  UNL1       -0.4714
     15 C         -24.5640    2.7190   25.6197 C.3     1  UNL1        0.2533
     16 C         -25.5453    1.5916   26.8707 C.3     1  UNL1        0.2346
     17 O         -26.4946    2.3763   27.0781 O.2     1  UNL1       -0.4668
     18 C         -27.6916    2.2977   26.3796 C.2     1  UNL1        0.1849
     19 C         -28.8006    2.8473   26.9959 C.2     1  UNL1        0.1082
     20 CL        -29.7456    3.4931   26.5944 Cl      1  UNL1       -0.0780
@<TRIPOS>BOND
     1     3     4    1
     2     6    13    1
     3    12    14    1
     4    14    15    1
     5    11    16    1
     6    15    16    1
     7    16    17    1
     8    17    18    1
     9    18    19    2
    10    19    20    1
    11     1     2   ar
    12     2     3   ar
    13     3     8   ar
    14     8     7   ar
    15     7     6   ar
    16     6     1   ar
    17     4     5   ar
    18     5     9   ar
    19     9    10   ar
    20    10    12   ar
    21    12    11   ar
    22    11     4   ar
