@<TRIPOS>MOLECULE
outputs/IAG933/test6/raw/output_3266_IAG933_linker_design_.xyz
 41 44 0 0 0
SMALL
GASTEIGER

@<TRIPOS>ATOM
      1 C         -24.8550   -1.0120   30.1430 C.3     1  UNL1        0.0653
      2 C         -24.9730   -2.5050   29.7880 C.2     1  UNL1       -0.0190
      3 C         -23.9060   -3.1730   29.1460 C.2     1  UNL1       -0.0042
      4 C         -23.9890   -4.5490   28.8530 C.2     1  UNL1       -0.0003
      5 C         -25.1370   -5.2800   29.2050 C.2     1  UNL1       -0.0000
      6 C         -26.2320   -4.6110   29.7840 C.2     1  UNL1       -0.0003
      7 C         -26.1550   -3.2320   30.0650 C.2     1  UNL1       -0.0042
      8 C         -25.3870   -0.6790   31.5710 C.3     1  UNL1        0.0789
      9 C         -25.1890    0.7730   32.0280 C.3     1  UNL1        0.0193
     10 C         -25.3360    0.6840   33.5440 C.3     1  UNL1        0.0202
     11 C         -24.8290   -0.7150   33.9050 C.3     1  UNL1        0.0887
     12 N         -24.7580   -1.4810   32.6460 N.3     1  UNL1       -0.2191
     13 C         -25.6880    1.6140   26.4610 C.3     1  UNL1        0.0936
     14 C         -26.2500    2.9200   26.3950 C.2     1  UNL1        0.0589
     15 C         -25.6420    4.0930   27.1230 C.2     1  UNL1        0.2628
     16 N         -25.6140    5.2520   26.4490 N.am    1  UNL1       -0.2000
     17 C         -25.0260    6.4790   26.9630 C.3     1  UNL1        0.1388
     18 O         -25.1430    3.9660   28.2430 O.2     1  UNL1       -0.2686
     19 C         -27.4380    3.0910   25.6450 C.2     1  UNL1        0.1025
     20 N         -28.0750    2.0890   25.0030 N.2     1  UNL1       -0.2118
     21 C         -27.5430    0.8490   25.0790 C.2     1  UNL1        0.2344
     22 O         -28.1930   -0.2080   24.4770 O.2     1  UNL1       -0.4585
     23 C         -29.4600    0.0050   23.8660 C.3     1  UNL1        0.2423
     24 C         -30.0650   -1.3770   23.5730 C.3     1  UNL1        0.2292
     25 O         -30.7290   -1.8780   24.7210 O.3     1  UNL1       -0.2162
     26 C         -26.3540    0.5760   25.7770 C.3     1  UNL1        0.2440
     27 F         -25.8600   -0.6810   25.7950 F       1  UNL1       -0.2265
     28 C         -21.8239    1.3115   27.4151 C.2     1  UNL1        0.1509
     29 C         -27.3507    0.0571   28.9561 C.2     1  UNL1        0.1710
     30 O         -28.0546   -0.8218   28.8192 O.2     1  UNL1       -0.2942
     31 C         -22.5909    0.1052   29.2425 C.1     1  UNL1        0.1040
     32 C         -25.7999   -0.1639   29.1626 C.3     1  UNL1        0.1547
     33 C         -22.8177    0.8393   28.1987 C.2     1  UNL1        0.1103
     34 C         -27.8297    1.4861   29.2007 C.3     1  UNL1        0.0741
     35 C         -22.0704    1.8554   26.1865 C.2     1  UNL1        0.0301
     36 C         -24.1303    1.1032   27.9142 C.2     1  UNL1        0.0739
     37 C         -23.3695    1.9305   25.7755 C.2     1  UNL1       -0.0002
     38 N         -25.2228    1.1351   28.7973 N.pl3   1  UNL1       -0.2311
     39 N         -22.1650   -0.4564   30.1454 N.1     1  UNL1       -0.1907
     40 C         -24.3306    1.5528   26.6942 C.2     1  UNL1        0.0006
     41 F         -20.5536    1.3110   27.9434 F       1  UNL1       -0.2034
@<TRIPOS>BOND
     1     1    32    1
     2     2     7    1
     3     2     1    1
     4     3     2    2
     5     4     3    1
     6     4     5    2
     7     5     6    1
     8     6     7    2
     9     8     1    1
    10     8     9    1
    11     8    12    1
    12     9    10    1
    13    10    11    1
    14    12    11    1
    15    13    40    1
    16    14    13    1
    17    14    15    1
    18    15    18    2
    19    16    17    1
    20    16    15    1
    21    19    14    2
    22    20    21    2
    23    20    19    1
    24    21    26    1
    25    22    21    1
    26    23    22    1
    27    24    23    1
    28    24    25    1
    29    26    27    1
    30    26    13    1
    31    28    41    1
    32    28    33    1
    33    29    32    1
    34    29    34    1
    35    30    29    2
    36    31    39    3
    37    32    38    1
    38    33    31    1
    39    35    28    2
    40    36    33    2
    41    36    38    1
    42    37    35    1
    43    37    40    2
    44    40    36    1
