@<TRIPOS>MOLECULE
No_3270-gen_results/8p0m/2024-11-27-11-27-31/
 11 11 0 0 0
SMALL
GASTEIGER

@<TRIPOS>ATOM
      1 C         -28.0162   -0.8135   28.8779 C.2     1  UNL1       -0.0000
      2 C         -27.0636   -0.1190   28.6079 C.ar    1  UNL1       -0.0000
      3 C         -27.0010    0.6913   27.4910 C.ar    1  UNL1       -0.0000
      4 C         -25.8548    1.4825   27.0830 C.ar    1  UNL1        0.0000
      5 C         -24.6901    1.4526   27.8807 C.ar    1  UNL1        0.0000
      6 C         -24.7379    0.6010   29.0416 C.ar    1  UNL1        0.0000
      7 C         -25.8234   -0.1688   29.3887 C.ar    1  UNL1       -0.0000
      8 C         -29.2252   -0.0469   29.2805 C.2     1  UNL1       -0.0003
      9 C         -29.3271    1.1063   28.9429 C.2     1  UNL1       -0.0046
     10 C         -30.4867    1.8217   29.3677 C.2     1  UNL1       -0.0258
     11 C         -31.4818    1.0688   30.0267 C.3     1  UNL1        0.0307
@<TRIPOS>BOND
     1     1     2    1
     2     1     8    2
     3     8     9    1
     4     9    10    2
     5    10    11    1
     6     2     3   ar
     7     3     4   ar
     8     4     5   ar
     9     5     6   ar
    10     6     7   ar
    11     7     2   ar
