@<TRIPOS>MOLECULE
No_3273-gen_results/8p0m/2024-11-27-11-27-31/
 35 36 0 0 0
SMALL
GASTEIGER

@<TRIPOS>ATOM
      1 C         -28.0162   -0.8135   28.8779 C.3     1  UNL1        0.0787
      2 C         -27.0636   -0.1190   28.6079 C.3     1  UNL1        0.0095
      3 C         -27.0010    0.6913   27.4910 C.3     1  UNL1        0.0052
      4 C         -28.1420    0.8282   26.7994 C.3     1  UNL1        0.0053
      5 C         -29.3000   -0.2668   28.6529 C.3     1  UNL1        0.0141
      6 C         -29.3580    0.5961   27.4580 C.3     1  UNL1        0.0567
      7 C         -30.6162    0.9260   26.8393 C.3     1  UNL1        0.2445
      8 CL        -31.0114    1.5037   25.9900 Cl      1  UNL1       -0.0681
      9 O         -31.6695    0.2386   27.5819 O.3     1  UNL1       -0.4633
     10 C         -25.6505    1.1456   26.9121 C.3     1  UNL1        0.0329
     11 C         -24.7796    1.8885   27.8198 C.2     1  UNL1        0.0534
     12 C         -23.7506    1.3314   28.3822 C.2     1  UNL1        0.0021
     13 C         -22.8578    0.8305   28.3203 C.2     1  UNL1       -0.0001
     14 C         -21.6370    0.1349   28.6079 C.2     1  UNL1       -0.0000
     15 C         -25.1558    3.3019   28.0927 C.2     1  UNL1        0.3376
     16 O         -24.8262    4.1874   27.3847 O.2     1  UNL1       -0.2452
     17 O         -25.5298    3.5704   29.3414 O.3     1  UNL1       -0.4369
     18 C         -27.9523   -1.6468   30.1933 C.2     1  UNL1        0.2451
     19 O         -28.5603   -1.7094   31.0599 O.2     1  UNL1       -0.2730
     20 N         -26.7378   -2.3946   30.1418 N.am    1  UNL1       -0.1781
     21 C         -25.6257   -2.2292   29.3443 C.2     1  UNL1        0.0882
     22 C         -24.7248   -3.1804   29.2249 C.2     1  UNL1        0.0422
     23 C         -23.4851   -2.9002   28.5794 C.3     1  UNL1        0.0365
     24 C         -25.1385   -4.5498   29.3165 C.2     1  UNL1        0.2390
     25 N         -24.2435   -5.4967   28.8445 N.2     1  UNL1       -0.1159
     26 F         -26.2325   -4.8980   29.7152 F       1  UNL1       -0.1818
     27 C         -32.5498   -0.4812   26.9426 C.ar    1  UNL1        0.1401
     28 C         -33.4784   -1.0513   27.8782 C.ar    1  UNL1        0.0370
     29 C         -34.2358   -1.9965   27.5169 C.ar    1  UNL1        0.0031
     30 C         -34.2536   -2.3738   26.1802 C.ar    1  UNL1        0.0002
     31 C         -33.3247   -1.9228   25.2617 C.ar    1  UNL1        0.0031
     32 C         -32.4251   -1.0253   25.7227 C.ar    1  UNL1        0.0370
     33 C         -26.1321    4.7800   29.6161 C.3     1  UNL1        0.2801
     34 C         -27.4424    4.6982   29.9569 C.2     1  UNL1        0.2551
     35 O         -27.7831    3.7771   30.5610 O.2     1  UNL1       -0.2842
@<TRIPOS>BOND
     1     1     2    1
     2     2     3    1
     3     3     4    1
     4     1     5    1
     5     4     6    1
     6     5     6    1
     7     6     7    1
     8     7     8    1
     9     7     9    1
    10     3    10    1
    11    10    11    1
    12    11    12    2
    13    12    13    1
    14    13    14    2
    15    11    15    1
    16    15    16    2
    17    15    17    1
    18     1    18    1
    19    18    19    2
    20    18    20   am
    21    20    21    1
    22    21    22    2
    23    22    23    1
    24    22    24    1
    25    24    25    2
    26    24    26    1
    27     9    27    1
    28    17    33    1
    29    33    34    1
    30    34    35    2
    31    27    28   ar
    32    28    29   ar
    33    29    30   ar
    34    30    31   ar
    35    31    32   ar
    36    32    27   ar
