@<TRIPOS>MOLECULE
No_3277-gen_results/8p0m/2024-11-27-11-27-31/
 17 19 0 0 0
SMALL
GASTEIGER

@<TRIPOS>ATOM
      1 C         -28.0162   -0.8135   28.8779 C.ar    1  UNL1        0.0067
      2 C         -27.0636   -0.1189   28.6079 C.ar    1  UNL1        0.0006
      3 C         -25.7923   -0.4302   29.0761 C.ar    1  UNL1        0.0016
      4 C         -24.5456    0.3494   28.8225 C.ar    1  UNL1        0.0214
      5 C         -24.6586    1.4196   27.8878 C.ar    1  UNL1        0.1248
      6 C         -23.5403    2.1791   27.5500 C.ar    1  UNL1        0.1646
      7 C         -22.2925    1.7428   28.0473 C.ar    1  UNL1        0.0391
      8 C         -22.1712    0.7079   28.9284 C.ar    1  UNL1        0.0032
      9 C         -23.3345   -0.0624   29.3081 C.ar    1  UNL1        0.0017
     10 C         -27.9466   -1.8823   29.8708 C.ar    1  UNL1        0.0346
     11 C         -26.7159   -2.3287   30.3060 C.ar    1  UNL1        0.0067
     12 C         -25.5921   -1.5643   29.9672 C.ar    1  UNL1        0.0006
     13 BR        -29.5562   -2.6935   30.3265 Br      1  UNL1       -0.0490
     14 O         -23.6459    3.1745   26.6981 O.3     1  UNL1       -0.4391
     15 C         -24.9885    3.1944   26.1074 C.2     1  UNL1        0.2407
     16 N         -25.7401    1.7326   27.3237 N.2     1  UNL1       -0.1971
     17 C         -25.9403    2.7349   26.4346 C.1     1  UNL1        0.0389
@<TRIPOS>BOND
     1     3     4    1
     2    10    13    1
     3     6    14    1
     4    14    15    1
     5     5    16    1
     6    15    17    2
     7    16    17    2
     8     1     2   ar
     9     2     3   ar
    10     3    12   ar
    11    12    11   ar
    12    11    10   ar
    13    10     1   ar
    14     4     5   ar
    15     5     6   ar
    16     6     7   ar
    17     7     8   ar
    18     8     9   ar
    19     9     4   ar
