@<TRIPOS>MOLECULE
outputs/IAG933/test6/raw/output_3278_IAG933_linker_design_.xyz
 37 40 0 0 0
SMALL
GASTEIGER

@<TRIPOS>ATOM
      1 C         -24.8550   -1.0120   30.1430 C.3     1  UNL1        0.2426
      2 C         -24.9730   -2.5050   29.7880 C.2     1  UNL1        0.0253
      3 C         -23.9060   -3.1730   29.1460 C.2     1  UNL1       -0.0003
      4 C         -23.9890   -4.5490   28.8530 C.2     1  UNL1       -0.0002
      5 C         -25.1370   -5.2800   29.2050 C.2     1  UNL1       -0.0000
      6 C         -26.2320   -4.6110   29.7840 C.2     1  UNL1       -0.0002
      7 C         -26.1550   -3.2320   30.0650 C.2     1  UNL1       -0.0003
      8 C         -25.3870   -0.6790   31.5710 C.3     1  UNL1        0.1239
      9 C         -25.1890    0.7730   32.0280 C.3     1  UNL1        0.0235
     10 C         -25.3360    0.6840   33.5440 C.3     1  UNL1        0.0204
     11 C         -24.8290   -0.7150   33.9050 C.3     1  UNL1        0.0889
     12 N         -24.7580   -1.4810   32.6460 N.3     1  UNL1       -0.2149
     13 C         -25.6880    1.6140   26.4610 C.2     1  UNL1        0.0843
     14 C         -26.2500    2.9200   26.3950 C.2     1  UNL1        0.0783
     15 C         -25.6420    4.0930   27.1230 C.2     1  UNL1        0.2663
     16 N         -25.6140    5.2520   26.4490 N.am    1  UNL1       -0.1997
     17 C         -25.0260    6.4790   26.9630 C.3     1  UNL1        0.1388
     18 O         -25.1430    3.9660   28.2430 O.2     1  UNL1       -0.2683
     19 C         -27.4380    3.0910   25.6450 C.2     1  UNL1        0.1066
     20 N         -28.0750    2.0890   25.0030 N.2     1  UNL1       -0.2081
     21 C         -27.5430    0.8490   25.0790 C.2     1  UNL1        0.2532
     22 O         -28.1930   -0.2080   24.4770 O.2     1  UNL1       -0.4558
     23 C         -29.4600    0.0050   23.8660 C.3     1  UNL1        0.2426
     24 C         -30.0650   -1.3770   23.5730 C.3     1  UNL1        0.2292
     25 O         -30.7290   -1.8780   24.7210 O.3     1  UNL1       -0.2162
     26 C         -26.3540    0.5760   25.7770 C.2     1  UNL1        0.1949
     27 F         -25.8600   -0.6810   25.7950 F       1  UNL1       -0.1994
     28 C         -24.5475    1.3689   26.9212 C.3     1  UNL1        0.3203
     29 O         -21.1622    1.9366   26.4773 O.2     1  UNL1       -0.2713
     30 C         -23.0747    2.3548   25.1615 C.3     1  UNL1        0.1193
     31 N         -23.3861    1.7792   26.3753 N.am    1  UNL1       -0.2320
     32 C         -22.2625    1.5268   27.1436 C.2     1  UNL1        0.2718
     33 O         -21.4111    0.8663   29.3622 O.3     1  UNL1       -0.1997
     34 C         -22.3770    0.9101   28.4122 C.3     1  UNL1        0.3345
     35 C         -23.6564    0.3228   28.7733 C.2     1  UNL1        0.3739
     36 N         -23.7128   -0.4371   29.8908 N.pl3   1  UNL1       -0.0312
     37 N         -24.6333    0.5913   27.9646 N.2     1  UNL1       -0.0410
@<TRIPOS>BOND
     1     1    36    1
     2     2     7    1
     3     2     1    1
     4     3     2    2
     5     4     3    1
     6     4     5    2
     7     5     6    1
     8     6     7    2
     9     8     1    1
    10     8     9    1
    11     8    12    1
    12     9    10    1
    13    10    11    1
    14    12    11    1
    15    14    13    1
    16    14    15    1
    17    15    18    2
    18    16    17    1
    19    16    15    1
    20    19    14    2
    21    20    21    2
    22    20    19    1
    23    21    26    1
    24    22    21    1
    25    23    22    1
    26    24    23    1
    27    24    25    1
    28    26    27    1
    29    26    13    2
    30    28    13    1
    31    28    37    1
    32    29    32    2
    33    30    31    1
    34    31    28    1
    35    31    32   am
    36    32    34    1
    37    34    35    1
    38    34    33    1
    39    35    36    1
    40    37    35    2
