@<TRIPOS>MOLECULE
outputs/IAG933/test6/raw/output_328_IAG933_linker_design_.xyz
 41 44 0 0 0
SMALL
GASTEIGER

@<TRIPOS>ATOM
      1 C         -24.8550   -1.0120   30.1430 C.3     1  UNL1        0.2061
      2 C         -24.9730   -2.5050   29.7880 C.2     1  UNL1        0.0218
      3 C         -23.9060   -3.1730   29.1460 C.2     1  UNL1       -0.0004
      4 C         -23.9890   -4.5490   28.8530 C.2     1  UNL1       -0.0002
      5 C         -25.1370   -5.2800   29.2050 C.2     1  UNL1       -0.0000
      6 C         -26.2320   -4.6110   29.7840 C.2     1  UNL1       -0.0002
      7 C         -26.1550   -3.2320   30.0650 C.2     1  UNL1       -0.0004
      8 C         -25.3870   -0.6790   31.5710 C.3     1  UNL1        0.1202
      9 C         -25.1890    0.7730   32.0280 C.3     1  UNL1        0.0233
     10 C         -25.3360    0.6840   33.5440 C.3     1  UNL1        0.0204
     11 C         -24.8290   -0.7150   33.9050 C.3     1  UNL1        0.0889
     12 N         -24.7580   -1.4810   32.6460 N.3     1  UNL1       -0.2150
     13 C         -25.6880    1.6140   26.4610 C.2     1  UNL1        0.0416
     14 C         -26.2500    2.9200   26.3950 C.2     1  UNL1        0.0765
     15 C         -25.6420    4.0930   27.1230 C.2     1  UNL1        0.2664
     16 N         -25.6140    5.2520   26.4490 N.am    1  UNL1       -0.1997
     17 C         -25.0260    6.4790   26.9630 C.3     1  UNL1        0.1388
     18 O         -25.1430    3.9660   28.2430 O.2     1  UNL1       -0.2683
     19 C         -27.4380    3.0910   25.6450 C.2     1  UNL1        0.1067
     20 N         -28.0750    2.0890   25.0030 N.2     1  UNL1       -0.2081
     21 C         -27.5430    0.8490   25.0790 C.2     1  UNL1        0.2533
     22 O         -28.1930   -0.2080   24.4770 O.2     1  UNL1       -0.4558
     23 C         -29.4600    0.0050   23.8660 C.3     1  UNL1        0.2426
     24 C         -30.0650   -1.3770   23.5730 C.3     1  UNL1        0.2292
     25 O         -30.7290   -1.8780   24.7210 O.3     1  UNL1       -0.2162
     26 C         -26.3540    0.5760   25.7770 C.2     1  UNL1        0.1930
     27 F         -25.8600   -0.6810   25.7950 F       1  UNL1       -0.1992
     28 C         -26.6349   -0.0002   28.9594 C.2     1  UNL1        0.3582
     29 C         -21.8730    1.3763   26.8570 C.2     1  UNL1        0.3238
     30 O         -20.9877    0.6124   27.7629 O.3     1  UNL1       -0.4030
     31 C         -27.1400    1.1248   29.7708 C.2     1  UNL1        0.2068
     32 N         -25.2222   -0.1660   29.0551 N.am    1  UNL1       -0.1365
     33 C         -24.0919    0.3620   28.4566 C.2     1  UNL1        0.3163
     34 C         -23.2129    1.5892   26.6355 C.3     1  UNL1        0.1285
     35 C         -21.4716   -0.1185   28.8121 C.3     1  UNL1        0.4687
     36 O         -27.3494   -0.8082   28.3914 O.2     1  UNL1       -0.2398
     37 C         -24.4214    1.1535   27.2180 C.2     1  UNL1        0.0709
     38 O         -21.3392    2.1326   26.0894 O.2     1  UNL1       -0.2496
     39 N         -26.9348    2.3127   29.5567 N.2     1  UNL1       -0.1389
     40 N         -22.8763    0.0728   28.9955 N.pl3   1  UNL1        0.0128
     41 C         -23.1920    2.3732   25.2564 C.3     1  UNL1        0.0167
@<TRIPOS>BOND
     1     1    32    1
     2     2     7    1
     3     2     1    1
     4     3     2    2
     5     4     3    1
     6     4     5    2
     7     5     6    1
     8     6     7    2
     9     8     1    1
    10     8     9    1
    11     8    12    1
    12     9    10    1
    13    10    11    1
    14    12    11    1
    15    13    37    1
    16    14    13    1
    17    14    15    1
    18    15    18    2
    19    16    17    1
    20    16    15    1
    21    19    14    2
    22    20    21    2
    23    20    19    1
    24    21    26    1
    25    22    21    1
    26    23    22    1
    27    24    23    1
    28    24    25    1
    29    26    27    1
    30    26    13    2
    31    28    32   am
    32    28    31    1
    33    29    30    1
    34    30    35    1
    35    33    40    1
    36    33    32    1
    37    34    41    1
    38    34    29    1
    39    34    37    1
    40    35    40    1
    41    36    28    2
    42    37    33    2
    43    38    29    2
    44    39    31    2
