@<TRIPOS>MOLECULE
outputs/IAG933/test6/raw/output_3281_IAG933_linker_design_.xyz
 40 44 0 0 0
SMALL
GASTEIGER

@<TRIPOS>ATOM
      1 C         -24.8550   -1.0120   30.1430 C.3     1  UNL1        0.0999
      2 C         -24.9730   -2.5050   29.7880 C.2     1  UNL1       -0.0139
      3 C         -23.9060   -3.1730   29.1460 C.2     1  UNL1       -0.0038
      4 C         -23.9890   -4.5490   28.8530 C.2     1  UNL1       -0.0003
      5 C         -25.1370   -5.2800   29.2050 C.2     1  UNL1       -0.0000
      6 C         -26.2320   -4.6110   29.7840 C.2     1  UNL1       -0.0003
      7 C         -26.1550   -3.2320   30.0650 C.2     1  UNL1       -0.0038
      8 C         -25.3870   -0.6790   31.5710 C.3     1  UNL1        0.0841
      9 C         -25.1890    0.7730   32.0280 C.3     1  UNL1        0.0196
     10 C         -25.3360    0.6840   33.5440 C.3     1  UNL1        0.0203
     11 C         -24.8290   -0.7150   33.9050 C.3     1  UNL1        0.0887
     12 N         -24.7580   -1.4810   32.6460 N.3     1  UNL1       -0.2187
     13 C         -25.6880    1.6140   26.4610 C.2     1  UNL1        0.0471
     14 C         -26.2500    2.9200   26.3950 C.2     1  UNL1        0.0752
     15 C         -25.6420    4.0930   27.1230 C.2     1  UNL1        0.2662
     16 N         -25.6140    5.2520   26.4490 N.am    1  UNL1       -0.1997
     17 C         -25.0260    6.4790   26.9630 C.3     1  UNL1        0.1388
     18 O         -25.1430    3.9660   28.2430 O.2     1  UNL1       -0.2683
     19 C         -27.4380    3.0910   25.6450 C.2     1  UNL1        0.1065
     20 N         -28.0750    2.0890   25.0030 N.2     1  UNL1       -0.2081
     21 C         -27.5430    0.8490   25.0790 C.2     1  UNL1        0.2531
     22 O         -28.1930   -0.2080   24.4770 O.2     1  UNL1       -0.4558
     23 C         -29.4600    0.0050   23.8660 C.3     1  UNL1        0.2426
     24 C         -30.0650   -1.3770   23.5730 C.3     1  UNL1        0.2292
     25 O         -30.7290   -1.8780   24.7210 O.3     1  UNL1       -0.2162
     26 C         -26.3540    0.5760   25.7770 C.2     1  UNL1        0.1917
     27 F         -25.8600   -0.6810   25.7950 F       1  UNL1       -0.1995
     28 O         -26.3569    0.5513   29.2408 O.2     1  UNL1       -0.2911
     29 O         -22.5993    0.8444   30.0087 O.2     1  UNL1       -0.4721
     30 C         -25.2289    0.1739   29.1652 C.2     1  UNL1        0.1794
     31 C         -21.3005   -0.5228   28.5389 C.3     1  UNL1        0.1924
     32 O         -21.0677    0.6736   27.7103 O.3     1  UNL1       -0.3208
     33 C         -23.0018    1.4166   28.8343 C.2     1  UNL1        0.1738
     34 C         -24.4612    1.2519   26.9393 C.3     1  UNL1        0.1704
     35 C         -21.9567    1.8115   27.7884 C.3     1  UNL1        0.2969
     36 C         -22.6068    2.2075   25.3706 C.3     1  UNL1        0.2967
     37 O         -21.8582    2.4647   26.5287 O.3     1  UNL1       -0.2960
     38 C         -22.0058   -0.4635   29.8972 C.3     1  UNL1        0.2371
     39 C         -24.2371    0.9839   28.3329 C.2     1  UNL1        0.0786
     40 O         -23.5047    1.2553   25.9022 O.3     1  UNL1       -0.3199
@<TRIPOS>BOND
     1     1    30    1
     2     2     7    1
     3     2     1    1
     4     3     2    2
     5     4     3    1
     6     4     5    2
     7     5     6    1
     8     6     7    2
     9     8     1    1
    10     8     9    1
    11     8    12    1
    12     9    10    1
    13    10    11    1
    14    12    11    1
    15    14    13    1
    16    14    15    1
    17    15    18    2
    18    16    17    1
    19    16    15    1
    20    19    14    2
    21    20    21    2
    22    20    19    1
    23    21    26    1
    24    22    21    1
    25    23    22    1
    26    24    23    1
    27    24    25    1
    28    26    27    1
    29    26    13    2
    30    30    28    2
    31    31    38    1
    32    32    35    1
    33    32    31    1
    34    33    29    1
    35    34    13    1
    36    34    39    1
    37    35    37    1
    38    35    33    1
    39    36    40    1
    40    36    37    1
    41    38    29    1
    42    39    33    2
    43    39    30    1
    44    40    34    1
