@<TRIPOS>MOLECULE
outputs/IAG933/test6/raw/output_3284_IAG933_linker_design_.xyz
 40 44 0 0 0
SMALL
GASTEIGER

@<TRIPOS>ATOM
      1 C         -24.8550   -1.0120   30.1430 C.3     1  UNL1        0.0660
      2 C         -24.9730   -2.5050   29.7880 C.2     1  UNL1       -0.0188
      3 C         -23.9060   -3.1730   29.1460 C.2     1  UNL1       -0.0042
      4 C         -23.9890   -4.5490   28.8530 C.2     1  UNL1       -0.0003
      5 C         -25.1370   -5.2800   29.2050 C.2     1  UNL1       -0.0000
      6 C         -26.2320   -4.6110   29.7840 C.2     1  UNL1       -0.0003
      7 C         -26.1550   -3.2320   30.0650 C.2     1  UNL1       -0.0042
      8 C         -25.3870   -0.6790   31.5710 C.3     1  UNL1        0.0792
      9 C         -25.1890    0.7730   32.0280 C.3     1  UNL1        0.0193
     10 C         -25.3360    0.6840   33.5440 C.3     1  UNL1        0.0202
     11 C         -24.8290   -0.7150   33.9050 C.3     1  UNL1        0.0887
     12 N         -24.7580   -1.4810   32.6460 N.3     1  UNL1       -0.2190
     13 C         -25.6880    1.6140   26.4610 C.3     1  UNL1        0.1005
     14 C         -26.2500    2.9200   26.3950 C.2     1  UNL1        0.0573
     15 C         -25.6420    4.0930   27.1230 C.2     1  UNL1        0.2625
     16 N         -25.6140    5.2520   26.4490 N.am    1  UNL1       -0.2000
     17 C         -25.0260    6.4790   26.9630 C.3     1  UNL1        0.1388
     18 O         -25.1430    3.9660   28.2430 O.2     1  UNL1       -0.2687
     19 C         -27.4380    3.0910   25.6450 C.2     1  UNL1        0.1022
     20 N         -28.0750    2.0890   25.0030 N.2     1  UNL1       -0.2119
     21 C         -27.5430    0.8490   25.0790 C.2     1  UNL1        0.2342
     22 O         -28.1930   -0.2080   24.4770 O.2     1  UNL1       -0.4585
     23 C         -29.4600    0.0050   23.8660 C.3     1  UNL1        0.2423
     24 C         -30.0650   -1.3770   23.5730 C.3     1  UNL1        0.2292
     25 O         -30.7290   -1.8780   24.7210 O.3     1  UNL1       -0.2162
     26 C         -26.3540    0.5760   25.7770 C.3     1  UNL1        0.2425
     27 F         -25.8600   -0.6810   25.7950 F       1  UNL1       -0.2268
     28 O         -25.3305   -0.6273   27.8939 O.3     1  UNL1       -0.3529
     29 C         -24.4424    0.0173   29.0705 C.3     1  UNL1        0.1292
     30 C         -21.8354    1.4313   27.8108 C.3     1  UNL1        0.0031
     31 C         -23.2763    1.8862   28.0671 C.3     1  UNL1        0.0379
     32 C         -24.2386   -0.1225   27.5337 C.3     1  UNL1        0.1685
     33 C         -24.1252    5.4840   32.9716 C.3     1  UNL1        0.0862
     34 O         -25.1014    6.1863   30.9035 O.2     1  UNL1       -0.2829
     35 C         -24.6460    2.4229   30.2749 C.2     1  UNL1        0.0202
     36 C         -24.6903    5.0855   31.6590 C.2     1  UNL1        0.2076
     37 O         -23.3514    1.4686   25.5336 O.3     1  UNL1       -0.2226
     38 C         -24.7267    3.8024   31.2686 C.1     1  UNL1       -0.0690
     39 C         -24.2182    1.2485   26.8405 C.3     1  UNL1        0.1608
     40 C         -23.6757    1.3022   29.4946 C.3     1  UNL1        0.0600
@<TRIPOS>BOND
     1     1     2    1
     2     2     7    1
     3     3     2    2
     4     4     3    1
     5     4     5    2
     6     5     6    1
     7     6     7    2
     8     8     1    1
     9     8     9    1
    10     8    12    1
    11     9    10    1
    12    10    11    1
    13    12    11    1
    14    13    14    1
    15    13    39    1
    16    14    15    1
    17    15    18    2
    18    16    17    1
    19    16    15    1
    20    19    14    2
    21    20    21    2
    22    20    19    1
    23    21    26    1
    24    22    21    1
    25    23    22    1
    26    24    23    1
    27    24    25    1
    28    26    27    1
    29    26    13    1
    30    28    29    1
    31    29    40    1
    32    29     1    1
    33    31    30    1
    34    31    40    1
    35    32    28    1
    36    32    29    1
    37    34    36    1
    38    35    38    2
    39    36    33    1
    40    38    36    2
    41    39    37    1
    42    39    32    1
    43    39    31    1
    44    40    35    1
