@<TRIPOS>MOLECULE
No_3288-gen_results/8p0m/2024-11-27-11-27-31/
 14 15 0 0 0
SMALL
GASTEIGER

@<TRIPOS>ATOM
      1 C         -28.0162   -0.8135   28.8779 C.ar    1  UNL1        0.0815
      2 C         -27.0636   -0.1189   28.6079 C.ar    1  UNL1        0.0177
      3 C         -26.9716    0.7139   27.5060 C.ar    1  UNL1        0.0016
      4 C         -28.1053    0.7744   26.6421 C.ar    1  UNL1        0.0047
      5 C         -29.2008    0.1044   27.0527 C.ar    1  UNL1        0.0565
      6 C         -29.2096   -0.6029   28.1853 C.ar    1  UNL1        0.0237
      7 C         -30.3702    0.2264   26.1604 C.2     1  UNL1        0.2649
      8 N         -30.9928    1.1454   26.0580 N.am    1  UNL1       -0.1998
      9 O         -30.4252   -0.7482   25.2700 O.2     1  UNL1       -0.2684
     10 C         -32.0498    1.5160   25.8262 C.3     1  UNL1        0.1388
     11 N         -27.7609   -1.5395   30.1082 N.ar    1  UNL1       -0.2438
     12 C         -26.5219   -1.7199   30.3436 C.ar    1  UNL1        0.0988
     13 C         -25.4809   -1.4626   29.8170 C.ar    1  UNL1        0.0207
     14 C         -25.6247   -0.4465   29.0244 C.ar    1  UNL1        0.0031
@<TRIPOS>BOND
     1     5     7    1
     2     7     8   am
     3     7     9    2
     4     8    10    1
     5     2     3   ar
     6     3     4   ar
     7     4     5   ar
     8     5     6   ar
     9     6     1   ar
    10     1     2   ar
    11     2    14   ar
    12    14    13   ar
    13    13    12   ar
    14    12    11   ar
    15    11     1   ar
