@<TRIPOS>MOLECULE
outputs/IAG933/test6/raw/output_329_IAG933_linker_design_.xyz
 41 44 0 0 0
SMALL
GASTEIGER

@<TRIPOS>ATOM
      1 C         -24.8550   -1.0120   30.1430 C.3     1  UNL1        0.0401
      2 C         -24.9730   -2.5050   29.7880 C.2     1  UNL1       -0.0211
      3 C         -23.9060   -3.1730   29.1460 C.2     1  UNL1       -0.0042
      4 C         -23.9890   -4.5490   28.8530 C.2     1  UNL1       -0.0003
      5 C         -25.1370   -5.2800   29.2050 C.2     1  UNL1       -0.0000
      6 C         -26.2320   -4.6110   29.7840 C.2     1  UNL1       -0.0003
      7 C         -26.1550   -3.2320   30.0650 C.2     1  UNL1       -0.0042
      8 C         -25.3870   -0.6790   31.5710 C.3     1  UNL1        0.0769
      9 C         -25.1890    0.7730   32.0280 C.3     1  UNL1        0.0192
     10 C         -25.3360    0.6840   33.5440 C.3     1  UNL1        0.0202
     11 C         -24.8290   -0.7150   33.9050 C.3     1  UNL1        0.0887
     12 N         -24.7580   -1.4810   32.6460 N.3     1  UNL1       -0.2191
     13 C         -25.6880    1.6140   26.4610 C.2     1  UNL1        0.0865
     14 C         -26.2500    2.9200   26.3950 C.2     1  UNL1        0.0899
     15 C         -25.6420    4.0930   27.1230 C.2     1  UNL1        0.2676
     16 N         -25.6140    5.2520   26.4490 N.am    1  UNL1       -0.1997
     17 C         -25.0260    6.4790   26.9630 C.3     1  UNL1        0.1388
     18 O         -25.1430    3.9660   28.2430 O.2     1  UNL1       -0.2683
     19 C         -27.4380    3.0910   25.6450 C.2     1  UNL1        0.1080
     20 N         -28.0750    2.0890   25.0030 N.2     1  UNL1       -0.2080
     21 C         -27.5430    0.8490   25.0790 C.2     1  UNL1        0.2546
     22 O         -28.1930   -0.2080   24.4770 O.2     1  UNL1       -0.4558
     23 C         -29.4600    0.0050   23.8660 C.3     1  UNL1        0.2426
     24 C         -30.0650   -1.3770   23.5730 C.3     1  UNL1        0.2292
     25 O         -30.7290   -1.8780   24.7210 O.3     1  UNL1       -0.2162
     26 C         -26.3540    0.5760   25.7770 C.2     1  UNL1        0.2062
     27 F         -25.8600   -0.6810   25.7950 F       1  UNL1       -0.1979
     28 C         -20.5477   -0.3099   28.5848 C.2     1  UNL1       -0.0047
     29 C         -23.3865    1.3040   24.8117 C.3     1  UNL1        0.3301
     30 O         -24.1387    0.4082   24.2513 O.3     1  UNL1       -0.1823
     31 N         -24.6202    1.3105   27.1511 N.pl3   1  UNL1       -0.2991
     32 C         -25.5883   -0.2172   29.0700 C.3     1  UNL1        0.0281
     33 C         -23.6309    1.5349   26.1898 C.3     1  UNL1        0.1709
     34 C         -21.0616    0.7938   28.1248 C.2     1  UNL1       -0.0211
     35 O         -22.7329    0.1754   30.0542 O.3     1  UNL1       -0.2209
     36 C         -22.5750    1.8485   27.0337 C.3     1  UNL1        0.1907
     37 C         -24.6230    0.6883   28.3790 C.3     1  UNL1        0.1041
     38 F         -21.3817    1.1103   26.3169 F       1  UNL1       -0.2349
     39 C         -22.3851    0.9680   28.1416 C.3     1  UNL1        0.0885
     40 C         -23.2764    0.6132   28.9132 C.3     1  UNL1        0.1765
     41 F         -22.3911    1.6171   23.9714 F       1  UNL1       -0.1991
@<TRIPOS>BOND
     1     1    32    1
     2     2     7    1
     3     2     1    1
     4     3     2    2
     5     4     3    1
     6     4     5    2
     7     5     6    1
     8     6     7    2
     9     8     1    1
    10     8     9    1
    11     8    12    1
    12     9    10    1
    13    10    11    1
    14    12    11    1
    15    13    31    1
    16    14    13    1
    17    14    15    1
    18    15    18    2
    19    16    17    1
    20    16    15    1
    21    19    14    2
    22    20    21    2
    23    20    19    1
    24    21    26    1
    25    22    21    1
    26    23    22    1
    27    24    23    1
    28    24    25    1
    29    26    27    1
    30    26    13    2
    31    29    41    1
    32    30    29    1
    33    31    37    1
    34    33    29    1
    35    33    36    1
    36    33    31    1
    37    34    28    2
    38    36    38    1
    39    36    39    1
    40    37    40    1
    41    37    32    1
    42    39    34    1
    43    39    40    1
    44    40    35    1
