@<TRIPOS>MOLECULE
No_3290-gen_results/8p0m/2024-11-27-11-27-31/
 16 17 0 0 0
SMALL
GASTEIGER

@<TRIPOS>ATOM
      1 CL        -28.1493   -0.8198   28.9079 Cl      1  UNL1       -0.0822
      2 C         -26.9116   -0.0797   28.9452 C.ar    1  UNL1        0.0576
      3 C         -26.0490   -0.0718   27.8591 C.ar    1  UNL1        0.0115
      4 C         -24.7194    0.4034   27.9174 C.ar    1  UNL1        0.0055
      5 C         -24.2099    0.9302   29.0839 C.ar    1  UNL1        0.0567
      6 C         -25.0231    0.9078   30.1875 C.ar    1  UNL1        0.0055
      7 C         -26.2531    0.3904   30.1401 C.ar    1  UNL1        0.0107
      8 C         -22.8500    1.4478   29.0593 C.2     1  UNL1        0.2842
      9 N         -22.0944    1.5228   27.9761 N.am    1  UNL1       -0.0837
     10 O         -22.3433    1.8238   30.1598 O.2     1  UNL1       -0.2667
     11 C         -27.0794    0.3502   31.4295 C.ar    1  UNL1        0.0008
     12 C         -28.3436    0.8041   31.4818 C.ar    1  UNL1        0.0000
     13 C         -29.0613    0.6325   32.6189 C.ar    1  UNL1        0.0000
     14 C         -28.3891    0.2847   33.8531 C.ar    1  UNL1        0.0000
     15 C         -27.0605   -0.1165   33.8322 C.ar    1  UNL1        0.0000
     16 C         -26.3736   -0.1048   32.6230 C.ar    1  UNL1        0.0000
@<TRIPOS>BOND
     1     1     2    1
     2     5     8    1
     3     8     9   am
     4     8    10    2
     5     7    11    1
     6    11    12   ar
     7    12    13   ar
     8    13    14   ar
     9    14    15   ar
    10    15    16   ar
    11    16    11   ar
    12     2     3   ar
    13     3     4   ar
    14     4     5   ar
    15     5     6   ar
    16     6     7   ar
    17     7     2   ar
