@<TRIPOS>MOLECULE
outputs/IAG933/test6/raw/output_3292_IAG933_linker_design_.xyz
 41 44 0 0 0
SMALL
GASTEIGER

@<TRIPOS>ATOM
      1 C         -24.8550   -1.0120   30.1430 C.3     1  UNL1        0.1587
      2 C         -24.9730   -2.5050   29.7880 C.2     1  UNL1        0.0061
      3 C         -23.9060   -3.1730   29.1460 C.2     1  UNL1       -0.0019
      4 C         -23.9890   -4.5490   28.8530 C.2     1  UNL1       -0.0002
      5 C         -25.1370   -5.2800   29.2050 C.2     1  UNL1       -0.0000
      6 C         -26.2320   -4.6110   29.7840 C.2     1  UNL1       -0.0002
      7 C         -26.1550   -3.2320   30.0650 C.2     1  UNL1       -0.0019
      8 C         -25.3870   -0.6790   31.5710 C.3     1  UNL1        0.1043
      9 C         -25.1890    0.7730   32.0280 C.3     1  UNL1        0.0217
     10 C         -25.3360    0.6840   33.5440 C.3     1  UNL1        0.0203
     11 C         -24.8290   -0.7150   33.9050 C.3     1  UNL1        0.0888
     12 N         -24.7580   -1.4810   32.6460 N.3     1  UNL1       -0.2166
     13 C         -25.6880    1.6140   26.4610 C.3     1  UNL1        0.2337
     14 C         -26.2500    2.9200   26.3950 C.2     1  UNL1        0.0974
     15 C         -25.6420    4.0930   27.1230 C.2     1  UNL1        0.2662
     16 N         -25.6140    5.2520   26.4490 N.am    1  UNL1       -0.1999
     17 C         -25.0260    6.4790   26.9630 C.3     1  UNL1        0.1388
     18 O         -25.1430    3.9660   28.2430 O.2     1  UNL1       -0.2685
     19 C         -27.4380    3.0910   25.6450 C.2     1  UNL1        0.1060
     20 N         -28.0750    2.0890   25.0030 N.2     1  UNL1       -0.2116
     21 C         -27.5430    0.8490   25.0790 C.2     1  UNL1        0.2384
     22 O         -28.1930   -0.2080   24.4770 O.2     1  UNL1       -0.4584
     23 C         -29.4600    0.0050   23.8660 C.3     1  UNL1        0.2423
     24 C         -30.0650   -1.3770   23.5730 C.3     1  UNL1        0.2292
     25 O         -30.7290   -1.8780   24.7210 O.3     1  UNL1       -0.2162
     26 C         -26.3540    0.5760   25.7770 C.3     1  UNL1        0.2825
     27 F         -25.8600   -0.6810   25.7950 F       1  UNL1       -0.2225
     28 O         -24.4830    3.7743   32.3839 O.2     1  UNL1       -0.2701
     29 N         -25.6411    5.0999   31.0467 N.am    1  UNL1       -0.0865
     30 O         -21.3521    1.5600   27.4389 O.2     1  UNL1       -0.3938
     31 CL        -22.7676    2.4103   25.2526 Cl      1  UNL1       -0.0351
     32 C         -22.5746    1.6887   26.8648 C.2     1  UNL1        0.2896
     33 O         -25.8967   -0.4475   28.9141 O.3     1  UNL1       -0.3007
     34 C         -25.4742    0.7441   28.7320 C.3     1  UNL1        0.3706
     35 N         -24.8069    1.1576   27.5676 N.pl3   1  UNL1       -0.1473
     36 C         -23.5174    1.1640   27.7054 C.2     1  UNL1        0.3768
     37 C         -25.5857    2.8499   30.4465 C.3     1  UNL1        0.1833
     38 C         -21.6095    0.8481   28.5364 C.2     1  UNL1        0.4272
     39 C         -25.1808    3.9078   31.3872 C.2     1  UNL1        0.2787
     40 N         -25.8114    1.5988   29.7763 N.3     1  UNL1       -0.1393
     41 N         -22.7986    0.5122   28.8015 N.2     1  UNL1        0.0102
@<TRIPOS>BOND
     1     1    33    1
     2     2     7    1
     3     2     1    1
     4     3     2    2
     5     4     3    1
     6     4     5    2
     7     5     6    1
     8     6     7    2
     9     8     1    1
    10     8     9    1
    11     8    12    1
    12     9    10    1
    13    10    11    1
    14    12    11    1
    15    13    35    1
    16    14    13    1
    17    14    15    1
    18    15    18    2
    19    16    17    1
    20    16    15    1
    21    19    14    2
    22    20    21    2
    23    20    19    1
    24    21    26    1
    25    22    21    1
    26    23    22    1
    27    24    23    1
    28    24    25    1
    29    26    27    1
    30    26    13    1
    31    29    39    1
    32    30    38    1
    33    31    32    1
    34    32    30    1
    35    32    36    2
    36    34    33    1
    37    34    40    1
    38    35    36    1
    39    35    34    1
    40    36    41    1
    41    37    39    1
    42    38    41    2
    43    39    28    2
    44    40    37    1
