@<TRIPOS>MOLECULE
outputs/IAG933/test6/raw/output_3293_IAG933_linker_design_.xyz
 47 51 0 0 0
SMALL
GASTEIGER

@<TRIPOS>ATOM
      1 C         -24.8550   -1.0120   30.1430 C.3     1  UNL1        0.0977
      2 C         -24.9730   -2.5050   29.7880 C.2     1  UNL1       -0.0064
      3 C         -23.9060   -3.1730   29.1460 C.2     1  UNL1       -0.0029
      4 C         -23.9890   -4.5490   28.8530 C.2     1  UNL1       -0.0003
      5 C         -25.1370   -5.2800   29.2050 C.2     1  UNL1       -0.0000
      6 C         -26.2320   -4.6110   29.7840 C.2     1  UNL1       -0.0003
      7 C         -26.1550   -3.2320   30.0650 C.2     1  UNL1       -0.0029
      8 C         -25.3870   -0.6790   31.5710 C.3     1  UNL1        0.0916
      9 C         -25.1890    0.7730   32.0280 C.3     1  UNL1        0.0206
     10 C         -25.3360    0.6840   33.5440 C.3     1  UNL1        0.0203
     11 C         -24.8290   -0.7150   33.9050 C.3     1  UNL1        0.0888
     12 N         -24.7580   -1.4810   32.6460 N.3     1  UNL1       -0.2178
     13 C         -25.6880    1.6140   26.4610 C.2     1  UNL1        0.0913
     14 C         -26.2500    2.9200   26.3950 C.2     1  UNL1        0.0902
     15 C         -25.6420    4.0930   27.1230 C.2     1  UNL1        0.2676
     16 N         -25.6140    5.2520   26.4490 N.am    1  UNL1       -0.1997
     17 C         -25.0260    6.4790   26.9630 C.3     1  UNL1        0.1388
     18 O         -25.1430    3.9660   28.2430 O.2     1  UNL1       -0.2683
     19 C         -27.4380    3.0910   25.6450 C.2     1  UNL1        0.1080
     20 N         -28.0750    2.0890   25.0030 N.2     1  UNL1       -0.2080
     21 C         -27.5430    0.8490   25.0790 C.2     1  UNL1        0.2546
     22 O         -28.1930   -0.2080   24.4770 O.2     1  UNL1       -0.4558
     23 C         -29.4600    0.0050   23.8660 C.3     1  UNL1        0.2426
     24 C         -30.0650   -1.3770   23.5730 C.3     1  UNL1        0.2292
     25 O         -30.7290   -1.8780   24.7210 O.3     1  UNL1       -0.2162
     26 C         -26.3540    0.5760   25.7770 C.2     1  UNL1        0.2066
     27 F         -25.8600   -0.6810   25.7950 F       1  UNL1       -0.1979
     28 C         -23.2496    1.7185   26.6756 C.2     1  UNL1        0.0653
     29 N         -25.4637   -0.1140   29.1345 N.3     1  UNL1       -0.2494
     30 C         -27.0634    0.3074   28.9810 C.3     1  UNL1        0.0602
     31 O         -31.4292    2.4027   29.3084 O.3     1  UNL1       -0.4485
     32 C         -22.2816    1.4274   27.6882 C.2     1  UNL1        0.0308
     33 N         -24.4757    1.3761   27.1517 N.pl3   1  UNL1       -0.2657
     34 O         -30.1029    1.3501   30.7532 O.2     1  UNL1       -0.2501
     35 O         -22.4731    0.1320   29.6851 O.2     1  UNL1       -0.2884
     36 C         -30.5669    0.3152   27.4949 C.3     1  UNL1        0.0002
     37 C         -33.0178    0.9449   27.9864 C.3     1  UNL1        0.0474
     38 C         -20.8014    1.4352   27.7754 C.3     1  UNL1        0.0355
     39 C         -28.5970    2.5144   29.4297 C.3     1  UNL1        0.1109
     40 C         -28.5121   -0.2649   28.9146 C.3     1  UNL1        0.0160
     41 C         -32.5810    1.5200   29.3838 C.3     1  UNL1        0.2084
     42 C         -24.4096    0.6371   28.3844 C.3     1  UNL1        0.2017
     43 C         -31.7893    1.1438   27.0589 C.3     1  UNL1        0.0038
     44 C         -27.2227    1.7825   29.5348 C.3     1  UNL1        0.0277
     45 C         -23.0845    0.6434   28.6957 C.2     1  UNL1        0.2043
     46 C         -29.2254    0.2934   27.7922 C.3     1  UNL1        0.0014
     47 C         -30.1227    2.1010   29.8761 C.2     1  UNL1        0.3170
@<TRIPOS>BOND
     1     1    29    1
     2     2     7    1
     3     2     1    1
     4     3     2    2
     5     4     3    1
     6     4     5    2
     7     5     6    1
     8     6     7    2
     9     8     1    1
    10     8     9    1
    11     8    12    1
    12     9    10    1
    13    10    11    1
    14    12    11    1
    15    13    33    1
    16    14    13    1
    17    14    15    1
    18    15    18    2
    19    16    17    1
    20    16    15    1
    21    19    14    2
    22    20    21    2
    23    20    19    1
    24    21    26    1
    25    22    21    1
    26    23    22    1
    27    24    23    1
    28    24    25    1
    29    26    27    1
    30    26    13    2
    31    28    33    1
    32    28    32    2
    33    30    29    1
    34    30    44    1
    35    31    41    1
    36    31    47    1
    37    32    38    1
    38    32    45    1
    39    33    42    1
    40    36    46    1
    41    37    41    1
    42    39    44    1
    43    39    47    1
    44    40    30    1
    45    42    45    1
    46    42    29    1
    47    43    36    1
    48    43    37    1
    49    45    35    2
    50    46    40    1
    51    47    34    2
