@<TRIPOS>MOLECULE
outputs/IAG933/test6/raw/output_3296_IAG933_linker_design_.xyz
 42 44 0 0 0
SMALL
GASTEIGER

@<TRIPOS>ATOM
      1 C         -24.8550   -1.0120   30.1430 C.3     1  UNL1        0.1337
      2 C         -24.9730   -2.5050   29.7880 C.2     1  UNL1       -0.0032
      3 C         -23.9060   -3.1730   29.1460 C.2     1  UNL1       -0.0028
      4 C         -23.9890   -4.5490   28.8530 C.2     1  UNL1       -0.0003
      5 C         -25.1370   -5.2800   29.2050 C.2     1  UNL1       -0.0000
      6 C         -26.2320   -4.6110   29.7840 C.2     1  UNL1       -0.0003
      7 C         -26.1550   -3.2320   30.0650 C.2     1  UNL1       -0.0028
      8 C         -25.3870   -0.6790   31.5710 C.3     1  UNL1        0.0948
      9 C         -25.1890    0.7730   32.0280 C.3     1  UNL1        0.0207
     10 C         -25.3360    0.6840   33.5440 C.3     1  UNL1        0.0203
     11 C         -24.8290   -0.7150   33.9050 C.3     1  UNL1        0.0888
     12 N         -24.7580   -1.4810   32.6460 N.3     1  UNL1       -0.2176
     13 C         -25.6880    1.6140   26.4610 C.3     1  UNL1        0.1488
     14 C         -26.2500    2.9200   26.3950 C.2     1  UNL1        0.0732
     15 C         -25.6420    4.0930   27.1230 C.2     1  UNL1        0.2640
     16 N         -25.6140    5.2520   26.4490 N.am    1  UNL1       -0.1999
     17 C         -25.0260    6.4790   26.9630 C.3     1  UNL1        0.1388
     18 O         -25.1430    3.9660   28.2430 O.2     1  UNL1       -0.2686
     19 C         -27.4380    3.0910   25.6450 C.2     1  UNL1        0.1038
     20 N         -28.0750    2.0890   25.0030 N.2     1  UNL1       -0.2118
     21 C         -27.5430    0.8490   25.0790 C.2     1  UNL1        0.2358
     22 O         -28.1930   -0.2080   24.4770 O.2     1  UNL1       -0.4585
     23 C         -29.4600    0.0050   23.8660 C.3     1  UNL1        0.2423
     24 C         -30.0650   -1.3770   23.5730 C.3     1  UNL1        0.2292
     25 O         -30.7290   -1.8780   24.7210 O.3     1  UNL1       -0.2162
     26 C         -26.3540    0.5760   25.7770 C.3     1  UNL1        0.2582
     27 F         -25.8600   -0.6810   25.7950 F       1  UNL1       -0.2251
     28 C         -23.3411    2.1034   27.2893 C.3     1  UNL1        0.1441
     29 O         -28.2866    2.4352   29.2963 O.3     1  UNL1       -0.2204
     30 C         -23.4029    1.6925   25.4358 C.2     1  UNL1        0.4476
     31 C         -22.9216    0.2164   28.8727 C.2     1  UNL1        0.3696
     32 O         -22.3867    2.4736   25.2656 O.co2   1  UNL1       -0.2223
     33 C         -22.2475    1.1097   27.7734 C.3     1  UNL1        0.2799
     34 F         -20.7235    1.0192   28.0620 F       1  UNL1       -0.2233
     35 C         -27.5578    0.0394   28.6157 C.3     1  UNL1        0.0564
     36 N         -24.2871    1.4333   26.3917 N.am    1  UNL1       -0.2341
     37 C         -28.4118    1.3849   28.3265 C.3     1  UNL1        0.1837
     38 O         -23.5599    1.0254   24.3338 O.co2   1  UNL1       -0.2223
     39 O         -22.4598   -0.1138   29.9278 O.2     1  UNL1       -0.2452
     40 C         -26.3013    0.7308   28.9912 C.3     1  UNL1        0.1165
     41 O         -23.9904   -0.2899   28.2003 O.3     1  UNL1       -0.3622
     42 N         -25.1303   -0.0764   29.1009 N.3     1  UNL1       -0.1133
@<TRIPOS>BOND
     1     1    42    1
     2     2     7    1
     3     2     1    1
     4     3     2    2
     5     4     3    1
     6     4     5    2
     7     5     6    1
     8     6     7    2
     9     8     1    1
    10     8     9    1
    11     8    12    1
    12     9    10    1
    13    10    11    1
    14    12    11    1
    15    13    36    1
    16    14    13    1
    17    14    15    1
    18    15    18    2
    19    16    17    1
    20    16    15    1
    21    19    14    2
    22    20    21    2
    23    20    19    1
    24    21    26    1
    25    22    21    1
    26    23    22    1
    27    24    23    1
    28    24    25    1
    29    26    27    1
    30    26    13    1
    31    28    33    1
    32    30    36   am
    33    31    39    2
    34    32    30   ar
    35    33    34    1
    36    33    31    1
    37    35    40    1
    38    36    28    1
    39    37    35    1
    40    37    29    1
    41    38    30   ar
    42    40    42    1
    43    41    31    1
    44    41    42    1
