@<TRIPOS>MOLECULE
outputs/IAG933/test6/raw/output_3297_IAG933_linker_design_.xyz
 43 48 0 0 0
SMALL
GASTEIGER

@<TRIPOS>ATOM
      1 C         -24.8550   -1.0120   30.1430 C.3     1  UNK1        0.0540
      2 C         -24.9730   -2.5050   29.7880 C.2     1  UNK1       -0.0199
      3 C         -23.9060   -3.1730   29.1460 C.2     1  UNK1       -0.0042
      4 C         -23.9890   -4.5490   28.8530 C.2     1  UNK1       -0.0003
      5 C         -25.1370   -5.2800   29.2050 C.2     1  UNK1       -0.0000
      6 C         -26.2320   -4.6110   29.7840 C.2     1  UNK1       -0.0003
      7 C         -26.1550   -3.2320   30.0650 C.2     1  UNK1       -0.0042
      8 C         -25.3870   -0.6790   31.5710 C.3     0  UNK0        0.0960
      9 C         -25.1890    0.7730   32.0280 C.3     0  UNK0        0.0936
     10 C         -25.3360    0.6840   33.5440 C.3     0  UNK0        0.0400
     11 C         -24.8290   -0.7150   33.9050 C.3     0  UNK0        0.0905
     12 N         -24.7580   -1.4810   32.6460 N.3     0  UNK0       -0.2174
     13 C         -25.6880    1.6140   26.4610 C.3     1  UNK1        0.0918
     14 C         -26.2500    2.9200   26.3950 C.2     1  UNK1        0.0589
     15 C         -25.6420    4.0930   27.1230 C.2     1  UNK1        0.2628
     16 N         -25.6140    5.2520   26.4490 N.am    1  UNK1       -0.2000
     17 C         -25.0260    6.4790   26.9630 C.3     1  UNK1        0.1388
     18 O         -25.1430    3.9660   28.2430 O.2     1  UNK1       -0.2686
     19 C         -27.4380    3.0910   25.6450 C.2     1  UNK1        0.1025
     20 N         -28.0750    2.0890   25.0030 N.2     1  UNK1       -0.2118
     21 C         -27.5430    0.8490   25.0790 C.2     1  UNK1        0.2344
     22 O         -28.1930   -0.2080   24.4770 O.2     1  UNK1       -0.4585
     23 C         -29.4600    0.0050   23.8660 C.3     1  UNK1        0.2423
     24 C         -30.0650   -1.3770   23.5730 C.3     1  UNK1        0.2292
     25 O         -30.7290   -1.8780   24.7210 O.3     1  UNK1       -0.2162
     26 C         -26.3540    0.5760   25.7770 C.3     1  UNK1        0.2440
     27 F         -25.8600   -0.6810   25.7950 F       1  UNK1       -0.2265
     28 C         -27.1262    2.4284   30.7445 C.3     1  UNK1        0.1835
     29 C         -23.0655    2.1124   26.2588 C.2     1  UNK1       -0.0257
     30 C         -21.8063    1.9464   26.8895 C.2     1  UNK1       -0.0046
     31 C         -21.7304    1.2850   28.1934 C.2     1  UNK1       -0.0006
     32 C         -28.8823    1.1959   29.2466 C.3     1  UNK1        0.0929
     33 C         -22.9087    0.7172   28.7829 C.2     1  UNK1       -0.0038
     34 S         -27.1969    0.0832   29.1141 S.3     1  UNK1       -0.1335
     35 C         -23.0161    2.9988   25.0697 C.3     1  UNK1        0.0307
     36 C         -25.9521    2.7965   31.3607 C.2     1  UNK1        0.2467
     37 C         -28.5552    2.6229   30.3257 C.3     1  UNK1        0.1896
     38 O         -25.1984    3.6950   31.6134 O.2     1  UNK1       -0.2730
     39 C         -24.1297    0.8125   28.1347 C.2     1  UNK1       -0.0160
     40 C         -25.4471   -0.0875   29.0194 C.3     1  UNK1        0.0749
     41 C         -24.2607    1.5126   26.8703 C.2     1  UNK1       -0.0222
     42 N         -26.0334    1.6738   31.2880 N.am    1  UNK1       -0.2698
     43 O         -29.1907    3.7197   30.5982 O.3     1  UNK1       -0.2199
@<TRIPOS>BOND
     1     1     2    1
     2     1     8    1
     3     2     7    1
     4     3     2    2
     5     4     3    1
     6     4     5    2
     7     5     6    1
     8     6     7    2
     9     8     9    1
    10     8    12    1
    11     9    10    1
    12    10    11    1
    13    12    11    1
    14    13    41    1
    15    14    13    1
    16    14    15    1
    17    15    18    2
    18    16    17    1
    19    16    15    1
    20    19    14    2
    21    20    21    2
    22    20    19    1
    23    21    26    1
    24    22    21    1
    25    23    22    1
    26    24    23    1
    27    24    25    1
    28    26    27    1
    29    26    13    1
    30    28    42    1
    31    28    36    1
    32    29    41    2
    33    29    30    1
    34    30    31    2
    35    31    33    1
    36    32    37    1
    37    34    32    1
    38    35    29    1
    39    36    38    2
    40    37    43    1
    41    37    28    1
    42    39    33    2
    43    40    39    1
    44    40    34    1
    45    40     1    1
    46    41    39    1
    47    42    36   am
    48    42     9    1
