@<TRIPOS>MOLECULE
outputs/IAG933/test6/raw/output_3300_IAG933_linker_design_.xyz
 44 47 0 0 0
SMALL
GASTEIGER

@<TRIPOS>ATOM
      1 C         -24.8550   -1.0120   30.1430 C.3     1  UNL1        0.1127
      2 C         -24.9730   -2.5050   29.7880 C.2     1  UNL1       -0.0030
      3 C         -23.9060   -3.1730   29.1460 C.2     1  UNL1       -0.0026
      4 C         -23.9890   -4.5490   28.8530 C.2     1  UNL1       -0.0003
      5 C         -25.1370   -5.2800   29.2050 C.2     1  UNL1       -0.0000
      6 C         -26.2320   -4.6110   29.7840 C.2     1  UNL1       -0.0003
      7 C         -26.1550   -3.2320   30.0650 C.2     1  UNL1       -0.0026
      8 C         -25.3870   -0.6790   31.5710 C.3     1  UNL1        0.0951
      9 C         -25.1890    0.7730   32.0280 C.3     1  UNL1        0.0209
     10 C         -25.3360    0.6840   33.5440 C.3     1  UNL1        0.0203
     11 C         -24.8290   -0.7150   33.9050 C.3     1  UNL1        0.0888
     12 N         -24.7580   -1.4810   32.6460 N.3     1  UNL1       -0.2174
     13 C         -25.6880    1.6140   26.4610 C.2     1  UNL1        0.0702
     14 C         -26.2500    2.9200   26.3950 C.2     1  UNL1        0.0695
     15 C         -25.6420    4.0930   27.1230 C.2     1  UNL1        0.2637
     16 N         -25.6140    5.2520   26.4490 N.am    1  UNL1       -0.2000
     17 C         -25.0260    6.4790   26.9630 C.3     1  UNL1        0.1388
     18 O         -25.1430    3.9660   28.2430 O.2     1  UNL1       -0.2686
     19 C         -27.4380    3.0910   25.6450 C.3     1  UNL1        0.1604
     20 N         -28.0750    2.0890   25.0030 N.2     1  UNL1       -0.2340
     21 C         -27.5430    0.8490   25.0790 C.2     1  UNL1        0.2355
     22 O         -28.1930   -0.2080   24.4770 O.2     1  UNL1       -0.4585
     23 C         -29.4600    0.0050   23.8660 C.3     1  UNL1        0.2423
     24 C         -30.0650   -1.3770   23.5730 C.3     1  UNL1        0.2292
     25 O         -30.7290   -1.8780   24.7210 O.3     1  UNL1       -0.2162
     26 C         -26.3540    0.5760   25.7770 C.3     1  UNL1        0.2707
     27 F         -25.8600   -0.6810   25.7950 F       1  UNL1       -0.2210
     28 C         -23.3927    1.4048   26.4862 C.3     1  UNL1        0.0947
     29 C         -29.4605   -0.3527   27.8901 C.3     1  UNL1        0.0595
     30 O         -22.5464    0.3529   29.7124 O.3     1  UNL1       -0.2194
     31 C         -24.7081    0.9138   28.6818 C.3     1  UNL1        0.1814
     32 C         -30.2094    0.9047   27.7549 C.3     1  UNL1        0.1494
     33 C         -32.1078    3.4544   28.3640 C.3     1  UNL1        0.0642
     34 O         -31.3813    1.1013   28.5067 O.3     1  UNL1       -0.3316
     35 N         -24.8490    1.4291   27.3113 N.pl3   1  UNL1       -0.2922
     36 C         -27.0244   -0.0017   28.8555 C.2     1  UNL1        0.0582
     37 C         -21.0719    1.5493   27.5826 C.3     1  UNL1        0.0045
     38 C         -33.6837    1.5771   28.3989 C.3     1  UNL1        0.0642
     39 C         -23.2346    0.5234   28.5868 C.3     1  UNL1        0.1906
     40 N         -25.6029   -0.0286   29.2551 N.pl3   1  UNL1       -0.2871
     41 C         -32.2503    2.0180   27.9033 C.3     1  UNL1        0.2192
     42 C         -28.5590   -0.2776   29.1432 C.2     1  UNL1       -0.0077
     43 C         -22.5837    1.3813   27.5955 C.3     1  UNL1        0.0537
     44 O         -32.1716    2.0018   26.5202 O.3     1  UNL1       -0.1953
@<TRIPOS>BOND
     1     1    40    1
     2     2     7    1
     3     2     1    1
     4     3     2    2
     5     4     3    1
     6     4     5    2
     7     5     6    1
     8     6     7    2
     9     8     1    1
    10     8     9    1
    11     8    12    1
    12     9    10    1
    13    10    11    1
    14    12    11    1
    15    13    35    1
    16    14    13    2
    17    14    15    1
    18    15    18    2
    19    16    17    1
    20    16    15    1
    21    19    14    1
    22    20    21    2
    23    20    19    1
    24    21    26    1
    25    22    21    1
    26    23    22    1
    27    24    23    1
    28    24    25    1
    29    26    27    1
    30    26    13    1
    31    28    35    1
    32    28    43    1
    33    29    42    1
    34    31    40    1
    35    32    29    1
    36    32    34    1
    37    35    31    1
    38    36    42    2
    39    36    40    1
    40    39    31    1
    41    39    30    1
    42    41    33    1
    43    41    38    1
    44    41    34    1
    45    43    37    1
    46    43    39    1
    47    44    41    1
