@<TRIPOS>MOLECULE
outputs/IAG933/test6/raw/output_3303_IAG933_linker_design_.xyz
 49 53 0 0 0
SMALL
GASTEIGER

@<TRIPOS>ATOM
      1 C         -24.8550   -1.0120   30.1430 C.3     1  UNL1        0.0511
      2 C         -24.9730   -2.5050   29.7880 C.2     1  UNL1       -0.0204
      3 C         -23.9060   -3.1730   29.1460 C.2     1  UNL1       -0.0042
      4 C         -23.9890   -4.5490   28.8530 C.2     1  UNL1       -0.0003
      5 C         -25.1370   -5.2800   29.2050 C.2     1  UNL1       -0.0000
      6 C         -26.2320   -4.6110   29.7840 C.2     1  UNL1       -0.0003
      7 C         -26.1550   -3.2320   30.0650 C.2     1  UNL1       -0.0042
      8 C         -25.3870   -0.6790   31.5710 C.3     1  UNL1        0.0776
      9 C         -25.1890    0.7730   32.0280 C.3     1  UNL1        0.0192
     10 C         -25.3360    0.6840   33.5440 C.3     1  UNL1        0.0202
     11 C         -24.8290   -0.7150   33.9050 C.3     1  UNL1        0.0887
     12 N         -24.7580   -1.4810   32.6460 N.3     1  UNL1       -0.2191
     13 C         -25.6880    1.6140   26.4610 C.3     1  UNL1        0.0899
     14 C         -26.2500    2.9200   26.3950 C.2     1  UNL1        0.0565
     15 C         -25.6420    4.0930   27.1230 C.2     1  UNL1        0.2625
     16 N         -25.6140    5.2520   26.4490 N.am    1  UNL1       -0.2000
     17 C         -25.0260    6.4790   26.9630 C.3     1  UNL1        0.1388
     18 O         -25.1430    3.9660   28.2430 O.2     1  UNL1       -0.2687
     19 C         -27.4380    3.0910   25.6450 C.2     1  UNL1        0.1022
     20 N         -28.0750    2.0890   25.0030 N.2     1  UNL1       -0.2119
     21 C         -27.5430    0.8490   25.0790 C.2     1  UNL1        0.2341
     22 O         -28.1930   -0.2080   24.4770 O.2     1  UNL1       -0.4585
     23 C         -29.4600    0.0050   23.8660 C.3     1  UNL1        0.2423
     24 C         -30.0650   -1.3770   23.5730 C.3     1  UNL1        0.2292
     25 O         -30.7290   -1.8780   24.7210 O.3     1  UNL1       -0.2162
     26 C         -26.3540    0.5760   25.7770 C.3     1  UNL1        0.2417
     27 F         -25.8600   -0.6810   25.7950 F       1  UNL1       -0.2268
     28 C         -29.6775    0.0565   28.5005 C.3     1  UNL1        0.0587
     29 C         -29.5595    1.8291   30.3099 C.3     1  UNL1        0.2342
     30 C         -32.1272   -0.9939   29.4338 C.3     1  UNL1        0.0953
     31 C         -25.9247    1.1680   29.1664 C.2     1  UNL1        0.0154
     32 C         -33.5693   -0.5883   29.2103 C.3     1  UNL1        0.0297
     33 C         -21.7897    1.6035   27.4260 C.3     1  UNL1        0.1149
     34 C         -23.4834    0.3246   28.7021 C.2     1  UNL1        0.2298
     35 C         -27.4059    0.9720   29.6787 C.2     1  UNL1        0.1124
     36 C         -30.4713    0.9793   29.4006 C.3     1  UNL1        0.1607
     37 O         -28.2356    2.1202   29.7820 O.2     1  UNL1       -0.4774
     38 C         -32.3187   -2.2686   30.2955 C.3     1  UNL1        0.0297
     39 O         -31.7214    0.4861   26.8919 O.3     1  UNL1       -0.3534
     40 C         -31.3052    1.7452   26.4588 C.3     1  UNL1        0.1740
     41 C         -31.5599   -1.4912   28.0721 C.3     1  UNL1        0.0568
     42 C         -24.9607   -0.0973   28.9475 C.3     1  UNL1        0.1066
     43 C         -24.1585    1.5404   26.4209 C.3     1  UNL1        0.1012
     44 O         -31.4512    0.1482   30.0803 O.3     1  UNL1       -0.3570
     45 C         -27.8383   -0.2175   30.0642 C.3     1  UNL1        0.0638
     46 C         -30.6810   -0.4202   27.4354 C.3     1  UNL1        0.1201
     47 N         -23.2425    1.2000   27.5538 N.am    1  UNL1       -0.2771
     48 O         -22.5756   -0.2924   29.3554 O.2     1  UNL1       -0.2745
     49 C         -28.8085   -0.9990   29.1945 C.3     1  UNL1        0.0129
@<TRIPOS>BOND
     1     1    42    1
     2     2     7    1
     3     2     1    1
     4     3     2    2
     5     4     3    1
     6     4     5    2
     7     5     6    1
     8     6     7    2
     9     8     1    1
    10     8     9    1
    11     8    12    1
    12     9    10    1
    13    10    11    1
    14    12    11    1
    15    13    43    1
    16    14    13    1
    17    14    15    1
    18    15    18    2
    19    16    17    1
    20    16    15    1
    21    19    14    2
    22    20    21    2
    23    20    19    1
    24    21    26    1
    25    22    21    1
    26    23    22    1
    27    24    23    1
    28    24    25    1
    29    26    27    1
    30    26    13    1
    31    28    49    1
    32    28    36    1
    33    30    44    1
    34    30    38    1
    35    31    35    2
    36    32    30    1
    37    33    47    1
    38    34    42    1
    39    34    48    2
    40    35    37    1
    41    35    45    1
    42    36    44    1
    43    36    29    1
    44    37    29    1
    45    40    39    1
    46    41    30    1
    47    42    31    1
    48    43    47    1
    49    46    39    1
    50    46    41    1
    51    46    28    1
    52    47    34   am
    53    49    45    1
