@<TRIPOS>MOLECULE
No_3305-gen_results/8p0m/2024-11-27-11-27-31/
 12 13 0 0 0
SMALL
GASTEIGER

@<TRIPOS>ATOM
      1 C         -28.0162   -0.8135   28.8779 C.ar    1  UNL1        0.0013
      2 C         -27.0636   -0.1190   28.6079 C.ar    1  UNL1        0.0001
      3 C         -27.0010    0.6913   27.4910 C.ar    1  UNL1        0.0013
      4 C         -28.1373    0.7363   26.6350 C.ar    1  UNL1        0.0145
      5 C         -29.2360    0.0765   27.0690 C.ar    1  UNL1        0.0478
      6 C         -29.2177   -0.6429   28.1747 C.ar    1  UNL1        0.0145
      7 N         -30.3516    0.1564   26.2430 N.pl3   1  UNL1       -0.3075
      8 C         -31.0938    1.0560   26.0906 C.3     1  UNL1        0.0908
      9 C         -32.2092    0.9924   25.1737 C.3     1  UNL1        0.0215
     10 C         -30.6881   -0.9897   25.4325 C.3     1  UNL1        0.0908
     11 C         -31.6126   -0.9823   24.6528 C.3     1  UNL1        0.0215
     12 C         -32.4648   -0.0052   24.4659 C.3     1  UNL1        0.0035
@<TRIPOS>BOND
     1     5     7    1
     2     7     8    1
     3     7    10    1
     4     9    12    1
     5    11    12    1
     6     8     9    1
     7    11    10    1
     8     1     2   ar
     9     2     3   ar
    10     3     4   ar
    11     4     5   ar
    12     5     6   ar
    13     6     1   ar
