@<TRIPOS>MOLECULE
outputs/IAG933/test6/raw/output_3306_IAG933_linker_design_.xyz
 45 50 0 0 0
SMALL
GASTEIGER

@<TRIPOS>ATOM
      1 C         -24.8550   -1.0120   30.1430 C.3     1  UNL1        0.0678
      2 C         -24.9730   -2.5050   29.7880 C.2     1  UNL1       -0.0187
      3 C         -23.9060   -3.1730   29.1460 C.2     1  UNL1       -0.0042
      4 C         -23.9890   -4.5490   28.8530 C.2     1  UNL1       -0.0003
      5 C         -25.1370   -5.2800   29.2050 C.2     1  UNL1       -0.0000
      6 C         -26.2320   -4.6110   29.7840 C.2     1  UNL1       -0.0003
      7 C         -26.1550   -3.2320   30.0650 C.2     1  UNL1       -0.0042
      8 C         -25.3870   -0.6790   31.5710 C.3     1  UNL1        0.0792
      9 C         -25.1890    0.7730   32.0280 C.3     1  UNL1        0.0193
     10 C         -25.3360    0.6840   33.5440 C.3     1  UNL1        0.0202
     11 C         -24.8290   -0.7150   33.9050 C.3     1  UNL1        0.0887
     12 N         -24.7580   -1.4810   32.6460 N.3     1  UNL1       -0.2190
     13 C         -25.6880    1.6140   26.4610 C.2     1  UNL1        0.0383
     14 C         -26.2500    2.9200   26.3950 C.2     1  UNL1        0.0764
     15 C         -25.6420    4.0930   27.1230 C.2     1  UNL1        0.2664
     16 N         -25.6140    5.2520   26.4490 N.am    1  UNL1       -0.1997
     17 C         -25.0260    6.4790   26.9630 C.3     1  UNL1        0.1388
     18 O         -25.1430    3.9660   28.2430 O.2     1  UNL1       -0.2683
     19 C         -27.4380    3.0910   25.6450 C.2     1  UNL1        0.1067
     20 N         -28.0750    2.0890   25.0030 N.2     1  UNL1       -0.2081
     21 C         -27.5430    0.8490   25.0790 C.2     1  UNL1        0.2533
     22 O         -28.1930   -0.2080   24.4770 O.2     1  UNL1       -0.4558
     23 C         -29.4600    0.0050   23.8660 C.3     1  UNL1        0.2426
     24 C         -30.0650   -1.3770   23.5730 C.3     1  UNL1        0.2292
     25 O         -30.7290   -1.8780   24.7210 O.3     1  UNL1       -0.2162
     26 C         -26.3540    0.5760   25.7770 C.2     1  UNL1        0.1929
     27 F         -25.8600   -0.6810   25.7950 F       1  UNL1       -0.1992
     28 C         -28.0251    2.0257   30.8219 C.3     1  UNL1        0.0298
     29 C         -28.2139    0.0649   29.1211 C.3     1  UNL1        0.0296
     30 F         -20.9521    1.4901   27.9350 F       1  UNL1       -0.1811
     31 C         -24.4029    1.3018   27.1722 C.2     1  UNL1        0.0361
     32 C         -24.1874    0.5085   28.2816 C.3     1  UNL1        0.1575
     33 O         -29.9674    3.7239   33.3095 O.3     1  UNL1       -0.2231
     34 C         -29.2871    1.2675   30.9151 C.3     1  UNL1        0.0050
     35 O         -26.0596    0.9781   29.3475 O.3     1  UNL1       -0.3560
     36 C         -23.1332    1.7754   26.8704 C.2     1  UNL1        0.1834
     37 C         -29.5667    3.0784   32.2211 C.3     1  UNL1        0.1521
     38 N         -22.8458    0.5586   28.6733 N.2     1  UNL1       -0.2371
     39 C         -29.4515   -0.0915   30.2739 C.3     1  UNL1        0.0027
     40 C         -22.2146    1.2776   27.7990 C.2     1  UNL1        0.2456
     41 C         -28.2378    3.1696   31.7136 C.3     1  UNL1        0.0353
     42 C         -30.2742    2.0107   31.5892 C.3     1  UNL1        0.0330
     43 C         -27.4141    1.1240   29.4835 C.3     1  UNL1        0.1152
     44 F         -22.7275    2.5608   25.9002 F       1  UNL1       -0.2004
     45 C         -25.3082   -0.1486   28.9703 C.3     1  UNL1        0.1469
@<TRIPOS>BOND
     1     1    45    1
     2     2     7    1
     3     2     1    1
     4     3     2    2
     5     4     3    1
     6     4     5    2
     7     5     6    1
     8     6     7    2
     9     8     1    1
    10     8     9    1
    11     8    12    1
    12     9    10    1
    13    10    11    1
    14    12    11    1
    15    13    31    1
    16    14    13    1
    17    14    15    1
    18    15    18    2
    19    16    17    1
    20    16    15    1
    21    19    14    2
    22    20    21    2
    23    20    19    1
    24    21    26    1
    25    22    21    1
    26    23    22    1
    27    24    23    1
    28    24    25    1
    29    26    27    1
    30    26    13    2
    31    28    34    1
    32    28    41    1
    33    29    43    1
    34    29    39    1
    35    31    32    1
    36    32    38    1
    37    32    45    1
    38    34    39    1
    39    34    42    1
    40    36    31    2
    41    36    40    1
    42    37    33    1
    43    40    30    1
    44    40    38    2
    45    41    37    1
    46    42    37    1
    47    43    35    1
    48    43    28    1
    49    44    36    1
    50    45    35    1
