@<TRIPOS>MOLECULE
outputs/IAG933/test6/raw/output_3310_IAG933_linker_design_.xyz
 42 46 0 0 0
SMALL
GASTEIGER

@<TRIPOS>ATOM
      1 C         -24.8550   -1.0120   30.1430 C.3     1  UNL1        0.1114
      2 C         -24.9730   -2.5050   29.7880 C.2     1  UNL1       -0.0030
      3 C         -23.9060   -3.1730   29.1460 C.2     1  UNL1       -0.0026
      4 C         -23.9890   -4.5490   28.8530 C.2     1  UNL1       -0.0003
      5 C         -25.1370   -5.2800   29.2050 C.2     1  UNL1       -0.0000
      6 C         -26.2320   -4.6110   29.7840 C.2     1  UNL1       -0.0003
      7 C         -26.1550   -3.2320   30.0650 C.2     1  UNL1       -0.0026
      8 C         -25.3870   -0.6790   31.5710 C.3     1  UNL1        0.0950
      9 C         -25.1890    0.7730   32.0280 C.3     1  UNL1        0.0209
     10 C         -25.3360    0.6840   33.5440 C.3     1  UNL1        0.0203
     11 C         -24.8290   -0.7150   33.9050 C.3     1  UNL1        0.0888
     12 N         -24.7580   -1.4810   32.6460 N.3     1  UNL1       -0.2174
     13 C         -25.6880    1.6140   26.4610 C.3     1  UNL1        0.1269
     14 C         -26.2500    2.9200   26.3950 C.2     1  UNL1        0.0620
     15 C         -25.6420    4.0930   27.1230 C.2     1  UNL1        0.2629
     16 N         -25.6140    5.2520   26.4490 N.am    1  UNL1       -0.2000
     17 C         -25.0260    6.4790   26.9630 C.3     1  UNL1        0.1388
     18 O         -25.1430    3.9660   28.2430 O.2     1  UNL1       -0.2686
     19 C         -27.4380    3.0910   25.6450 C.2     1  UNL1        0.1026
     20 N         -28.0750    2.0890   25.0030 N.2     1  UNL1       -0.2118
     21 C         -27.5430    0.8490   25.0790 C.2     1  UNL1        0.2345
     22 O         -28.1930   -0.2080   24.4770 O.2     1  UNL1       -0.4585
     23 C         -29.4600    0.0050   23.8660 C.3     1  UNL1        0.2423
     24 C         -30.0650   -1.3770   23.5730 C.3     1  UNL1        0.2292
     25 O         -30.7290   -1.8780   24.7210 O.3     1  UNL1       -0.2162
     26 C         -26.3540    0.5760   25.7770 C.3     1  UNL1        0.2471
     27 F         -25.8600   -0.6810   25.7950 F       1  UNL1       -0.2264
     28 C         -22.2946    2.4292   25.3140 C.3     1  UNL1        0.3367
     29 C         -20.6916    0.8420   27.8941 C.2     1  UNL1        0.0190
     30 C         -24.2794    1.4585   26.6644 C.2     1  UNL1        0.1281
     31 N         -24.6921   -0.0515   29.0342 N.pl3   1  UNL1       -0.3015
     32 O         -23.6886    2.1801   25.5608 O.2     1  UNL1       -0.4560
     33 C         -27.2673    0.6219   29.3929 C.3     1  UNL1        0.1636
     34 C         -20.8414   -0.0704   28.9381 C.2     1  UNL1        0.0028
     35 C         -23.2773    0.1184   28.7609 C.2     1  UNL1        0.0522
     36 N         -21.5643    1.9661   26.1183 N.2     1  UNL1       -0.2268
     37 O         -27.6098   -0.6785   28.9255 O.3     1  UNL1       -0.3493
     38 C         -25.7011    1.0899   28.9431 C.3     1  UNL1        0.1232
     39 C         -21.8606    1.2876   27.1859 C.2     1  UNL1        0.0836
     40 C         -28.9647   -1.0115   29.1830 C.3     1  UNL1        0.1742
     41 C         -23.1622    0.9546   27.5781 C.2     1  UNL1        0.0609
     42 C         -22.1060   -0.4136   29.4003 C.2     1  UNL1        0.0147
@<TRIPOS>BOND
     1     1    31    1
     2     2     7    1
     3     2     1    1
     4     3     2    2
     5     4     3    1
     6     4     5    2
     7     5     6    1
     8     6     7    2
     9     8     1    1
    10     8     9    1
    11     8    12    1
    12     9    10    1
    13    10    11    1
    14    12    11    1
    15    13    30    1
    16    14    13    1
    17    14    15    1
    18    15    18    2
    19    16    17    1
    20    16    15    1
    21    19    14    2
    22    20    21    2
    23    20    19    1
    24    21    26    1
    25    22    21    1
    26    23    22    1
    27    24    23    1
    28    24    25    1
    29    26    27    1
    30    26    13    1
    31    28    32    1
    32    28    36    1
    33    29    34    2
    34    30    41    2
    35    32    30    1
    36    34    42    1
    37    35    31    1
    38    35    42    2
    39    36    39    2
    40    37    40    1
    41    37    33    1
    42    38    31    1
    43    38    33    1
    44    39    41    1
    45    39    29    1
    46    41    35    1
