@<TRIPOS>MOLECULE
No_3311-gen_results/8p0m/2024-11-27-11-27-31/
 8 8 0 0 0
SMALL
GASTEIGER

@<TRIPOS>ATOM
      1 C         -28.0162   -0.8135   28.8779 C.ar    1  UNL1        0.1402
      2 C         -28.4690   -0.7850   29.8287 C.ar    1  UNL1        0.0305
      3 F         -27.0143   -1.6184   28.6838 F       1  UNL1       -0.2042
      4 C         -29.6471    0.0499   30.1551 C.ar    1  UNL1        0.0137
      5 C         -29.9936    0.9316   29.1198 C.ar    1  UNL1        0.0578
      6 C         -29.2939    0.9017   27.9571 C.ar    1  UNL1        0.0137
      7 C         -28.2303    0.0419   27.8206 C.ar    1  UNL1        0.0305
      8 CL        -31.2952    2.0066   29.3517 Cl      1  UNL1       -0.0822
@<TRIPOS>BOND
     1     1     3    1
     2     5     8    1
     3     1     2   ar
     4     2     4   ar
     5     4     5   ar
     6     5     6   ar
     7     6     7   ar
     8     7     1   ar
