@<TRIPOS>MOLECULE
No_3314-gen_results/8p0m/2024-11-27-11-27-31/
 35 38 0 0 0
SMALL
GASTEIGER

@<TRIPOS>ATOM
      1 C         -28.0162   -0.8135   28.8779 C.3     1  UNL1        0.1125
      2 C         -27.0636   -0.1189   28.6079 C.ar    1  UNL1        0.0019
      3 C         -25.7923   -0.4302   29.0761 C.ar    1  UNL1        0.0515
      4 C         -24.5456    0.3494   28.8225 C.ar    1  UNL1        0.0123
      5 C         -24.6586    1.4196   27.8878 C.ar    1  UNL1        0.0984
      6 C         -25.9471    1.6811   27.3792 C.ar    1  UNL1        0.0191
      7 C         -27.0439    0.9739   27.6871 C.ar    1  UNL1        0.0546
      8 C         -28.6597   -0.4600   30.2006 C.2     1  UNL1        0.2303
      9 N         -28.5440    0.4585   30.7537 N.am    1  UNL1       -0.2751
     10 C         -29.0604    0.6640   32.0730 C.3     1  UNL1        0.0938
     11 O         -29.6324   -1.3667   30.6102 O.2     1  UNL1       -0.2745
     12 C         -23.4778    2.1823   27.6088 C.2     1  UNL1        0.4766
     13 N         -22.5052    1.8014   27.1777 N.pl3   1  UNL1        0.2047
     14 N         -23.4805    3.4831   27.9863 N.pl3   1  UNL1        0.2047
     15 CL        -28.5227    1.4005   26.9647 Cl      1  UNL1       -0.0826
     16 C         -25.4903   -1.5039   30.0567 C.2     1  UNL1        0.2544
     17 N         -25.4480   -2.6323   29.7352 N.am    1  UNL1       -0.2237
     18 C         -24.3658   -3.2239   29.1542 C.3     1  UNL1        0.2369
     19 C         -26.5601   -3.6672   29.8296 C.2     1  UNL1        0.1317
     20 N         -24.4950   -4.5481   28.7821 N.2     1  UNL1       -0.2046
     21 C         -25.7761   -4.8502   29.3084 C.1     1  UNL1        0.0111
     22 O         -25.4422   -1.1939   31.3640 O.2     1  UNL1       -0.2695
     23 C         -28.5973    1.8673   32.7985 C.3     1  UNL1        0.0240
     24 C         -27.9119    2.6002   32.2529 C.3     1  UNL1        0.0310
     25 C         -27.3141    2.5263   30.9243 C.3     1  UNL1        0.1129
     26 C         -27.6469    1.4464   30.3317 C.3     1  UNL1        0.1183
     27 C         -28.3384    2.1217   29.4694 C.2     1  UNL1       -0.0281
     28 C         -28.4916    3.5099   29.1837 C.2     1  UNL1       -0.0330
     29 C         -29.7600    1.7002   29.2206 C.3     1  UNL1        0.0278
     30 C         -27.4332    4.4387   29.3111 C.3     1  UNL1        0.0255
     31 C         -26.1512    3.3779   30.7218 C.3     1  UNL1        0.0272
     32 C         -26.4144    4.5247   30.1200 C.3     1  UNL1        0.0070
     33 O         -26.3726    2.4209   31.7055 O.3     1  UNL1       -0.3539
     34 C         -24.7885    2.7611   30.4141 C.3     1  UNL1        0.0025
     35 C         -26.4396    1.6510   32.8573 C.3     1  UNL1        0.1740
@<TRIPOS>BOND
     1     1     2    1
     2     1     8    1
     3     8     9   am
     4     9    10    1
     5     8    11    2
     6     5    12    1
     7    12    13    2
     8    12    14    1
     9     7    15    1
    10     3    16    1
    11    16    17   am
    12    17    18    1
    13    17    19    1
    14    18    20    1
    15    19    21    2
    16    20    21    2
    17    16    22    2
    18    10    23    1
    19    24    25    1
    20     9    26    1
    21    25    26    1
    22    26    27    1
    23    27    28    2
    24    27    29    1
    25    28    30    1
    26    25    31    1
    27    30    32    1
    28    31    32    1
    29    25    33    1
    30    31    34    1
    31    33    35    1
    32    23    24    1
    33     2     3   ar
    34     3     4   ar
    35     4     5   ar
    36     5     6   ar
    37     6     7   ar
    38     7     2   ar
