@<TRIPOS>MOLECULE
No_3329-gen_results/8p0m/2024-11-27-11-27-31/
 19 20 0 0 0
SMALL
GASTEIGER

@<TRIPOS>ATOM
      1 C         -28.0162   -0.8135   28.8779 C.ar    1  UNL1        0.0369
      2 C         -28.4690   -0.7850   29.8287 C.ar    1  UNL1        0.0031
      3 C         -28.1960    0.3478   28.0550 C.ar    1  UNL1        0.1386
      4 C         -29.0191    1.3501   28.3782 C.ar    1  UNL1        0.0369
      5 C         -29.4107    0.1803   30.3782 C.ar    1  UNL1        0.0002
      6 C         -29.6059    1.2495   29.6193 C.ar    1  UNL1        0.0031
      7 O         -27.5003    0.3576   26.8164 O.3     1  UNL1       -0.4755
      8 C         -26.4976    1.3388   26.6595 C.3     1  UNL1        0.2057
      9 C         -25.2287    0.7278   26.6101 C.3     1  UNL1        0.0520
     10 C         -24.7403   -0.0443   27.4738 C.3     1  UNL1        0.0315
     11 C         -24.1165    0.2969   28.7211 C.ar    1  UNL1       -0.0068
     12 C         -23.5386   -0.6304   29.6115 C.ar    1  UNL1       -0.0030
     13 C         -22.7887   -0.2303   30.7094 C.ar    1  UNL1       -0.0002
     14 C         -23.9676    1.6629   29.2230 C.ar    1  UNL1        0.0665
     15 N         -24.5761    2.6524   28.4042 N.pl3   1  UNL1       -0.2115
     16 C         -22.9701    1.0605   31.1693 C.ar    1  UNL1        0.0013
     17 C         -23.4932    2.0488   30.4393 C.ar    1  UNL1        0.0162
     18 C         -25.1782    3.7774   28.7284 C.2     1  UNL1        0.0857
     19 C         -25.4946    4.7687   27.7651 C.2     1  UNL1        0.0192
@<TRIPOS>BOND
     1     3     7    1
     2     7     8    1
     3     8     9    1
     4     9    10    1
     5    14    15    1
     6    15    18    1
     7    18    19    2
     8    10    11    1
     9    11    12   ar
    10    12    13   ar
    11    13    16   ar
    12    16    17   ar
    13    17    14   ar
    14    14    11   ar
    15     1     2   ar
    16     2     5   ar
    17     5     6   ar
    18     6     4   ar
    19     4     3   ar
    20     3     1   ar
