@<TRIPOS>MOLECULE
No_333-gen_results/8p0m/2024-11-27-11-27-31/
 14 14 0 0 0
SMALL
GASTEIGER

@<TRIPOS>ATOM
      1 N         -28.0544   -1.0498   28.7246 N.am    1  UNL1       -0.1698
      2 C         -26.9659   -0.4722   28.7709 C.ar    1  UNL1        0.0739
      3 C         -26.8423    0.7388   29.2341 C.ar    1  UNL1        0.0173
      4 C         -25.5486    1.4687   29.2980 C.ar    1  UNL1        0.0116
      5 C         -24.3901    0.7986   28.8486 C.ar    1  UNL1        0.0685
      6 C         -23.1202    1.3895   28.8509 C.1     1  UNL1        0.1004
      7 C         -25.6899   -1.1556   28.3418 C.ar    1  UNL1        0.0173
      8 C         -24.4591   -0.5379   28.3730 C.ar    1  UNL1        0.0116
      9 N         -22.3063    1.6487   28.2142 N.1     1  UNL1       -0.1908
     10 C         -29.2291   -0.4699   29.1934 C.2     1  UNL1        0.3491
     11 C         -30.3507   -1.2234   29.2250 C.2     1  UNL1        0.4422
     12 O         -31.1782   -1.0107   28.2447 O.co2   1  UNL1       -0.2353
     13 O         -30.6021   -2.1610   30.0560 O.co2   1  UNL1       -0.2353
     14 O         -29.3000    0.7202   29.6167 O.2     1  UNL1       -0.2607
@<TRIPOS>BOND
     1     5     6    1
     2     6     9    3
     3     1    10   am
     4    10    11    1
     5    11    12   ar
     6    11    13   ar
     7    10    14    2
     8     1     2    1
     9     2     3   ar
    10     3     4   ar
    11     4     5   ar
    12     5     8   ar
    13     8     7   ar
    14     7     2   ar
