@<TRIPOS>MOLECULE
outputs/IAG933/test6/raw/output_3333_IAG933_linker_design_.xyz
 48 53 0 0 0
SMALL
GASTEIGER

@<TRIPOS>ATOM
      1 C         -24.8550   -1.0120   30.1430 C.3     1  UNL1        0.2055
      2 C         -24.9730   -2.5050   29.7880 C.2     1  UNL1        0.0186
      3 C         -23.9060   -3.1730   29.1460 C.2     1  UNL1       -0.0008
      4 C         -23.9890   -4.5490   28.8530 C.2     1  UNL1       -0.0002
      5 C         -25.1370   -5.2800   29.2050 C.2     1  UNL1       -0.0000
      6 C         -26.2320   -4.6110   29.7840 C.2     1  UNL1       -0.0002
      7 C         -26.1550   -3.2320   30.0650 C.2     1  UNL1       -0.0008
      8 C         -25.3870   -0.6790   31.5710 C.3     1  UNL1        0.1170
      9 C         -25.1890    0.7730   32.0280 C.3     1  UNL1        0.0229
     10 C         -25.3360    0.6840   33.5440 C.3     1  UNL1        0.0204
     11 C         -24.8290   -0.7150   33.9050 C.3     1  UNL1        0.0888
     12 N         -24.7580   -1.4810   32.6460 N.3     1  UNL1       -0.2154
     13 C         -25.6880    1.6140   26.4610 C.3     1  UNL1        0.0748
     14 C         -26.2500    2.9200   26.3950 C.2     1  UNL1        0.0529
     15 C         -25.6420    4.0930   27.1230 C.2     1  UNL1        0.2180
     16 N         -25.6140    5.2520   26.4490 N.2     1  UNL1       -0.2359
     17 C         -25.0260    6.4790   26.9630 C.3     1  UNL1        0.1550
     18 O         -25.1430    3.9660   28.2430 O.2     1  UNL1       -0.4565
     19 C         -27.4380    3.0910   25.6450 C.2     1  UNL1        0.1022
     20 N         -28.0750    2.0890   25.0030 N.2     1  UNL1       -0.2119
     21 C         -27.5430    0.8490   25.0790 C.2     1  UNL1        0.2341
     22 O         -28.1930   -0.2080   24.4770 O.2     1  UNL1       -0.4585
     23 C         -29.4600    0.0050   23.8660 C.3     1  UNL1        0.2423
     24 C         -30.0650   -1.3770   23.5730 C.3     1  UNL1        0.2292
     25 O         -30.7290   -1.8780   24.7210 O.3     1  UNL1       -0.2162
     26 C         -26.3540    0.5760   25.7770 C.3     1  UNL1        0.2403
     27 F         -25.8600   -0.6810   25.7950 F       1  UNL1       -0.2269
     28 C         -22.3540    1.2883   27.7133 C.2     1  UNL1        0.1571
     29 C         -26.4001    4.4708   32.7923 C.2     1  UNL1        0.1749
     30 C         -23.7953    0.9823   27.9226 C.2     1  UNL1        0.0642
     31 C         -26.4231    4.6617   35.1295 C.3     1  UNL1        0.2353
     32 C         -22.6568    2.0784   25.5065 C.3     1  UNL1        0.2521
     33 O         -27.5436    5.3783   35.0768 O.2     1  UNL1       -0.4643
     34 C         -28.1455    5.7261   33.9075 C.2     1  UNL1        0.2126
     35 C         -25.1100    4.7028   29.4782 C.3     1  UNL1        0.2542
     36 O         -25.8831    4.0311   31.6618 O.2     1  UNL1       -0.4685
     37 C         -25.7266    4.3188   33.9811 C.2     1  UNL1        0.0608
     38 O         -25.2076   -0.1461   29.1436 O.2     1  UNL1       -0.4583
     39 C         -23.8901    0.1432   28.8445 C.2     1  UNL1        0.2209
     40 C         -26.1023    4.9937   30.6029 C.3     1  UNL1        0.2527
     41 O         -28.2850    5.0135   31.5414 O.2     1  UNL1       -0.4653
     42 C         -24.8722    1.3029   27.5153 C.3     1  UNL1        0.0418
     43 O         -21.9270    2.0974   26.7226 O.2     1  UNL1       -0.4724
     44 C         -27.6096    4.7852   30.2986 C.3     1  UNL1        0.2528
     45 C         -21.7493    0.4015   28.5151 C.3     1  UNL1        0.2518
     46 C         -27.6517    5.0838   32.7263 C.2     1  UNL1        0.2091
     47 N         -22.6405   -0.2303   29.2915 N.2     1  UNL1       -0.2125
     48 N         -20.4238    0.1220   28.5553 N.3     1  UNL1       -0.0977
@<TRIPOS>BOND
     1     1    38    1
     2     2     7    1
     3     2     1    1
     4     3     2    2
     5     4     3    1
     6     4     5    2
     7     5     6    1
     8     6     7    2
     9     8     1    1
    10     8     9    1
    11     8    12    1
    12     9    10    1
    13    10    11    1
    14    12    11    1
    15    13    42    1
    16    14    13    1
    17    14    15    1
    18    15    18    1
    19    16    17    1
    20    16    15    2
    21    18    35    1
    22    19    14    2
    23    20    21    2
    24    20    19    1
    25    21    26    1
    26    22    21    1
    27    23    22    1
    28    24    23    1
    29    24    25    1
    30    26    27    1
    31    26    13    1
    32    28    30    2
    33    28    45    1
    34    29    37    2
    35    30    39    1
    36    32    43    1
    37    33    31    1
    38    34    33    1
    39    36    29    1
    40    37    31    1
    41    39    38    1
    42    39    47    2
    43    40    35    1
    44    40    36    1
    45    41    46    1
    46    42    30    1
    47    43    28    1
    48    44    40    1
    49    44    41    1
    50    45    48    1
    51    45    47    1
    52    46    29    1
    53    46    34    2
