@<TRIPOS>MOLECULE
No_3336-gen_results/8p0m/2024-11-27-11-27-31/
 29 31 0 0 0
SMALL
GASTEIGER

@<TRIPOS>ATOM
      1 C         -28.0162   -0.8135   28.8779 C.ar    1  UNL1        0.0113
      2 C         -28.4690   -0.7850   29.8287 C.ar    1  UNL1        0.0031
      3 C         -28.1960    0.3478   28.0550 C.ar    1  UNL1        0.0576
      4 C         -29.0191    1.3501   28.3782 C.ar    1  UNL1        0.0103
      5 C         -29.4107    0.1803   30.3782 C.ar    1  UNL1        0.0532
      6 C         -29.2236    2.4924   27.5425 C.ar    1  UNL1       -0.0007
      7 C         -29.5873    1.2242   29.6185 C.ar    1  UNL1        0.0031
      8 C         -29.6857    2.5583   26.5724 C.ar    1  UNL1       -0.0001
      9 C         -29.8460    3.7992   25.6980 C.ar    1  UNL1        0.0023
     10 C         -29.3067    5.0010   26.1982 C.ar    1  UNL1        0.0293
     11 C         -28.6312    4.9598   27.3839 C.ar    1  UNL1        0.1365
     12 C         -28.5528    3.7698   28.0874 C.ar    1  UNL1        0.0097
     13 CL        -27.3673    0.3392   26.5282 Cl      1  UNL1       -0.0822
     14 C         -30.0426    0.0228   31.7648 C.3     1  UNL1        0.3500
     15 CL        -30.1886    1.2128   32.7372 Cl      1  UNL1       -0.0423
     16 F         -29.3922   -0.9520   32.4627 F       1  UNL1       -0.1825
     17 F         -31.3035   -0.5487   31.4493 F       1  UNL1       -0.1825
     18 F         -28.1438    6.0434   27.8760 F       1  UNL1       -0.2045
     19 C         -27.8628    3.8334   29.4655 C.3     1  UNL1        0.0543
     20 C         -26.5298    3.2269   29.5709 C.2     1  UNL1       -0.0256
     21 C         -25.5894    3.6307   28.6619 C.2     1  UNL1       -0.0261
     22 C         -24.3628    2.8962   28.5872 C.ar    1  UNL1       -0.0082
     23 C         -23.7927    2.7123   27.2974 C.ar    1  UNL1       -0.0222
     24 C         -22.7362    1.8146   27.1954 C.ar    1  UNL1       -0.0043
     25 C         -22.1811    1.1710   28.3382 C.ar    1  UNL1       -0.0003
     26 C         -22.8388    1.3266   29.5297 C.ar    1  UNL1       -0.0000
     27 C         -23.8967    2.1585   29.6797 C.ar    1  UNL1       -0.0006
     28 C         -24.2711    3.3874   26.1654 C.3     1  UNL1        0.0310
     29 C         -25.0944    5.1228   28.8262 C.3     1  UNL1        0.0307
@<TRIPOS>BOND
     1     4     6    1
     2     3    13    1
     3     5    14    1
     4    14    15    1
     5    14    16    1
     6    14    17    1
     7    11    18    1
     8    12    19    1
     9    19    20    1
    10    20    21    2
    11    21    22    1
    12    23    28    1
    13    21    29    1
    14    22    23   ar
    15    23    24   ar
    16    24    25   ar
    17    25    26   ar
    18    26    27   ar
    19    27    22   ar
    20     6     8   ar
    21     8     9   ar
    22     9    10   ar
    23    10    11   ar
    24    11    12   ar
    25    12     6   ar
    26     1     2   ar
    27     2     5   ar
    28     5     7   ar
    29     7     4   ar
    30     4     3   ar
    31     3     1   ar
