@<TRIPOS>MOLECULE
outputs/IAG933/test6/raw/output_3338_IAG933_linker_design_.xyz
 43 46 0 0 0
SMALL
GASTEIGER

@<TRIPOS>ATOM
      1 C         -24.8550   -1.0120   30.1430 C.3     1  UNL1        0.1180
      2 C         -24.9730   -2.5050   29.7880 C.2     1  UNL1       -0.0026
      3 C         -23.9060   -3.1730   29.1460 C.2     1  UNL1       -0.0026
      4 C         -23.9890   -4.5490   28.8530 C.2     1  UNL1       -0.0003
      5 C         -25.1370   -5.2800   29.2050 C.2     1  UNL1       -0.0000
      6 C         -26.2320   -4.6110   29.7840 C.2     1  UNL1       -0.0003
      7 C         -26.1550   -3.2320   30.0650 C.2     1  UNL1       -0.0026
      8 C         -25.3870   -0.6790   31.5710 C.3     1  UNL1        0.0955
      9 C         -25.1890    0.7730   32.0280 C.3     1  UNL1        0.0209
     10 C         -25.3360    0.6840   33.5440 C.3     1  UNL1        0.0203
     11 C         -24.8290   -0.7150   33.9050 C.3     1  UNL1        0.0888
     12 N         -24.7580   -1.4810   32.6460 N.3     1  UNL1       -0.2174
     13 C         -25.6880    1.6140   26.4610 C.2     1  UNL1        0.0423
     14 C         -26.2500    2.9200   26.3950 C.2     1  UNL1        0.0767
     15 C         -25.6420    4.0930   27.1230 C.2     1  UNL1        0.2664
     16 N         -25.6140    5.2520   26.4490 N.am    1  UNL1       -0.1997
     17 C         -25.0260    6.4790   26.9630 C.3     1  UNL1        0.1388
     18 O         -25.1430    3.9660   28.2430 O.2     1  UNL1       -0.2683
     19 C         -27.4380    3.0910   25.6450 C.2     1  UNL1        0.1067
     20 N         -28.0750    2.0890   25.0030 N.2     1  UNL1       -0.2081
     21 C         -27.5430    0.8490   25.0790 C.2     1  UNL1        0.2533
     22 O         -28.1930   -0.2080   24.4770 O.2     1  UNL1       -0.4558
     23 C         -29.4600    0.0050   23.8660 C.3     1  UNL1        0.2426
     24 C         -30.0650   -1.3770   23.5730 C.3     1  UNL1        0.2292
     25 O         -30.7290   -1.8780   24.7210 O.3     1  UNL1       -0.2162
     26 C         -26.3540    0.5760   25.7770 C.2     1  UNL1        0.1932
     27 F         -25.8600   -0.6810   25.7950 F       1  UNL1       -0.1992
     28 F         -21.5745    0.2742   29.7749 F       1  UNL1       -0.2016
     29 C         -22.3228    0.4822   28.6961 C.2     1  UNL1        0.1717
     30 O         -22.9617    2.0078   25.4719 O.2     1  UNL1       -0.4690
     31 C         -29.0485    1.7794   28.8878 C.3     1  UNL1        0.0096
     32 C         -27.6385    1.6939   29.5341 C.3     1  UNL1        0.0771
     33 C         -26.8838    0.3401   29.0374 C.2     1  UNL1        0.2291
     34 C         -23.4524    1.1905   24.4214 C.3     1  UNL1        0.2526
     35 C         -24.5167    0.3931   28.3581 C.2     1  UNL1        0.0595
     36 C         -24.4725    1.1739   27.2334 C.2     1  UNL1        0.0526
     37 C         -23.3779    0.0918   28.7210 C.2     1  UNL1        0.0471
     38 O         -27.6298   -0.5188   28.5877 O.2     1  UNL1       -0.2745
     39 C         -27.8944    2.0913   31.0688 C.3     1  UNL1        0.0096
     40 C         -23.1745    1.4982   26.7408 C.2     1  UNL1        0.1694
     41 F         -20.8607    1.7186   27.2541 F       1  UNL1       -0.1986
     42 N         -25.5016    0.0133   29.1812 N.am    1  UNL1       -0.2548
     43 C         -22.0761    1.2476   27.5536 C.2     1  UNL1        0.2011
@<TRIPOS>BOND
     1     1    42    1
     2     2     7    1
     3     2     1    1
     4     3     2    2
     5     4     3    1
     6     4     5    2
     7     5     6    1
     8     6     7    2
     9     8     1    1
    10     8     9    1
    11     8    12    1
    12     9    10    1
    13    10    11    1
    14    12    11    1
    15    13    36    1
    16    14    13    1
    17    14    15    1
    18    15    18    2
    19    16    17    1
    20    16    15    1
    21    19    14    2
    22    20    21    2
    23    20    19    1
    24    21    26    1
    25    22    21    1
    26    23    22    1
    27    24    23    1
    28    24    25    1
    29    26    27    1
    30    26    13    2
    31    29    37    1
    32    29    28    1
    33    30    40    1
    34    31    32    1
    35    32    39    1
    36    33    42   am
    37    33    32    1
    38    34    30    1
    39    35    37    2
    40    35    42    1
    41    36    35    1
    42    38    33    2
    43    40    36    2
    44    40    43    1
    45    41    43    1
    46    43    29    2
