@<TRIPOS>MOLECULE
outputs/IAG933/test6/raw/output_3340_IAG933_linker_design_.xyz
 40 42 0 0 0
SMALL
GASTEIGER

@<TRIPOS>ATOM
      1 C         -24.8550   -1.0120   30.1430 C.3     1  UNL1        0.0438
      2 C         -24.9730   -2.5050   29.7880 C.2     1  UNL1       -0.0208
      3 C         -23.9060   -3.1730   29.1460 C.2     1  UNL1       -0.0042
      4 C         -23.9890   -4.5490   28.8530 C.2     1  UNL1       -0.0003
      5 C         -25.1370   -5.2800   29.2050 C.2     1  UNL1       -0.0000
      6 C         -26.2320   -4.6110   29.7840 C.2     1  UNL1       -0.0003
      7 C         -26.1550   -3.2320   30.0650 C.2     1  UNL1       -0.0042
      8 C         -25.3870   -0.6790   31.5710 C.3     1  UNL1        0.0795
      9 C         -25.1890    0.7730   32.0280 C.3     1  UNL1        0.0455
     10 C         -25.3360    0.6840   33.5440 C.3     1  UNL1        0.0226
     11 C         -24.8290   -0.7150   33.9050 C.3     1  UNL1        0.0888
     12 N         -24.7580   -1.4810   32.6460 N.3     1  UNL1       -0.2190
     13 C         -25.6880    1.6140   26.4610 C.2     1  UNL1        0.1069
     14 C         -26.2500    2.9200   26.3950 C.2     1  UNL1        0.0915
     15 C         -25.6420    4.0930   27.1230 C.2     1  UNL1        0.2677
     16 N         -25.6140    5.2520   26.4490 N.am    1  UNL1       -0.1997
     17 C         -25.0260    6.4790   26.9630 C.3     1  UNL1        0.1388
     18 O         -25.1430    3.9660   28.2430 O.2     1  UNL1       -0.2683
     19 C         -27.4380    3.0910   25.6450 C.2     1  UNL1        0.1080
     20 N         -28.0750    2.0890   25.0030 N.2     1  UNL1       -0.2080
     21 C         -27.5430    0.8490   25.0790 C.2     1  UNL1        0.2546
     22 O         -28.1930   -0.2080   24.4770 O.2     1  UNL1       -0.4558
     23 C         -29.4600    0.0050   23.8660 C.3     1  UNL1        0.2426
     24 C         -30.0650   -1.3770   23.5730 C.3     1  UNL1        0.2292
     25 O         -30.7290   -1.8780   24.7210 O.3     1  UNL1       -0.2162
     26 C         -26.3540    0.5760   25.7770 C.2     1  UNL1        0.2079
     27 F         -25.8600   -0.6810   25.7950 F       1  UNL1       -0.1979
     28 O         -24.6110    2.4036   30.5207 O.3     1  UNL1       -0.3500
     29 C         -25.7280    2.0659   31.4136 C.3     1  UNL1        0.1260
     30 N         -26.7470    5.4980   32.9227 N.am    1  UNL1       -0.0877
     31 O         -24.7098    4.7509   32.3328 O.2     1  UNL1       -0.2716
     32 C         -25.8955    4.5702   32.3186 C.2     1  UNL1        0.2632
     33 C         -24.8272    1.8865   29.2814 C.3     1  UNL1        0.2092
     34 C         -23.8459    1.7476   28.0983 C.3     1  UNL1        0.2968
     35 N         -24.4111    1.3665   26.8559 N.pl3   1  UNL1       -0.1944
     36 C         -21.6612    1.3048   27.6557 C.2     1  UNL1        0.5533
     37 O         -21.6333    2.0518   26.6804 O.co2   1  UNL1       -0.1999
     38 O         -22.6311    1.4874   28.5906 O.3     1  UNL1       -0.3957
     39 C         -26.5165    3.3901   31.5585 C.3     1  UNL1        0.1180
     40 O         -20.8034    0.4848   27.7682 O.co2   1  UNL1       -0.1999
@<TRIPOS>BOND
     1     2     7    1
     2     2     1    1
     3     3     2    2
     4     4     3    1
     5     4     5    2
     6     5     6    1
     7     6     7    2
     8     8     1    1
     9     8     9    1
    10     8    12    1
    11     9    29    1
    12     9    10    1
    13    10    11    1
    14    12    11    1
    15    13    35    1
    16    14    13    1
    17    14    15    1
    18    15    18    2
    19    16    17    1
    20    16    15    1
    21    19    14    2
    22    20    21    2
    23    20    19    1
    24    21    26    1
    25    22    21    1
    26    23    22    1
    27    24    23    1
    28    24    25    1
    29    26    27    1
    30    26    13    2
    31    28    29    1
    32    29    39    1
    33    32    31    2
    34    32    30    1
    35    33    28    1
    36    34    38    1
    37    34    33    1
    38    35    34    1
    39    36    40   ar
    40    36    38    1
    41    37    36   ar
    42    39    32    1
