@<TRIPOS>MOLECULE
No_3341-gen_results/8p0m/2024-11-27-11-27-31/
 27 29 0 0 0
SMALL
GASTEIGER

@<TRIPOS>ATOM
      1 C         -28.0162   -0.8135   28.8779 C.ar    1  UNL1        0.0370
      2 C         -27.0636   -0.1190   28.6079 C.ar    1  UNL1        0.0031
      3 C         -25.7923   -0.4302   29.0761 C.ar    1  UNL1        0.0002
      4 C         -24.5456    0.3494   28.8225 C.ar    1  UNL1        0.0000
      5 C         -23.2409    0.0217   29.3323 C.ar    1  UNL1        0.0000
      6 C         -27.8820   -1.8995   29.8633 C.ar    1  UNL1        0.1409
      7 C         -26.6526   -2.3142   30.3138 C.ar    1  UNL1        0.0370
      8 C         -25.5153   -1.5607   29.9787 C.ar    1  UNL1        0.0030
      9 C         -23.2072   -1.2289   30.0311 C.ar    1  UNL1        0.0000
     10 C         -24.2434   -1.9361   30.3879 C.ar    1  UNL1        0.0001
     11 C         -24.5886    1.5613   27.9544 C.ar    1  UNL1        0.0000
     12 C         -24.8107    2.6834   28.5551 C.ar    1  UNL1        0.0000
     13 C         -25.1287    3.8444   27.7787 C.ar    1  UNL1        0.0000
     14 C         -24.4050    1.4363   26.6163 C.ar    1  UNL1        0.0000
     15 C         -24.5474    2.5515   25.7815 C.ar    1  UNL1        0.0000
     16 C         -24.8138    3.8081   26.3952 C.ar    1  UNL1        0.0000
     17 O         -29.0008   -2.6402   30.1191 O.3     1  UNL1       -0.4532
     18 C         -30.0956   -2.0392   30.6152 C.3     1  UNL1        0.3385
     19 C         -30.6210   -2.7841   31.6814 C.3     1  UNL1        0.3856
     20 CL        -29.9487   -4.0625   32.0917 Cl      1  UNL1       -0.0416
     21 F         -30.6313   -2.0034   32.8440 F       1  UNL1       -0.1807
     22 F         -31.9657   -2.9389   31.2551 F       1  UNL1       -0.1807
     23 N         -31.0200   -1.7581   29.5531 N.pl3   1  UNL1       -0.1922
     24 C         -30.8894   -0.5651   28.8104 C.2     1  UNL1        0.0840
     25 C         -32.0961   -0.2609   28.1822 C.2     1  UNL1        0.0175
     26 C         -32.2528    0.9927   27.6952 C.2     1  UNL1        0.0014
     27 C         -33.4229    1.4266   27.1235 C.2     1  UNL1        0.0000
@<TRIPOS>BOND
     1     4    11    1
     2     6    17    1
     3    17    18    1
     4    18    19    1
     5    19    20    1
     6    19    21    1
     7    19    22    1
     8    18    23    1
     9    23    24    1
    10    24    25    2
    11    25    26    1
    12    26    27    2
    13     1     2   ar
    14     2     3   ar
    15     8     7   ar
    16     7     6   ar
    17     6     1   ar
    18     3     4   ar
    19     4     5   ar
    20     5     9   ar
    21     9    10   ar
    22    10     8   ar
    23     8     3   ar
    24    11    12   ar
    25    12    13   ar
    26    13    16   ar
    27    16    15   ar
    28    15    14   ar
    29    14    11   ar
