@<TRIPOS>MOLECULE
outputs/IAG933/test6/raw/output_3344_IAG933_linker_design_.xyz
 42 45 0 0 0
SMALL
GASTEIGER

@<TRIPOS>ATOM
      1 C         -24.8550   -1.0120   30.1430 C.3     1  UNL1        0.1115
      2 C         -24.9730   -2.5050   29.7880 C.2     1  UNL1       -0.0030
      3 C         -23.9060   -3.1730   29.1460 C.2     1  UNL1       -0.0026
      4 C         -23.9890   -4.5490   28.8530 C.2     1  UNL1       -0.0003
      5 C         -25.1370   -5.2800   29.2050 C.2     1  UNL1       -0.0000
      6 C         -26.2320   -4.6110   29.7840 C.2     1  UNL1       -0.0003
      7 C         -26.1550   -3.2320   30.0650 C.2     1  UNL1       -0.0026
      8 C         -25.3870   -0.6790   31.5710 C.3     1  UNL1        0.0950
      9 C         -25.1890    0.7730   32.0280 C.3     1  UNL1        0.0209
     10 C         -25.3360    0.6840   33.5440 C.3     1  UNL1        0.0203
     11 C         -24.8290   -0.7150   33.9050 C.3     1  UNL1        0.0888
     12 N         -24.7580   -1.4810   32.6460 N.3     1  UNL1       -0.2174
     13 C         -25.6880    1.6140   26.4610 C.2     1  UNL1        0.0321
     14 C         -26.2500    2.9200   26.3950 C.2     1  UNL1        0.0735
     15 C         -25.6420    4.0930   27.1230 C.2     1  UNL1        0.2661
     16 N         -25.6140    5.2520   26.4490 N.am    1  UNL1       -0.1997
     17 C         -25.0260    6.4790   26.9630 C.3     1  UNL1        0.1388
     18 O         -25.1430    3.9660   28.2430 O.2     1  UNL1       -0.2683
     19 C         -27.4380    3.0910   25.6450 C.2     1  UNL1        0.1064
     20 N         -28.0750    2.0890   25.0030 N.2     1  UNL1       -0.2081
     21 C         -27.5430    0.8490   25.0790 C.2     1  UNL1        0.2530
     22 O         -28.1930   -0.2080   24.4770 O.2     1  UNL1       -0.4558
     23 C         -29.4600    0.0050   23.8660 C.3     1  UNL1        0.2426
     24 C         -30.0650   -1.3770   23.5730 C.3     1  UNL1        0.2292
     25 O         -30.7290   -1.8780   24.7210 O.3     1  UNL1       -0.2162
     26 C         -26.3540    0.5760   25.7770 C.2     1  UNL1        0.1900
     27 F         -25.8600   -0.6810   25.7950 F       1  UNL1       -0.1996
     28 O         -27.9858    0.2726   29.4269 O.2     1  UNL1       -0.2943
     29 C         -24.1398    0.5738   28.3009 C.2     1  UNL1        0.0760
     30 C         -25.8541    1.2719   29.4895 C.3     1  UNL1        0.1562
     31 C         -21.7854    1.1200   28.0673 C.2     1  UNL1        0.4373
     32 N         -21.9749    1.8033   26.8927 N.am    1  UNL1        0.0366
     33 C         -24.3499    1.3232   27.0747 C.3     1  UNL1        0.1683
     34 C         -26.9935    3.6570   30.8108 C.3     1  UNL1        0.0083
     35 C         -27.9084    2.5381   30.2944 C.3     1  UNL1        0.0663
     36 C         -27.3142    1.2665   29.7167 C.2     1  UNL1        0.1705
     37 C         -22.8968    0.5417   28.7914 C.2     1  UNL1        0.2381
     38 C         -23.2139    1.7931   26.3149 C.2     1  UNL1        0.3614
     39 N         -20.4214    1.0079   28.4428 N.pl3   1  UNL1        0.2167
     40 N         -25.2125   -0.0053   29.0998 N.pl3   1  UNL1       -0.2984
     41 F         -22.6251   -0.1130   29.9388 F       1  UNL1       -0.1952
     42 O         -23.3319    2.2071   25.0759 O.2     1  UNL1       -0.2421
@<TRIPOS>BOND
     1     1    40    1
     2     2     7    1
     3     2     1    1
     4     3     2    2
     5     4     3    1
     6     4     5    2
     7     5     6    1
     8     6     7    2
     9     8     1    1
    10     8     9    1
    11     8    12    1
    12     9    10    1
    13    10    11    1
    14    12    11    1
    15    14    13    1
    16    14    15    1
    17    15    18    2
    18    16    17    1
    19    16    15    1
    20    19    14    2
    21    20    21    2
    22    20    19    1
    23    21    26    1
    24    22    21    1
    25    23    22    1
    26    24    23    1
    27    24    25    1
    28    26    27    1
    29    26    13    2
    30    28    36    2
    31    29    37    2
    32    29    40    1
    33    30    36    1
    34    31    39    1
    35    31    37    1
    36    32    31    2
    37    33    13    1
    38    33    29    1
    39    35    34    1
    40    36    35    1
    41    37    41    1
    42    38    32    1
    43    38    33    1
    44    40    30    1
    45    42    38    2
