@<TRIPOS>MOLECULE
outputs/IAG933/test6/raw/output_3347_IAG933_linker_design_.xyz
 43 47 0 0 0
SMALL
GASTEIGER

@<TRIPOS>ATOM
      1 C         -24.8550   -1.0120   30.1430 C.3     1  UNL1        0.0621
      2 C         -24.9730   -2.5050   29.7880 C.2     1  UNL1       -0.0192
      3 C         -23.9060   -3.1730   29.1460 C.2     1  UNL1       -0.0042
      4 C         -23.9890   -4.5490   28.8530 C.2     1  UNL1       -0.0003
      5 C         -25.1370   -5.2800   29.2050 C.2     1  UNL1       -0.0000
      6 C         -26.2320   -4.6110   29.7840 C.2     1  UNL1       -0.0003
      7 C         -26.1550   -3.2320   30.0650 C.2     1  UNL1       -0.0042
      8 C         -25.3870   -0.6790   31.5710 C.3     1  UNL1        0.0788
      9 C         -25.1890    0.7730   32.0280 C.3     1  UNL1        0.0193
     10 C         -25.3360    0.6840   33.5440 C.3     1  UNL1        0.0202
     11 C         -24.8290   -0.7150   33.9050 C.3     1  UNL1        0.0887
     12 N         -24.7580   -1.4810   32.6460 N.3     1  UNL1       -0.2191
     13 C         -25.6880    1.6140   26.4610 C.2     1  UNL1        0.0336
     14 C         -26.2500    2.9200   26.3950 C.2     1  UNL1        0.0762
     15 C         -25.6420    4.0930   27.1230 C.2     1  UNL1        0.2664
     16 N         -25.6140    5.2520   26.4490 N.am    1  UNL1       -0.1997
     17 C         -25.0260    6.4790   26.9630 C.3     1  UNL1        0.1388
     18 O         -25.1430    3.9660   28.2430 O.2     1  UNL1       -0.2683
     19 C         -27.4380    3.0910   25.6450 C.2     1  UNL1        0.1067
     20 N         -28.0750    2.0890   25.0030 N.2     1  UNL1       -0.2081
     21 C         -27.5430    0.8490   25.0790 C.2     1  UNL1        0.2533
     22 O         -28.1930   -0.2080   24.4770 O.2     1  UNL1       -0.4558
     23 C         -29.4600    0.0050   23.8660 C.3     1  UNL1        0.2426
     24 C         -30.0650   -1.3770   23.5730 C.3     1  UNL1        0.2292
     25 O         -30.7290   -1.8780   24.7210 O.3     1  UNL1       -0.2162
     26 C         -26.3540    0.5760   25.7770 C.2     1  UNL1        0.1927
     27 F         -25.8600   -0.6810   25.7950 F       1  UNL1       -0.1993
     28 C         -29.4449    0.2988   28.7533 C.2     1  UNL1        0.0763
     29 C         -23.3032    1.6167   26.4797 C.3     1  UNL1        0.0262
     30 C         -30.8620    0.8909   26.8422 C.2     1  UNL1        0.0400
     31 C         -24.3617    0.6049   28.1872 C.2     1  UNL1       -0.0282
     32 O         -27.7425    1.2271   30.2338 O.2     1  UNL1       -0.2686
     33 C         -29.8746    1.2298   27.7797 C.2     1  UNL1        0.0071
     34 C         -25.4773    0.0849   29.1616 C.3     1  UNL1        0.1189
     35 C         -22.9644    0.4818   28.4472 C.3     1  UNL1        0.0237
     36 C         -30.3474   -0.7808   29.0610 C.3     1  UNL1        0.2367
     37 N         -26.8526   -0.2507   28.7153 N.am    1  UNL1       -0.1991
     38 O         -31.4603   -0.9550   28.2901 O.2     1  UNL1       -0.4674
     39 C         -27.9795    0.4636   29.2857 C.2     1  UNL1        0.2646
     40 C         -24.5257    1.3164   27.0030 C.2     1  UNL1       -0.0259
     41 C         -31.6548   -0.2439   27.1269 C.2     1  UNL1        0.1727
     42 C         -20.9484    1.8522   27.5959 C.3     1  UNL1        0.0007
     43 C         -22.3693    1.2564   27.4923 C.3     1  UNL1        0.0084
@<TRIPOS>BOND
     1     1    34    1
     2     2     7    1
     3     2     1    1
     4     3     2    2
     5     4     3    1
     6     4     5    2
     7     5     6    1
     8     6     7    2
     9     8     1    1
    10     8     9    1
    11     8    12    1
    12     9    10    1
    13    10    11    1
    14    12    11    1
    15    13    40    1
    16    14    13    1
    17    14    15    1
    18    15    18    2
    19    16    17    1
    20    16    15    1
    21    19    14    2
    22    20    21    2
    23    20    19    1
    24    21    26    1
    25    22    21    1
    26    23    22    1
    27    24    23    1
    28    24    25    1
    29    26    27    1
    30    26    13    2
    31    28    36    1
    32    28    39    1
    33    29    40    1
    34    29    43    1
    35    30    41    2
    36    30    33    1
    37    31    35    1
    38    31    34    1
    39    33    28    2
    40    34    37    1
    41    37    39    1
    42    38    36    1
    43    39    32    2
    44    40    31    2
    45    41    38    1
    46    43    42    1
    47    43    35    1
