@<TRIPOS>MOLECULE
outputs/IAG933/test6/raw/output_3348_IAG933_linker_design_.xyz
 38 41 0 0 0
SMALL
GASTEIGER

@<TRIPOS>ATOM
      1 C         -24.8550   -1.0120   30.1430 C.3     1  UNL1        0.1506
      2 C         -24.9730   -2.5050   29.7880 C.2     1  UNL1        0.0018
      3 C         -23.9060   -3.1730   29.1460 C.2     1  UNL1       -0.0023
      4 C         -23.9890   -4.5490   28.8530 C.2     1  UNL1       -0.0003
      5 C         -25.1370   -5.2800   29.2050 C.2     1  UNL1       -0.0000
      6 C         -26.2320   -4.6110   29.7840 C.2     1  UNL1       -0.0003
      7 C         -26.1550   -3.2320   30.0650 C.2     1  UNL1       -0.0023
      8 C         -25.3870   -0.6790   31.5710 C.3     1  UNL1        0.0999
      9 C         -25.1890    0.7730   32.0280 C.3     1  UNL1        0.0212
     10 C         -25.3360    0.6840   33.5440 C.3     1  UNL1        0.0203
     11 C         -24.8290   -0.7150   33.9050 C.3     1  UNL1        0.0888
     12 N         -24.7580   -1.4810   32.6460 N.3     1  UNL1       -0.2171
     13 C         -25.6880    1.6140   26.4610 C.2     1  UNL1        0.0413
     14 C         -26.2500    2.9200   26.3950 C.2     1  UNL1        0.0766
     15 C         -25.6420    4.0930   27.1230 C.2     1  UNL1        0.2664
     16 N         -25.6140    5.2520   26.4490 N.am    1  UNL1       -0.1997
     17 C         -25.0260    6.4790   26.9630 C.3     1  UNL1        0.1388
     18 O         -25.1430    3.9660   28.2430 O.2     1  UNL1       -0.2683
     19 C         -27.4380    3.0910   25.6450 C.2     1  UNL1        0.1067
     20 N         -28.0750    2.0890   25.0030 N.2     1  UNL1       -0.2081
     21 C         -27.5430    0.8490   25.0790 C.2     1  UNL1        0.2533
     22 O         -28.1930   -0.2080   24.4770 O.2     1  UNL1       -0.4558
     23 C         -29.4600    0.0050   23.8660 C.3     1  UNL1        0.2426
     24 C         -30.0650   -1.3770   23.5730 C.3     1  UNL1        0.2292
     25 O         -30.7290   -1.8780   24.7210 O.3     1  UNL1       -0.2162
     26 C         -26.3540    0.5760   25.7770 C.2     1  UNL1        0.1931
     27 F         -25.8600   -0.6810   25.7950 F       1  UNL1       -0.1992
     28 O         -25.7668   -0.3030   28.1513 O.2     1  UNL1       -0.2849
     29 C         -23.5237    1.9919   26.5022 C.2     1  UNL1        0.0344
     30 C         -23.5059    0.3655   28.7240 C.2     1  UNL1        0.1429
     31 C         -24.6812    0.4455   28.0097 C.2     1  UNL1        0.2147
     32 O         -22.7651   -0.3648   30.5650 O.3     1  UNL1       -0.0838
     33 F         -21.0956    2.2691   26.6051 F       1  UNL1       -0.2027
     34 N         -21.0701    0.8011   28.8130 N.pl3   1  UNL1       -0.1240
     35 C         -22.2775    0.9304   28.2332 C.2     1  UNL1        0.1372
     36 C         -24.6107    1.3729   27.0407 C.2     1  UNL1        0.0453
     37 C         -22.2632    1.7773   27.0649 C.2     1  UNL1        0.1584
     38 N         -23.7163   -0.2637   29.8244 N.3     1  UNL1       -0.1986
@<TRIPOS>BOND
     1     1    38    1
     2     2     7    1
     3     2     1    1
     4     3     2    2
     5     4     3    1
     6     4     5    2
     7     5     6    1
     8     6     7    2
     9     8     1    1
    10     8     9    1
    11     8    12    1
    12     9    10    1
    13    10    11    1
    14    12    11    1
    15    13    36    1
    16    14    13    1
    17    14    15    1
    18    15    18    2
    19    16    17    1
    20    16    15    1
    21    19    14    2
    22    20    21    2
    23    20    19    1
    24    21    26    1
    25    22    21    1
    26    23    22    1
    27    24    23    1
    28    24    25    1
    29    26    27    1
    30    26    13    2
    31    29    36    2
    32    29    37    1
    33    30    38    1
    34    31    28    1
    35    31    30    2
    36    33    37    1
    37    35    30    1
    38    35    34    1
    39    36    31    1
    40    37    35    2
    41    38    32    1
