@<TRIPOS>MOLECULE
No_335-gen_results/8p0m/2024-11-27-11-27-31/
 18 19 0 0 0
SMALL
GASTEIGER

@<TRIPOS>ATOM
      1 C         -28.0162   -0.8135   28.8779 C.2     1  UNL1        0.0775
      2 C         -27.0636   -0.1189   28.6079 C.2     1  UNL1       -0.0230
      3 C         -25.7647   -0.3897   29.0360 C.3     1  UNL1        0.0493
      4 C         -24.5516    0.4058   28.7646 C.ar    1  UNL1       -0.0220
      5 C         -24.6957    1.4480   27.7988 C.ar    1  UNL1       -0.0255
      6 C         -25.9755    1.7250   27.3077 C.3     1  UNL1        0.0304
      7 C         -27.0718    1.0134   27.6535 C.3     1  UNL1        0.0284
      8 N         -28.6077   -0.5909   30.1098 N.pl3   1  UNL1       -0.2105
      9 C         -23.4939    2.1690   27.4794 C.ar    1  UNL1       -0.0046
     10 C         -22.3698    1.6022   27.3678 C.ar    1  UNL1       -0.0003
     11 C         -22.0898    0.5308   28.3015 C.ar    1  UNL1       -0.0003
     12 C         -23.2077   -0.1654   28.9765 C.ar    1  UNL1       -0.0043
     13 C         -29.4657   -0.2927   30.5869 C.2     1  UNL1        0.0857
     14 C         -30.5153    0.1655   29.7948 C.2     1  UNL1        0.0178
     15 C         -31.7530    0.6172   30.3860 C.2     1  UNL1        0.0014
     16 C         -32.6866    1.2301   29.5981 C.2     1  UNL1        0.0000
     17 C         -32.4882    1.2714   28.2004 C.2     1  UNL1        0.0000
     18 C         -31.3444    0.8205   27.6313 C.2     1  UNL1        0.0000
@<TRIPOS>BOND
     1     1     2    2
     2     2     3    1
     3     3     4    1
     4     5     6    1
     5     2     7    1
     6     6     7    1
     7     1     8    1
     8     8    13    1
     9    13    14    2
    10    14    15    1
    11    15    16    2
    12    16    17    1
    13    17    18    2
    14     4     5   ar
    15     5     9   ar
    16     9    10   ar
    17    10    11   ar
    18    11    12   ar
    19    12     4   ar
