@<TRIPOS>MOLECULE
outputs/IAG933/test6/raw/output_3350_IAG933_linker_design_.xyz
 42 46 0 0 0
SMALL
GASTEIGER

@<TRIPOS>ATOM
      1 C         -24.8550   -1.0120   30.1430 C.3     1  UNL1        0.0538
      2 C         -24.9730   -2.5050   29.7880 C.2     1  UNL1       -0.0198
      3 C         -23.9060   -3.1730   29.1460 C.2     1  UNL1       -0.0042
      4 C         -23.9890   -4.5490   28.8530 C.2     1  UNL1       -0.0003
      5 C         -25.1370   -5.2800   29.2050 C.2     1  UNL1       -0.0000
      6 C         -26.2320   -4.6110   29.7840 C.2     1  UNL1       -0.0003
      7 C         -26.1550   -3.2320   30.0650 C.2     1  UNL1       -0.0042
      8 C         -25.3870   -0.6790   31.5710 C.3     1  UNL1        0.0850
      9 C         -25.1890    0.7730   32.0280 C.3     1  UNL1        0.0754
     10 C         -25.3360    0.6840   33.5440 C.3     1  UNL1        0.0275
     11 C         -24.8290   -0.7150   33.9050 C.3     1  UNL1        0.0891
     12 N         -24.7580   -1.4810   32.6460 N.3     1  UNL1       -0.2186
     13 C         -25.6880    1.6140   26.4610 C.3     1  UNL1        0.0890
     14 C         -26.2500    2.9200   26.3950 C.2     1  UNL1        0.0565
     15 C         -25.6420    4.0930   27.1230 C.2     1  UNL1        0.2625
     16 N         -25.6140    5.2520   26.4490 N.am    1  UNL1       -0.2000
     17 C         -25.0260    6.4790   26.9630 C.3     1  UNL1        0.1388
     18 O         -25.1430    3.9660   28.2430 O.2     1  UNL1       -0.2687
     19 C         -27.4380    3.0910   25.6450 C.2     1  UNL1        0.1022
     20 N         -28.0750    2.0890   25.0030 N.2     1  UNL1       -0.2119
     21 C         -27.5430    0.8490   25.0790 C.2     1  UNL1        0.2341
     22 O         -28.1930   -0.2080   24.4770 O.2     1  UNL1       -0.4585
     23 C         -29.4600    0.0050   23.8660 C.3     1  UNL1        0.2423
     24 C         -30.0650   -1.3770   23.5730 C.3     1  UNL1        0.2292
     25 O         -30.7290   -1.8780   24.7210 O.3     1  UNL1       -0.2162
     26 C         -26.3540    0.5760   25.7770 C.3     1  UNL1        0.2416
     27 F         -25.8600   -0.6810   25.7950 F       1  UNL1       -0.2268
     28 C         -24.0637   -0.0939   29.2180 C.3     1  UNL1        0.0697
     29 C         -24.7358    1.2337   27.4148 C.3     1  UNL1        0.0893
     30 C         -26.2199    0.9185   29.1184 C.3     1  UNL1        0.2591
     31 O         -24.8346    3.0570   31.4142 O.2     1  UNL1       -0.2960
     32 C         -27.1038    2.8031   31.4319 C.3     1  UNL1        0.0723
     33 C         -25.6846    2.2489   31.6227 C.2     1  UNL1        0.1521
     34 C         -22.4516    1.2682   27.8452 C.2     1  UNL1       -0.0235
     35 C         -21.1400    1.6418   27.4920 C.2     1  UNL1       -0.0045
     36 C         -23.3904    1.3789   26.7790 C.2     1  UNL1       -0.0112
     37 C         -22.7499    0.6923   29.2177 C.3     1  UNL1        0.0425
     38 C         -23.1132    1.5501   25.3973 C.2     1  UNL1       -0.0033
     39 C         -20.8315    1.8454   26.1381 C.2     1  UNL1       -0.0003
     40 C         -21.7719    1.7837   25.1146 C.2     1  UNL1       -0.0003
     41 O         -27.2897    0.8449   29.1228 O.3     1  UNL1       -0.2005
     42 N         -24.9907    1.0209   28.8395 N.3     1  UNL1       -0.2427
@<TRIPOS>BOND
     1     1     2    1
     2     2     7    1
     3     3     2    2
     4     4     3    1
     5     4     5    2
     6     5     6    1
     7     6     7    2
     8     8     1    1
     9     8     9    1
    10     8    12    1
    11     9    33    1
    12     9    10    1
    13    10    11    1
    14    12    11    1
    15    13    14    1
    16    13    29    1
    17    14    15    1
    18    15    18    2
    19    16    17    1
    20    16    15    1
    21    19    14    2
    22    20    21    2
    23    20    19    1
    24    21    26    1
    25    22    21    1
    26    23    22    1
    27    24    23    1
    28    24    25    1
    29    26    27    1
    30    26    13    1
    31    28     1    1
    32    29    36    1
    33    29    42    1
    34    30    41    1
    35    31    33    2
    36    32    33    1
    37    34    37    1
    38    35    34    1
    39    36    34    2
    40    37    28    1
    41    38    36    1
    42    39    35    2
    43    40    38    2
    44    40    39    1
    45    42    30    1
    46    42    28    1
