@<TRIPOS>MOLECULE
outputs/IAG933/test6/raw/output_3356_IAG933_linker_design_.xyz
 48 52 0 0 0
SMALL
GASTEIGER

@<TRIPOS>ATOM
      1 C         -24.8550   -1.0120   30.1430 C.3     1  UNL1        0.2039
      2 C         -24.9730   -2.5050   29.7880 C.2     1  UNL1        0.0186
      3 C         -23.9060   -3.1730   29.1460 C.2     1  UNL1       -0.0008
      4 C         -23.9890   -4.5490   28.8530 C.2     1  UNL1       -0.0002
      5 C         -25.1370   -5.2800   29.2050 C.2     1  UNL1       -0.0000
      6 C         -26.2320   -4.6110   29.7840 C.2     1  UNL1       -0.0002
      7 C         -26.1550   -3.2320   30.0650 C.2     1  UNL1       -0.0008
      8 C         -25.3870   -0.6790   31.5710 C.3     1  UNL1        0.1169
      9 C         -25.1890    0.7730   32.0280 C.3     1  UNL1        0.0219
     10 C         -25.3360    0.6840   33.5440 C.3     1  UNL1        0.0203
     11 C         -24.8290   -0.7150   33.9050 C.3     1  UNL1        0.0888
     12 N         -24.7580   -1.4810   32.6460 N.3     1  UNL1       -0.2154
     13 C         -25.6880    1.6140   26.4610 C.2     1  UNL1        0.0412
     14 C         -26.2500    2.9200   26.3950 C.2     1  UNL1        0.0766
     15 C         -25.6420    4.0930   27.1230 C.2     1  UNL1        0.2664
     16 N         -25.6140    5.2520   26.4490 N.am    1  UNL1       -0.1997
     17 C         -25.0260    6.4790   26.9630 C.3     1  UNL1        0.1388
     18 O         -25.1430    3.9660   28.2430 O.2     1  UNL1       -0.2683
     19 C         -27.4380    3.0910   25.6450 C.2     1  UNL1        0.1067
     20 N         -28.0750    2.0890   25.0030 N.2     1  UNL1       -0.2081
     21 C         -27.5430    0.8490   25.0790 C.2     1  UNL1        0.2533
     22 O         -28.1930   -0.2080   24.4770 O.2     1  UNL1       -0.4558
     23 C         -29.4600    0.0050   23.8660 C.3     1  UNL1        0.2426
     24 C         -30.0650   -1.3770   23.5730 C.3     1  UNL1        0.2292
     25 O         -30.7290   -1.8780   24.7210 O.3     1  UNL1       -0.2162
     26 C         -26.3540    0.5760   25.7770 C.2     1  UNL1        0.1931
     27 F         -25.8600   -0.6810   25.7950 F       1  UNL1       -0.1992
     28 C         -22.3053    2.4719   24.5104 C.3     1  UNL1        0.2526
     29 O         -25.7391    4.6116   30.8206 O.2     1  UNL1       -0.2749
     30 C         -26.0412    3.0783   32.4616 C.3     1  UNL1        0.0853
     31 C         -23.2751    1.8488   26.6870 C.2     1  UNL1        0.1661
     32 C         -22.2044    1.7615   27.5384 C.2     1  UNL1        0.1768
     33 O         -23.3095    2.4087   25.4733 O.2     1  UNL1       -0.4692
     34 C         -23.6119    7.2506   32.6594 C.3     1  UNL1        0.0215
     35 C         -22.2921    1.0792   28.7205 C.2     1  UNL1        0.0696
     36 C         -23.5031    0.4943   29.0043 C.2     1  UNL1        0.1414
     37 C         -25.5485    4.2905   31.9829 C.2     1  UNL1        0.2256
     38 C         -23.5558    5.7152   32.8755 C.3     1  UNL1        0.0934
     39 C         -24.0441    7.3645   35.0884 C.3     1  UNL1        0.0018
     40 F         -21.0677    2.4414   27.3057 F       1  UNL1       -0.2009
     41 C         -24.3320    8.0286   33.7457 C.3     1  UNL1        0.0018
     42 N         -24.9389    5.1297   32.8693 N.am    1  UNL1       -0.2795
     43 C         -24.5619    0.5607   28.1569 C.2     1  UNL1        0.0401
     44 C         -24.8354    6.0525   35.2357 C.3     1  UNL1        0.0215
     45 C         -24.4734    1.3527   27.0880 C.2     1  UNL1        0.0418
     46 C         -25.9348    1.9903   31.5705 C.3     1  UNL1        0.0111
     47 O         -23.7218   -0.1880   30.1156 O.2     1  UNL1       -0.4732
     48 C         -25.6681    5.3610   34.1604 C.3     1  UNL1        0.0934
@<TRIPOS>BOND
     1     1    47    1
     2     2     7    1
     3     2     1    1
     4     3     2    2
     5     4     3    1
     6     4     5    2
     7     5     6    1
     8     6     7    2
     9     8     1    1
    10     8     9    1
    11     8    12    1
    12     9    46    1
    13     9    10    1
    14    10    11    1
    15    12    11    1
    16    13    45    1
    17    14    13    1
    18    14    15    1
    19    15    18    2
    20    16    17    1
    21    16    15    1
    22    19    14    2
    23    20    21    2
    24    20    19    1
    25    21    26    1
    26    22    21    1
    27    23    22    1
    28    24    23    1
    29    24    25    1
    30    26    27    1
    31    26    13    2
    32    28    33    1
    33    29    37    2
    34    31    45    2
    35    31    32    1
    36    32    35    2
    37    33    31    1
    38    34    38    1
    39    34    41    1
    40    35    36    1
    41    36    47    1
    42    37    30    1
    43    37    42   am
    44    39    44    1
    45    40    32    1
    46    41    39    1
    47    42    38    1
    48    42    48    1
    49    43    36    2
    50    45    43    1
    51    46    30    1
    52    48    44    1
