@<TRIPOS>MOLECULE
outputs/IAG933/test6/raw/output_3357_IAG933_linker_design_.xyz
 48 53 0 0 0
SMALL
GASTEIGER

@<TRIPOS>ATOM
      1 C         -24.8550   -1.0120   30.1430 C.3     1  UNL1        0.0437
      2 C         -24.9730   -2.5050   29.7880 C.2     1  UNL1       -0.0208
      3 C         -23.9060   -3.1730   29.1460 C.2     1  UNL1       -0.0042
      4 C         -23.9890   -4.5490   28.8530 C.2     1  UNL1       -0.0003
      5 C         -25.1370   -5.2800   29.2050 C.2     1  UNL1       -0.0000
      6 C         -26.2320   -4.6110   29.7840 C.2     1  UNL1       -0.0003
      7 C         -26.1550   -3.2320   30.0650 C.2     1  UNL1       -0.0042
      8 C         -25.3870   -0.6790   31.5710 C.3     1  UNL1        0.0771
      9 C         -25.1890    0.7730   32.0280 C.3     1  UNL1        0.0182
     10 C         -25.3360    0.6840   33.5440 C.3     1  UNL1        0.0202
     11 C         -24.8290   -0.7150   33.9050 C.3     1  UNL1        0.0887
     12 N         -24.7580   -1.4810   32.6460 N.3     1  UNL1       -0.2191
     13 C         -25.6880    1.6140   26.4610 C.3     1  UNL1        0.0715
     14 C         -26.2500    2.9200   26.3950 C.2     1  UNL1        0.0548
     15 C         -25.6420    4.0930   27.1230 C.2     1  UNL1        0.2624
     16 N         -25.6140    5.2520   26.4490 N.am    1  UNL1       -0.2000
     17 C         -25.0260    6.4790   26.9630 C.3     1  UNL1        0.1388
     18 O         -25.1430    3.9660   28.2430 O.2     1  UNL1       -0.2687
     19 C         -27.4380    3.0910   25.6450 C.2     1  UNL1        0.1021
     20 N         -28.0750    2.0890   25.0030 N.2     1  UNL1       -0.2119
     21 C         -27.5430    0.8490   25.0790 C.2     1  UNL1        0.2341
     22 O         -28.1930   -0.2080   24.4770 O.2     1  UNL1       -0.4585
     23 C         -29.4600    0.0050   23.8660 C.3     1  UNL1        0.2423
     24 C         -30.0650   -1.3770   23.5730 C.3     1  UNL1        0.2292
     25 O         -30.7290   -1.8780   24.7210 O.3     1  UNL1       -0.2162
     26 C         -26.3540    0.5760   25.7770 C.3     1  UNL1        0.2400
     27 F         -25.8600   -0.6810   25.7950 F       1  UNL1       -0.2269
     28 C         -26.6924    7.6676   32.4449 C.2     1  UNL1       -0.0144
     29 C         -25.6804    6.9554   31.7401 C.3     1  UNL1        0.0658
     30 C         -25.8402    5.6871   31.2294 C.2     1  UNL1       -0.0219
     31 C         -22.4811    2.3234   27.8848 C.3     1  UNL1        0.0576
     32 C         -26.4782    8.9347   32.9677 C.2     1  UNL1       -0.0036
     33 C         -24.2512    1.2496   26.7639 C.3     1  UNL1        0.0247
     34 C         -24.0344    2.0694   30.0826 C.3     1  UNL1        0.0721
     35 N         -23.3788    1.5313   28.8483 N.3     1  UNL1       -0.2739
     36 C         -21.1313    1.5383   27.6275 C.3     1  UNL1        0.0173
     37 C         -25.8443    1.9351   31.3858 C.3     1  UNL1        0.0071
     38 C         -25.2176    9.5178   32.9218 C.2     1  UNL1       -0.0006
     39 C         -25.5475    1.9982   30.0846 C.3     1  UNL1        0.0177
     40 C         -27.9101    7.0832   32.6983 C.2     1  UNL1       -0.0036
     41 C         -26.4114    3.0918   32.0622 C.3     1  UNL1        0.0261
     42 C         -24.2701    0.6535   28.0537 C.3     1  UNL1        0.0725
     43 C         -28.0422    4.8286   32.0556 C.2     1  UNL1       -0.0046
     44 C         -24.4474    7.5731   31.6181 C.2     1  UNL1       -0.0177
     45 C         -23.2870    2.1139   26.5664 C.3     1  UNL1        0.0178
     46 C         -24.2088    8.8066   32.2279 C.2     1  UNL1       -0.0039
     47 C         -28.4328    5.9622   32.6923 C.2     1  UNL1       -0.0006
     48 C         -26.7295    4.6054   31.6455 C.2     1  UNL1       -0.0258
@<TRIPOS>BOND
     1     2     7    1
     2     2     1    1
     3     3     2    2
     4     4     3    1
     5     4     5    2
     6     5     6    1
     7     6     7    2
     8     8     1    1
     9     8     9    1
    10     8    12    1
    11     9    37    1
    12     9    10    1
    13    10    11    1
    14    12    11    1
    15    13    14    1
    16    13    33    1
    17    14    15    1
    18    15    18    2
    19    16    17    1
    20    16    15    1
    21    19    14    2
    22    20    21    2
    23    20    19    1
    24    21    26    1
    25    22    21    1
    26    23    22    1
    27    24    23    1
    28    24    25    1
    29    26    27    1
    30    26    13    1
    31    28    40    2
    32    28    32    1
    33    29    30    1
    34    29    28    1
    35    30    48    2
    36    31    36    1
    37    31    35    1
    38    33    45    1
    39    33    42    1
    40    34    39    1
    41    35    34    1
    42    37    39    1
    43    37    41    1
    44    38    32    2
    45    42    35    1
    46    43    47    2
    47    44    29    1
    48    44    46    2
    49    45    31    1
    50    46    38    1
    51    47    40    1
    52    48    43    1
    53    48    41    1
