@<TRIPOS>MOLECULE
outputs/IAG933/test6/raw/output_3358_IAG933_linker_design_.xyz
 41 45 0 0 0
SMALL
GASTEIGER

@<TRIPOS>ATOM
      1 C         -24.8550   -1.0120   30.1430 C.3     1  UNL1        0.1571
      2 C         -24.9730   -2.5050   29.7880 C.2     1  UNL1        0.0060
      3 C         -23.9060   -3.1730   29.1460 C.2     1  UNL1       -0.0019
      4 C         -23.9890   -4.5490   28.8530 C.2     1  UNL1       -0.0002
      5 C         -25.1370   -5.2800   29.2050 C.2     1  UNL1       -0.0000
      6 C         -26.2320   -4.6110   29.7840 C.2     1  UNL1       -0.0002
      7 C         -26.1550   -3.2320   30.0650 C.2     1  UNL1       -0.0019
      8 C         -25.3870   -0.6790   31.5710 C.3     1  UNL1        0.1042
      9 C         -25.1890    0.7730   32.0280 C.3     1  UNL1        0.0217
     10 C         -25.3360    0.6840   33.5440 C.3     1  UNL1        0.0203
     11 C         -24.8290   -0.7150   33.9050 C.3     1  UNL1        0.0888
     12 N         -24.7580   -1.4810   32.6460 N.3     1  UNL1       -0.2166
     13 C         -25.6880    1.6140   26.4610 C.2     1  UNL1        0.0184
     14 C         -26.2500    2.9200   26.3950 C.2     1  UNL1        0.0726
     15 C         -25.6420    4.0930   27.1230 C.2     1  UNL1        0.2661
     16 N         -25.6140    5.2520   26.4490 N.am    1  UNL1       -0.1997
     17 C         -25.0260    6.4790   26.9630 C.3     1  UNL1        0.1388
     18 O         -25.1430    3.9660   28.2430 O.2     1  UNL1       -0.2683
     19 C         -27.4380    3.0910   25.6450 C.2     1  UNL1        0.1064
     20 N         -28.0750    2.0890   25.0030 N.2     1  UNL1       -0.2081
     21 C         -27.5430    0.8490   25.0790 C.2     1  UNL1        0.2530
     22 O         -28.1930   -0.2080   24.4770 O.2     1  UNL1       -0.4558
     23 C         -29.4600    0.0050   23.8660 C.3     1  UNL1        0.2426
     24 C         -30.0650   -1.3770   23.5730 C.3     1  UNL1        0.2292
     25 O         -30.7290   -1.8780   24.7210 O.3     1  UNL1       -0.2162
     26 C         -26.3540    0.5760   25.7770 C.2     1  UNL1        0.1892
     27 F         -25.8600   -0.6810   25.7950 F       1  UNL1       -0.1996
     28 F         -23.6827    1.2957   24.3667 F       1  UNL1       -0.1695
     29 F         -21.9538    2.5784   24.5812 F       1  UNL1       -0.1695
     30 O         -21.7183    1.0555   26.5187 O.3     1  UNL1       -0.3483
     31 C         -23.0097    1.9569   26.6158 C.3     1  UNL1        0.1876
     32 C         -23.0432    2.3209   25.0241 C.3     1  UNL1        0.4122
     33 O         -23.6697    3.6004   25.1274 O.3     1  UNL1       -0.1530
     34 C         -23.7685    0.9983   29.1193 C.3     1  UNL1        0.2873
     35 C         -23.4298    1.8858   27.8765 C.3     1  UNL1        0.1111
     36 C         -24.4307    1.4455   26.9850 C.3     1  UNL1        0.0669
     37 N         -22.6382    0.3888   29.6987 N.3     1  UNL1       -0.1654
     38 O         -24.7483   -0.1259   29.0803 O.3     1  UNL1       -0.3162
     39 O         -24.5069    1.9088   29.8967 O.3     1  UNL1       -0.1758
     40 C         -20.9768    1.3921   27.7264 C.3     1  UNL1        0.1612
     41 C         -21.4696    0.2727   28.7694 C.3     1  UNL1        0.1256
@<TRIPOS>BOND
     1     1    38    1
     2     2     7    1
     3     2     1    1
     4     3     2    2
     5     4     3    1
     6     4     5    2
     7     5     6    1
     8     6     7    2
     9     8     1    1
    10     8     9    1
    11     8    12    1
    12     9    10    1
    13    10    11    1
    14    12    11    1
    15    13    36    1
    16    14    13    1
    17    14    15    1
    18    15    18    2
    19    16    17    1
    20    16    15    1
    21    19    14    2
    22    20    21    2
    23    20    19    1
    24    21    26    1
    25    22    21    1
    26    23    22    1
    27    24    23    1
    28    24    25    1
    29    26    27    1
    30    26    13    2
    31    28    32    1
    32    29    32    1
    33    30    31    1
    34    30    40    1
    35    31    32    1
    36    31    36    1
    37    31    35    1
    38    32    33    1
    39    34    37    1
    40    34    39    1
    41    35    34    1
    42    36    35    1
    43    38    34    1
    44    40    41    1
    45    41    37    1
