@<TRIPOS>MOLECULE
outputs/IAG933/test6/raw/output_3360_IAG933_linker_design_.xyz
 44 48 0 0 0
SMALL
GASTEIGER

@<TRIPOS>ATOM
      1 C         -24.8550   -1.0120   30.1430 C.3     1  UNL1        0.0585
      2 C         -24.9730   -2.5050   29.7880 C.2     1  UNL1       -0.0195
      3 C         -23.9060   -3.1730   29.1460 C.2     1  UNL1       -0.0042
      4 C         -23.9890   -4.5490   28.8530 C.2     1  UNL1       -0.0003
      5 C         -25.1370   -5.2800   29.2050 C.2     1  UNL1       -0.0000
      6 C         -26.2320   -4.6110   29.7840 C.2     1  UNL1       -0.0003
      7 C         -26.1550   -3.2320   30.0650 C.2     1  UNL1       -0.0042
      8 C         -25.3870   -0.6790   31.5710 C.3     1  UNL1        0.0785
      9 C         -25.1890    0.7730   32.0280 C.3     1  UNL1        0.0192
     10 C         -25.3360    0.6840   33.5440 C.3     1  UNL1        0.0202
     11 C         -24.8290   -0.7150   33.9050 C.3     1  UNL1        0.0887
     12 N         -24.7580   -1.4810   32.6460 N.3     1  UNL1       -0.2191
     13 C         -25.6880    1.6140   26.4610 C.2     1  UNL1        0.0378
     14 C         -26.2500    2.9200   26.3950 C.2     1  UNL1        0.0765
     15 C         -25.6420    4.0930   27.1230 C.2     1  UNL1        0.2664
     16 N         -25.6140    5.2520   26.4490 N.am    1  UNL1       -0.1997
     17 C         -25.0260    6.4790   26.9630 C.3     1  UNL1        0.1388
     18 O         -25.1430    3.9660   28.2430 O.2     1  UNL1       -0.2683
     19 C         -27.4380    3.0910   25.6450 C.2     1  UNL1        0.1067
     20 N         -28.0750    2.0890   25.0030 N.2     1  UNL1       -0.2081
     21 C         -27.5430    0.8490   25.0790 C.2     1  UNL1        0.2533
     22 O         -28.1930   -0.2080   24.4770 O.2     1  UNL1       -0.4558
     23 C         -29.4600    0.0050   23.8660 C.3     1  UNL1        0.2426
     24 C         -30.0650   -1.3770   23.5730 C.3     1  UNL1        0.2292
     25 O         -30.7290   -1.8780   24.7210 O.3     1  UNL1       -0.2162
     26 C         -26.3540    0.5760   25.7770 C.2     1  UNL1        0.1930
     27 F         -25.8600   -0.6810   25.7950 F       1  UNL1       -0.1992
     28 N         -28.5707    2.2886   29.6600 N.pl3   1  UNL1       -0.3050
     29 C         -22.9123    0.6576   28.9895 C.2     1  UNL1       -0.0029
     30 C         -30.3352   -0.3670   28.7691 C.3     1  UNL1        0.0079
     31 C         -23.2936    1.8204   26.3894 C.2     1  UNL1       -0.0002
     32 N         -26.6738   -0.3563   28.3798 N.3     1  UNL1       -0.2146
     33 C         -24.4189    1.3657   27.1191 C.2     1  UNL1       -0.0001
     34 C         -28.0652   -0.8481   28.4571 C.3     1  UNL1        0.0907
     35 C         -21.7961    1.1926   28.2920 C.2     1  UNL1       -0.0003
     36 C         -28.8667   -0.0897   29.1481 C.3     1  UNL1        0.0375
     37 C         -29.1468    2.6358   28.4725 C.2     1  UNL1        0.0567
     38 C         -21.9876    1.7759   27.0024 C.2     1  UNL1       -0.0000
     39 C         -30.7574    0.5808   27.8340 C.3     1  UNL1        0.0275
     40 C         -30.0659    1.8155   27.6965 C.2     1  UNL1       -0.0104
     41 C         -25.3682   -0.0896   28.9695 C.3     1  UNL1        0.1002
     42 C         -24.2628    0.6861   28.4043 C.2     1  UNL1       -0.0060
     43 C         -28.4494    0.9762   30.0031 C.3     1  UNL1        0.0923
     44 C         -28.0596    3.3730   30.4952 C.3     1  UNL1        0.1122
@<TRIPOS>BOND
     1     1    41    1
     2     2     7    1
     3     2     1    1
     4     3     2    2
     5     4     3    1
     6     4     5    2
     7     5     6    1
     8     6     7    2
     9     8     1    1
    10     8     9    1
    11     8    12    1
    12     9    10    1
    13    10    11    1
    14    12    11    1
    15    13    33    1
    16    14    13    1
    17    14    15    1
    18    15    18    2
    19    16    17    1
    20    16    15    1
    21    19    14    2
    22    20    21    2
    23    20    19    1
    24    21    26    1
    25    22    21    1
    26    23    22    1
    27    24    23    1
    28    24    25    1
    29    26    27    1
    30    26    13    2
    31    28    43    1
    32    28    44    1
    33    30    36    1
    34    31    38    2
    35    31    33    1
    36    32    34    1
    37    33    42    2
    38    35    29    2
    39    36    34    1
    40    36    43    1
    41    37    28    1
    42    38    35    1
    43    39    30    1
    44    40    39    1
    45    40    37    2
    46    41    32    1
    47    42    41    1
    48    42    29    1
