@<TRIPOS>MOLECULE
No_3363-gen_results/8p0m/2024-11-27-11-27-31/
 35 38 0 0 0
SMALL
GASTEIGER

@<TRIPOS>ATOM
      1 C         -28.0162   -0.8135   28.8779 C.ar    1  UNL1       -0.0005
      2 C         -27.0636   -0.1189   28.6079 C.ar    1  UNL1       -0.0044
      3 C         -26.9716    0.7139   27.5060 C.ar    1  UNL1        0.0414
      4 C         -28.1053    0.7744   26.6421 C.ar    1  UNL1        0.2226
      5 C         -29.2008    0.1044   27.0527 C.ar    1  UNL1        0.1788
      6 C         -29.2096   -0.6029   28.1853 C.ar    1  UNL1        0.0327
      7 F         -30.2828    0.2138   26.2960 F       1  UNL1       -0.2008
      8 C         -25.7134   -0.2153   29.4104 C.3     1  UNL1        0.0810
      9 N         -25.1221    0.8637   29.7395 N.3     1  UNL1       -0.2633
     10 C         -25.2151    1.4632   30.7648 C.3     1  UNL1        0.1027
     11 C         -25.6544    2.4660   31.1045 C.ar    1  UNL1       -0.0034
     12 C         -25.8119    3.0365   32.4724 C.ar    1  UNL1        0.0005
     13 C         -24.2426    0.9592   31.8567 C.2     1  UNL1       -0.0106
     14 C         -23.4885   -0.2714   31.5710 C.2     1  UNL1       -0.0290
     15 C         -26.4081    4.3268   32.6796 C.ar    1  UNL1        0.0372
     16 C         -26.6042    3.2589   30.3205 C.ar    1  UNL1        0.0005
     17 C         -27.2836    4.3972   30.5099 C.ar    1  UNL1        0.0372
     18 C         -27.1983    4.9423   31.7791 C.ar    1  UNL1        0.1453
     19 C         -25.3092   -1.5197   29.7062 C.3     1  UNL1        0.0252
     20 C         -24.2618   -1.4932   30.9920 C.3     1  UNL1        0.0275
     21 C         -23.9398    1.1550   28.8710 C.3     1  UNL1        0.0914
     22 C         -23.3228    0.1280   28.1412 C.3     1  UNL1        0.0201
     23 C         -23.6328    2.5618   28.6843 C.3     1  UNL1        0.1979
     24 O         -28.0889    1.5836   25.5773 O.3     1  UNL1       -0.2842
     25 O         -23.8363    2.9431   27.5893 O.3     1  UNL1       -0.2189
     26 O         -27.8447    6.1383   32.0202 O.3     1  UNL1       -0.4535
     27 C         -28.8268    6.4688   31.8720 C.ar    1  UNL1        0.1453
     28 C         -29.1254    7.3688   30.7820 C.ar    1  UNL1        0.0372
     29 C         -30.2839    7.4139   30.1415 C.ar    1  UNL1       -0.0008
     30 C         -29.9364    5.9750   32.5633 C.ar    1  UNL1        0.0372
     31 C         -31.2533    6.1244   32.0260 C.ar    1  UNL1       -0.0008
     32 C         -31.4319    6.9208   30.8931 C.ar    1  UNL1       -0.0176
     33 C         -32.7938    7.1166   30.3826 C.3     1  UNL1        0.0523
     34 C         -33.4572    8.1673   30.8716 C.2     1  UNL1       -0.0214
     35 C         -33.0669    8.9181   31.7579 C.2     1  UNL1       -0.0046
@<TRIPOS>BOND
     1     5     7    1
     2     2     8    1
     3     8     9    1
     4     9    10    1
     5    10    13    1
     6    13    14    2
     7     8    19    1
     8    14    20    1
     9    19    20    1
    10     9    21    1
    11    21    22    1
    12    21    23    1
    13     4    24    1
    14    23    25    1
    15    18    26    1
    16    26    27    1
    17    32    33    1
    18    33    34    1
    19    34    35    2
    20    10    11    1
    21     1     2   ar
    22     2     3   ar
    23     3     4   ar
    24     4     5   ar
    25     5     6   ar
    26     6     1   ar
    27    11    12   ar
    28    12    15   ar
    29    15    18   ar
    30    18    17   ar
    31    17    16   ar
    32    16    11   ar
    33    27    28   ar
    34    28    29   ar
    35    29    32   ar
    36    32    31   ar
    37    31    30   ar
    38    30    27   ar
