@<TRIPOS>MOLECULE
outputs/IAG933/test6/raw/output_3364_IAG933_linker_design_.xyz
 44 48 0 0 0
SMALL
GASTEIGER

@<TRIPOS>ATOM
      1 C         -24.8550   -1.0120   30.1430 C.3     1  UNL1        0.1128
      2 C         -24.9730   -2.5050   29.7880 C.2     1  UNL1       -0.0051
      3 C         -23.9060   -3.1730   29.1460 C.2     1  UNL1       -0.0029
      4 C         -23.9890   -4.5490   28.8530 C.2     1  UNL1       -0.0003
      5 C         -25.1370   -5.2800   29.2050 C.2     1  UNL1       -0.0000
      6 C         -26.2320   -4.6110   29.7840 C.2     1  UNL1       -0.0003
      7 C         -26.1550   -3.2320   30.0650 C.2     1  UNL1       -0.0029
      8 C         -25.3870   -0.6790   31.5710 C.3     1  UNL1        0.0930
      9 C         -25.1890    0.7730   32.0280 C.3     1  UNL1        0.0206
     10 C         -25.3360    0.6840   33.5440 C.3     1  UNL1        0.0203
     11 C         -24.8290   -0.7150   33.9050 C.3     1  UNL1        0.0888
     12 N         -24.7580   -1.4810   32.6460 N.3     1  UNL1       -0.2177
     13 C         -25.6880    1.6140   26.4610 C.2     1  UNL1        0.0232
     14 C         -26.2500    2.9200   26.3950 C.2     1  UNL1        0.0713
     15 C         -25.6420    4.0930   27.1230 C.2     1  UNL1        0.2290
     16 N         -25.6140    5.2520   26.4490 N.2     1  UNL1       -0.2353
     17 C         -25.0260    6.4790   26.9630 C.3     1  UNL1        0.1550
     18 O         -25.1430    3.9660   28.2430 O.2     1  UNL1       -0.4137
     19 C         -27.4380    3.0910   25.6450 C.2     1  UNL1        0.1065
     20 N         -28.0750    2.0890   25.0030 N.2     1  UNL1       -0.2081
     21 C         -27.5430    0.8490   25.0790 C.2     1  UNL1        0.2530
     22 O         -28.1930   -0.2080   24.4770 O.2     1  UNL1       -0.4558
     23 C         -29.4600    0.0050   23.8660 C.3     1  UNL1        0.2426
     24 C         -30.0650   -1.3770   23.5730 C.3     1  UNL1        0.2292
     25 O         -30.7290   -1.8780   24.7210 O.3     1  UNL1       -0.2162
     26 C         -26.3540    0.5760   25.7770 C.2     1  UNL1        0.1895
     27 F         -25.8600   -0.6810   25.7950 F       1  UNL1       -0.1996
     28 C         -26.3732    5.9244   31.4752 C.2     1  UNL1        0.3004
     29 C         -22.7654    2.1219   25.4881 C.2     1  UNL1        0.2099
     30 C         -24.7393    1.0537   28.7099 C.3     1  UNL1        0.1880
     31 C         -25.2212    3.3821   29.4245 C.2     1  UNL1        0.2650
     32 O         -21.5427    2.4034   25.6936 O.2     1  UNL1       -0.3504
     33 C         -27.5508    7.5900   32.8058 C.3     1  UNL1        0.1394
     34 C         -24.4918    1.3455   27.3144 C.3     1  UNL1        0.0912
     35 C         -23.2475    1.6758   26.7879 C.2     1  UNL1        0.0493
     36 O         -22.2273    0.1914   29.7765 O.2     1  UNL1       -0.2814
     37 N         -24.9569   -0.1095   29.1274 N.3     1  UNL1       -0.1913
     38 N         -24.6727    2.1249   29.5899 N.2     1  UNL1       -0.2148
     39 O         -25.5542    6.7716   31.1441 O.2     1  UNL1       -0.2607
     40 N         -21.1979    2.1466   26.9718 N.2     1  UNL1       -0.0738
     41 N         -27.3519    6.1979   32.3431 N.am    1  UNL1       -0.1940
     42 C         -22.2627    1.6193   27.6969 C.2     1  UNL1        0.1615
     43 C         -22.1016    1.1324   29.0230 C.2     1  UNL1        0.2562
     44 S         -26.2042    4.1989   30.7751 S.3     1  UNL1        0.0285
@<TRIPOS>BOND
     1     1    37    1
     2     2     7    1
     3     2     1    1
     4     3     2    2
     5     4     3    1
     6     4     5    2
     7     5     6    1
     8     6     7    2
     9     8     1    1
    10     8     9    1
    11     8    12    1
    12     9    10    1
    13    10    11    1
    14    12    11    1
    15    13    34    1
    16    14    13    1
    17    14    15    1
    18    15    18    1
    19    16    17    1
    20    16    15    2
    21    18    31    1
    22    19    14    2
    23    20    21    2
    24    20    19    1
    25    21    26    1
    26    22    21    1
    27    23    22    1
    28    24    23    1
    29    24    25    1
    30    26    27    1
    31    26    13    2
    32    28    41    1
    33    29    32    1
    34    29    35    2
    35    30    37    1
    36    30    38    1
    37    31    38    2
    38    31    44    1
    39    32    40    1
    40    34    35    1
    41    34    30    1
    42    35    42    1
    43    39    28    2
    44    40    42    2
    45    41    33    1
    46    42    43    1
    47    43    36    2
    48    44    28    1
