@<TRIPOS>MOLECULE
No_3366-gen_results/8p0m/2024-11-27-11-27-31/
 10 10 0 0 0
SMALL
GASTEIGER

@<TRIPOS>ATOM
      1 F         -28.0727   -1.2542   28.5316 F       1  UNL1       -0.2042
      2 C         -27.0607   -0.6291   28.8721 C.ar    1  UNL1        0.1402
      3 C         -27.1759    0.6153   29.3693 C.ar    1  UNL1        0.0310
      4 C         -25.7305   -1.2692   28.7241 C.ar    1  UNL1        0.0310
      5 C         -24.5526   -0.5078   29.0132 C.ar    1  UNL1        0.0225
      6 C         -25.9465    1.3753   29.6814 C.ar    1  UNL1        0.0225
      7 C         -24.6746    0.8198   29.5066 C.ar    1  UNL1        0.1291
      8 S         -23.2567    1.6975   29.8111 S.3     1  UNL1        0.1211
      9 O         -22.7672    2.6046   28.9941 O.2     1  UNL1       -0.1467
     10 O         -23.6269    2.3994   31.1635 O.2     1  UNL1       -0.1467
@<TRIPOS>BOND
     1     1     2    1
     2     7     8    1
     3     8     9    2
     4     8    10    2
     5     2     3   ar
     6     3     6   ar
     7     6     7   ar
     8     7     5   ar
     9     5     4   ar
    10     4     2   ar
