@<TRIPOS>MOLECULE
outputs/IAG933/test6/raw/output_3368_IAG933_linker_design_.xyz
 42 45 0 0 0
SMALL
GASTEIGER

@<TRIPOS>ATOM
      1 C         -24.8550   -1.0120   30.1430 C.3     1  UNL1        0.0973
      2 C         -24.9730   -2.5050   29.7880 C.2     1  UNL1       -0.0064
      3 C         -23.9060   -3.1730   29.1460 C.2     1  UNL1       -0.0029
      4 C         -23.9890   -4.5490   28.8530 C.2     1  UNL1       -0.0003
      5 C         -25.1370   -5.2800   29.2050 C.2     1  UNL1       -0.0000
      6 C         -26.2320   -4.6110   29.7840 C.2     1  UNL1       -0.0003
      7 C         -26.1550   -3.2320   30.0650 C.2     1  UNL1       -0.0029
      8 C         -25.3870   -0.6790   31.5710 C.3     1  UNL1        0.0916
      9 C         -25.1890    0.7730   32.0280 C.3     1  UNL1        0.0206
     10 C         -25.3360    0.6840   33.5440 C.3     1  UNL1        0.0203
     11 C         -24.8290   -0.7150   33.9050 C.3     1  UNL1        0.0888
     12 N         -24.7580   -1.4810   32.6460 N.3     1  UNL1       -0.2178
     13 C         -25.6880    1.6140   26.4610 C.2     1  UNL1        0.0290
     14 C         -26.2500    2.9200   26.3950 C.2     1  UNL1        0.0732
     15 C         -25.6420    4.0930   27.1230 C.2     1  UNL1        0.2661
     16 N         -25.6140    5.2520   26.4490 N.am    1  UNL1       -0.1997
     17 C         -25.0260    6.4790   26.9630 C.3     1  UNL1        0.1388
     18 O         -25.1430    3.9660   28.2430 O.2     1  UNL1       -0.2683
     19 C         -27.4380    3.0910   25.6450 C.2     1  UNL1        0.1064
     20 N         -28.0750    2.0890   25.0030 N.2     1  UNL1       -0.2081
     21 C         -27.5430    0.8490   25.0790 C.2     1  UNL1        0.2530
     22 O         -28.1930   -0.2080   24.4770 O.2     1  UNL1       -0.4558
     23 C         -29.4600    0.0050   23.8660 C.3     1  UNL1        0.2426
     24 C         -30.0650   -1.3770   23.5730 C.3     1  UNL1        0.2292
     25 O         -30.7290   -1.8780   24.7210 O.3     1  UNL1       -0.2162
     26 C         -26.3540    0.5760   25.7770 C.2     1  UNL1        0.1897
     27 F         -25.8600   -0.6810   25.7950 F       1  UNL1       -0.1996
     28 C         -22.8008    0.1082   29.3572 C.3     1  UNL1        0.0805
     29 O         -26.9632    2.8240   32.5703 O.2     1  UNL1       -0.1371
     30 O         -26.3098    4.2252   30.6127 O.2     1  UNL1       -0.1371
     31 N         -24.1765   -0.1514   29.2798 N.3     1  UNL1       -0.2541
     32 F         -20.7259    1.2721   28.3043 F       1  UNL1       -0.1885
     33 C         -23.2793    1.8166   26.2359 C.2     1  UNL1        0.3255
     34 C         -24.4982    1.4689   27.1307 C.3     1  UNL1        0.1569
     35 S         -26.5968    2.7157   30.9109 S.O2    1  UNL1        0.1477
     36 C         -21.7728    1.2716   27.5844 C.3     1  UNL1        0.3305
     37 O         -23.5057    2.6017   25.4089 O.2     1  UNL1       -0.2496
     38 C         -24.6434    1.2001   28.6924 C.3     1  UNL1        0.1731
     39 N         -25.3381    2.0042   29.7673 N.3     1  UNL1       -0.0481
     40 C         -22.2706    1.0650   28.5576 C.3     1  UNL1        0.0990
     41 N         -27.9738    2.0155   30.2794 N.3     1  UNL1        0.0528
     42 O         -21.8484    1.5771   26.3796 O.3     1  UNL1       -0.4197
@<TRIPOS>BOND
     1     1     2    1
     2     2     7    1
     3     3     2    2
     4     4     3    1
     5     4     5    2
     6     5     6    1
     7     6     7    2
     8     8     1    1
     9     8     9    1
    10     8    12    1
    11     9    10    1
    12    10    11    1
    13    12    11    1
    14    14    13    1
    15    14    15    1
    16    15    18    2
    17    16    17    1
    18    16    15    1
    19    19    14    2
    20    20    21    2
    21    20    19    1
    22    21    26    1
    23    22    21    1
    24    23    22    1
    25    24    23    1
    26    24    25    1
    27    26    27    1
    28    26    13    2
    29    30    35    2
    30    31    28    1
    31    31     1    1
    32    33    42    1
    33    33    34    1
    34    34    13    1
    35    34    38    1
    36    35    29    2
    37    36    32    1
    38    36    40    1
    39    37    33    2
    40    38    31    1
    41    38    39    1
    42    39    35    1
    43    40    28    1
    44    41    35    1
    45    42    36    1
