@<TRIPOS>MOLECULE
outputs/IAG933/test6/raw/output_3370_IAG933_linker_design_.xyz
 44 47 0 0 0
SMALL
GASTEIGER

@<TRIPOS>ATOM
      1 C         -24.8550   -1.0120   30.1430 C.3     1  UNL1        0.0608
      2 C         -24.9730   -2.5050   29.7880 C.2     1  UNL1       -0.0172
      3 C         -23.9060   -3.1730   29.1460 C.2     1  UNL1       -0.0039
      4 C         -23.9890   -4.5490   28.8530 C.2     1  UNL1       -0.0003
      5 C         -25.1370   -5.2800   29.2050 C.2     1  UNL1       -0.0000
      6 C         -26.2320   -4.6110   29.7840 C.2     1  UNL1       -0.0003
      7 C         -26.1550   -3.2320   30.0650 C.2     1  UNL1       -0.0039
      8 C         -25.3870   -0.6790   31.5710 C.3     1  UNL1        0.0807
      9 C         -25.1890    0.7730   32.0280 C.3     1  UNL1        0.0195
     10 C         -25.3360    0.6840   33.5440 C.3     1  UNL1        0.0203
     11 C         -24.8290   -0.7150   33.9050 C.3     1  UNL1        0.0887
     12 N         -24.7580   -1.4810   32.6460 N.3     1  UNL1       -0.2188
     13 C         -25.6880    1.6140   26.4610 C.3     1  UNL1        0.1651
     14 C         -26.2500    2.9200   26.3950 C.2     1  UNL1        0.0748
     15 C         -25.6420    4.0930   27.1230 C.2     1  UNL1        0.2641
     16 N         -25.6140    5.2520   26.4490 N.am    1  UNL1       -0.1999
     17 C         -25.0260    6.4790   26.9630 C.3     1  UNL1        0.1388
     18 O         -25.1430    3.9660   28.2430 O.2     1  UNL1       -0.2686
     19 C         -27.4380    3.0910   25.6450 C.2     1  UNL1        0.1038
     20 N         -28.0750    2.0890   25.0030 N.2     1  UNL1       -0.2118
     21 C         -27.5430    0.8490   25.0790 C.2     1  UNL1        0.2359
     22 O         -28.1930   -0.2080   24.4770 O.2     1  UNL1       -0.4585
     23 C         -29.4600    0.0050   23.8660 C.3     1  UNL1        0.2423
     24 C         -30.0650   -1.3770   23.5730 C.3     1  UNL1        0.2292
     25 O         -30.7290   -1.8780   24.7210 O.3     1  UNL1       -0.2162
     26 C         -26.3540    0.5760   25.7770 C.3     1  UNL1        0.2599
     27 F         -25.8600   -0.6810   25.7950 F       1  UNL1       -0.2250
     28 C         -32.6624    1.5239   29.9416 C.3     1  UNL1        0.0896
     29 C         -31.3942   -0.2162   27.8973 C.3     1  UNL1        0.0173
     30 C         -22.7995    2.2223   25.8524 C.3     1  UNL1        0.0473
     31 N         -31.2408    1.1927   29.8416 N.3     1  UNL1       -0.2718
     32 C         -31.0528   -0.2425   29.4202 C.3     1  UNL1        0.0577
     33 CL        -27.1837    2.1701   30.1292 Cl      1  UNL1       -0.1135
     34 N         -25.0605    1.1410   27.4280 N.pl3   1  UNL1       -0.1997
     35 C         -25.5857   -0.2581   29.0230 C.2     1  UNL1        0.0111
     36 C         -28.5165    0.0818   29.4506 C.3     1  UNL1        0.0220
     37 C         -29.6565   -0.7586   29.6157 C.3     1  UNL1        0.0176
     38 C         -30.1287    1.9586   30.4040 C.3     1  UNL1        0.0885
     39 C         -24.7556    0.4363   28.2710 C.2     1  UNL1        0.2018
     40 C         -22.7370    1.5610   27.3561 C.3     1  UNL1        0.1676
     41 C         -21.2349    1.5490   27.6114 C.3     1  UNL1        0.0473
     42 C         -28.7508    1.3307   30.0884 C.3     1  UNL1        0.0961
     43 O         -23.3026    0.4028   28.3317 O.2     1  UNL1       -0.4663
     44 C         -27.2081   -0.3054   28.5126 C.3     1  UNL1        0.0282
@<TRIPOS>BOND
     1     1    35    1
     2     2     7    1
     3     2     1    1
     4     3     2    2
     5     4     3    1
     6     4     5    2
     7     5     6    1
     8     6     7    2
     9     8     1    1
    10     8     9    1
    11     8    12    1
    12     9    10    1
    13    10    11    1
    14    12    11    1
    15    13    34    1
    16    14    13    1
    17    14    15    1
    18    15    18    2
    19    16    17    1
    20    16    15    1
    21    19    14    2
    22    20    21    2
    23    20    19    1
    24    21    26    1
    25    22    21    1
    26    23    22    1
    27    24    23    1
    28    24    25    1
    29    26    27    1
    30    26    13    1
    31    30    40    1
    32    31    28    1
    33    31    38    1
    34    32    29    1
    35    32    37    1
    36    32    31    1
    37    34    39    1
    38    36    44    1
    39    36    37    1
    40    36    42    1
    41    39    43    1
    42    39    35    2
    43    40    41    1
    44    40    43    1
    45    42    33    1
    46    42    38    1
    47    44    35    1
