@<TRIPOS>MOLECULE
No_3375-gen_results/8p0m/2024-11-27-11-27-31/
 10 10 0 0 0
SMALL
GASTEIGER

@<TRIPOS>ATOM
      1 C         -28.0162   -0.8135   28.8779 C.ar    1  UNL1        0.0010
      2 C         -27.0636   -0.1190   28.6079 C.ar    1  UNL1        0.0114
      3 C         -26.9716    0.7139   27.5060 C.ar    1  UNL1        0.0578
      4 C         -28.1053    0.7744   26.6421 C.ar    1  UNL1        0.0160
      5 C         -29.2041    0.1179   27.0477 C.ar    1  UNL1        0.0575
      6 C         -30.3488    0.2568   26.2203 C.2     1  UNL1        0.2842
      7 C         -29.1817   -0.6758   28.1173 C.ar    1  UNL1        0.0047
      8 O         -31.3387   -0.2347   26.5001 O.2     1  UNL1       -0.2667
      9 N         -30.2189    0.8696   24.9416 N.am    1  UNL1       -0.0837
     10 CL        -25.4816    1.5313   27.0716 Cl      1  UNL1       -0.0822
@<TRIPOS>BOND
     1     5     6    1
     2     6     8    2
     3     6     9   am
     4     3    10    1
     5     1     2   ar
     6     2     3   ar
     7     3     4   ar
     8     4     5   ar
     9     5     7   ar
    10     7     1   ar
