@<TRIPOS>MOLECULE
No_3376-gen_results/8p0m/2024-11-27-11-27-31/
 35 39 0 0 0
SMALL
GASTEIGER

@<TRIPOS>ATOM
      1 O         -28.1229   -1.3353   28.4874 O.2     1  UNL1       -0.2696
      2 C         -27.4806   -0.4044   28.7094 C.2     1  UNL1        0.2526
      3 C         -26.3804   -0.0867   27.9394 C.ar    1  UNL1        0.0569
      4 N         -27.6664    0.4468   29.8988 N.am    1  UNL1       -0.2568
      5 C         -25.1773   -0.4388   28.3946 C.ar    1  UNL1        0.0221
      6 C         -26.5259    0.6036   26.6867 C.ar    1  UNL1        0.0252
      7 C         -24.8099   -1.1180   29.5646 C.ar    1  UNL1        0.0016
      8 C         -28.7694    0.1525   30.7242 C.3     1  UNL1        0.1200
      9 C         -23.5473   -1.4995   29.8975 C.ar    1  UNL1        0.0001
     10 C         -22.5110   -0.8915   29.1449 C.ar    1  UNL1        0.0015
     11 C         -22.7033   -0.0226   28.0922 C.ar    1  UNL1        0.0191
     12 C         -23.9963    0.1988   27.7089 C.ar    1  UNL1        0.0814
     13 N         -24.2287    0.9677   26.6681 N.ar    1  UNL1       -0.2438
     14 C         -25.4093    1.2232   26.1125 C.ar    1  UNL1        0.0990
     15 C         -26.8480    1.5378   30.2089 C.2     1  UNL1        0.0360
     16 C         -26.0057    1.3921   31.1634 C.2     1  UNL1        0.0105
     17 C         -25.8184    2.1051   32.0562 C.2     1  UNL1       -0.0017
     18 C         -26.0628    3.2719   32.3241 C.2     1  UNL1       -0.0034
     19 C         -25.8606    4.1119   33.4817 C.3     1  UNL1        0.0471
     20 C         -27.0168    2.7480   29.4336 C.3     1  UNL1        0.0688
     21 C         -26.6842    4.1640   31.2789 C.2     1  UNL1        0.0629
     22 C         -27.1256    3.8529   30.0980 C.2     1  UNL1       -0.0039
     23 C         -26.8195    3.9197   34.5938 C.3     1  UNL1        0.0095
     24 C         -25.6049    5.6102   33.2371 C.ar    1  UNL1       -0.0031
     25 C         -25.1820    6.3557   34.0923 C.ar    1  UNL1       -0.0027
     26 C         -25.0554    7.7568   33.7744 C.ar    1  UNL1       -0.0002
     27 C         -25.2066    8.1987   32.4805 C.ar    1  UNL1        0.0013
     28 C         -25.5478    7.3038   31.5138 C.ar    1  UNL1        0.0150
     29 C         -25.7425    5.9795   31.8954 C.ar    1  UNL1        0.0667
     30 N         -26.8225    5.4618   31.3271 N.pl3   1  UNL1       -0.2134
     31 C         -25.6300    7.8018   30.1324 C.2     1  UNL1        0.0013
     32 C         -24.6557    8.4529   29.5637 C.2     1  UNL1       -0.0003
     33 C         -24.6875    8.7503   28.1296 C.2     1  UNL1       -0.0046
     34 C         -25.6470    8.0597   27.3591 C.2     1  UNL1       -0.0258
     35 C         -26.6046    7.2934   28.0010 C.3     1  UNL1        0.0307
@<TRIPOS>BOND
     1     1     2    2
     2     2     3    1
     3     2     4   am
     4     4     8    1
     5     4    15    1
     6    15    16    2
     7    16    17    1
     8    17    18    2
     9    18    19    1
    10    15    20    1
    11    18    21    1
    12    20    22    1
    13    21    22    2
    14    19    23    1
    15    19    24    1
    16    21    30    1
    17    29    30    1
    18    28    31    1
    19    31    32    2
    20    32    33    1
    21    33    34    2
    22    34    35    1
    23     3     5   ar
    24    12    13   ar
    25    13    14   ar
    26    14     6   ar
    27     6     3   ar
    28     5     7   ar
    29     7     9   ar
    30     9    10   ar
    31    10    11   ar
    32    11    12   ar
    33    12     5   ar
    34    24    25   ar
    35    25    26   ar
    36    26    27   ar
    37    27    28   ar
    38    28    29   ar
    39    29    24   ar
