@<TRIPOS>MOLECULE
outputs/IAG933/test6/raw/output_3382_IAG933_linker_design_.xyz
 43 47 0 0 0
SMALL
GASTEIGER

@<TRIPOS>ATOM
      1 C         -24.8550   -1.0120   30.1430 C.2     1  UNL1        0.0098
      2 C         -24.9730   -2.5050   29.7880 C.2     1  UNL1       -0.0014
      3 C         -23.9060   -3.1730   29.1460 C.2     1  UNL1       -0.0002
      4 C         -23.9890   -4.5490   28.8530 C.2     1  UNL1       -0.0000
      5 C         -25.1370   -5.2800   29.2050 C.2     1  UNL1       -0.0000
      6 C         -26.2320   -4.6110   29.7840 C.2     1  UNL1       -0.0000
      7 C         -26.1550   -3.2320   30.0650 C.2     1  UNL1       -0.0002
      8 C         -25.3870   -0.6790   31.5710 C.3     1  UNL1        0.0999
      9 C         -25.1890    0.7730   32.0280 C.3     1  UNL1        0.0658
     10 C         -25.3360    0.6840   33.5440 C.3     1  UNL1        0.0244
     11 C         -24.8290   -0.7150   33.9050 C.3     1  UNL1        0.0892
     12 N         -24.7580   -1.4810   32.6460 N.3     1  UNL1       -0.2149
     13 C         -25.6880    1.6140   26.4610 C.2     1  UNL1        0.1038
     14 C         -26.2500    2.9200   26.3950 C.2     1  UNL1        0.0914
     15 C         -25.6420    4.0930   27.1230 C.2     1  UNL1        0.2677
     16 N         -25.6140    5.2520   26.4490 N.am    1  UNL1       -0.1997
     17 C         -25.0260    6.4790   26.9630 C.3     1  UNL1        0.1388
     18 O         -25.1430    3.9660   28.2430 O.2     1  UNL1       -0.2683
     19 C         -27.4380    3.0910   25.6450 C.2     1  UNL1        0.1080
     20 N         -28.0750    2.0890   25.0030 N.2     1  UNL1       -0.2080
     21 C         -27.5430    0.8490   25.0790 C.2     1  UNL1        0.2546
     22 O         -28.1930   -0.2080   24.4770 O.2     1  UNL1       -0.4558
     23 C         -29.4600    0.0050   23.8660 C.3     1  UNL1        0.2426
     24 C         -30.0650   -1.3770   23.5730 C.3     1  UNL1        0.2292
     25 O         -30.7290   -1.8780   24.7210 O.3     1  UNL1       -0.2162
     26 C         -26.3540    0.5760   25.7770 C.2     1  UNL1        0.2078
     27 F         -25.8600   -0.6810   25.7950 F       1  UNL1       -0.1979
     28 N         -25.6345    3.1994   31.9575 N.3     1  UNL1       -0.2513
     29 O         -22.1082    0.7057   28.3595 O.2     1  UNL1       -0.2571
     30 C         -25.5798    1.7330   29.7863 C.3     1  UNL1        0.1581
     31 C         -24.9496    4.1835   32.8312 C.3     1  UNL1        0.0742
     32 N         -24.6054    1.4066   27.2082 N.pl3   1  UNL1       -0.2244
     33 N         -24.7159    1.1317   28.6514 N.pl3   1  UNL1       -0.2321
     34 C         -25.9582    5.2640   33.2343 C.3     1  UNL1        0.0188
     35 C         -27.7603    2.8465   32.7292 C.3     1  UNL1        0.0174
     36 C         -27.1526    5.1459   32.3030 C.3     1  UNL1        0.0175
     37 C         -23.2891    1.7660   26.6190 C.3     1  UNL1        0.2125
     38 F         -21.0451    1.9575   27.1425 F       1  UNL1       -0.1617
     39 C         -26.9526    3.7069   31.7988 C.3     1  UNL1        0.0597
     40 O         -23.7463    2.4027   31.0718 O.3     1  UNL1       -0.2071
     41 C         -24.5780   -0.3269   28.8153 C.2     1  UNL1        0.0773
     42 C         -25.0494    2.0644   31.3133 C.3     1  UNL1        0.1955
     43 C         -22.0182    1.6320   27.4905 C.2     1  UNL1        0.3322
@<TRIPOS>BOND
     1     2     7    1
     2     2     1    1
     3     3     2    2
     4     4     3    1
     5     4     5    2
     6     5     6    1
     7     6     7    2
     8     8     1    1
     9     8     9    1
    10     8    12    1
    11     9    10    1
    12    10    11    1
    13    12    11    1
    14    13    32    1
    15    14    13    1
    16    14    15    1
    17    15    18    2
    18    16    17    1
    19    16    15    1
    20    19    14    2
    21    20    21    2
    22    20    19    1
    23    21    26    1
    24    22    21    1
    25    23    22    1
    26    24    23    1
    27    24    25    1
    28    26    27    1
    29    26    13    2
    30    28    31    1
    31    30    42    1
    32    31    34    1
    33    32    33    1
    34    33    41    1
    35    33    30    1
    36    36    34    1
    37    37    32    1
    38    37    43    1
    39    38    43    1
    40    39    28    1
    41    39    36    1
    42    39    35    1
    43    41     1    2
    44    42    40    1
    45    42    28    1
    46    42     9    1
    47    43    29    2
