@<TRIPOS>MOLECULE
No_3388-gen_results/8p0m/2024-11-27-11-27-31/
 17 18 0 0 0
SMALL
GASTEIGER

@<TRIPOS>ATOM
      1 F         -28.0727   -1.2542   28.5316 F       1  UNL1       -0.2018
      2 C         -27.3591   -0.3792   28.7224 C.ar    1  UNL1        0.1682
      3 C         -26.3323   -0.6441   29.4520 C.ar    1  UNL1        0.1786
      4 C         -25.2562    0.3203   29.7818 C.ar    1  UNL1        0.0978
      5 C         -25.4242    1.6275   29.2026 C.ar    1  UNL1        0.0705
      6 C         -26.5263    1.8254   28.4032 C.ar    1  UNL1        0.0146
      7 C         -27.4513    0.8601   28.1355 C.ar    1  UNL1        0.0307
      8 C         -28.5399    1.2022   27.2448 C.ar    1  UNL1        0.0031
      9 C         -28.4423    2.0101   26.2543 C.ar    1  UNL1        0.0001
     10 C         -29.4915    2.2231   25.3457 C.ar    1  UNL1        0.0009
     11 C         -30.6227    1.4224   25.3995 C.ar    1  UNL1        0.0114
     12 C         -30.6794    0.4779   26.4025 C.ar    1  UNL1        0.0577
     13 C         -29.6789    0.3260   27.2833 C.ar    1  UNL1        0.0115
     14 CL        -32.0926   -0.4861   26.5026 Cl      1  UNL1       -0.0822
     15 CL        -24.2521    2.8016   29.5604 Cl      1  UNL1       -0.0813
     16 F         -26.0835   -1.8279   30.0224 F       1  UNL1       -0.2009
     17 CL        -23.9404   -0.0154   30.8466 Cl      1  UNL1       -0.0789
@<TRIPOS>BOND
     1     1     2    1
     2     7     8    1
     3    12    14    1
     4     5    15    1
     5     3    16    1
     6     4    17    1
     7     2     3   ar
     8     3     4   ar
     9     4     5   ar
    10     5     6   ar
    11     6     7   ar
    12     7     2   ar
    13     8     9   ar
    14     9    10   ar
    15    10    11   ar
    16    11    12   ar
    17    12    13   ar
    18    13     8   ar
