@<TRIPOS>MOLECULE
outputs/IAG933/test6/raw/output_3392_IAG933_linker_design_.xyz
 48 52 0 0 0
SMALL
GASTEIGER

@<TRIPOS>ATOM
      1 C         -24.8550   -1.0120   30.1430 C.3     1  UNL1        0.0438
      2 C         -24.9730   -2.5050   29.7880 C.2     1  UNL1       -0.0208
      3 C         -23.9060   -3.1730   29.1460 C.2     1  UNL1       -0.0042
      4 C         -23.9890   -4.5490   28.8530 C.2     1  UNL1       -0.0003
      5 C         -25.1370   -5.2800   29.2050 C.2     1  UNL1       -0.0000
      6 C         -26.2320   -4.6110   29.7840 C.2     1  UNL1       -0.0003
      7 C         -26.1550   -3.2320   30.0650 C.2     1  UNL1       -0.0042
      8 C         -25.3870   -0.6790   31.5710 C.3     1  UNL1        0.0788
      9 C         -25.1890    0.7730   32.0280 C.3     1  UNL1        0.0377
     10 C         -25.3360    0.6840   33.5440 C.3     1  UNL1        0.0219
     11 C         -24.8290   -0.7150   33.9050 C.3     1  UNL1        0.0888
     12 N         -24.7580   -1.4810   32.6460 N.3     1  UNL1       -0.2191
     13 C         -25.6880    1.6140   26.4610 C.2     1  UNL1        0.0393
     14 C         -26.2500    2.9200   26.3950 C.2     1  UNL1        0.0766
     15 C         -25.6420    4.0930   27.1230 C.2     1  UNL1        0.2664
     16 N         -25.6140    5.2520   26.4490 N.am    1  UNL1       -0.1997
     17 C         -25.0260    6.4790   26.9630 C.3     1  UNL1        0.1388
     18 O         -25.1430    3.9660   28.2430 O.2     1  UNL1       -0.2683
     19 C         -27.4380    3.0910   25.6450 C.2     1  UNL1        0.1067
     20 N         -28.0750    2.0890   25.0030 N.2     1  UNL1       -0.2081
     21 C         -27.5430    0.8490   25.0790 C.2     1  UNL1        0.2533
     22 O         -28.1930   -0.2080   24.4770 O.2     1  UNL1       -0.4558
     23 C         -29.4600    0.0050   23.8660 C.3     1  UNL1        0.2426
     24 C         -30.0650   -1.3770   23.5730 C.3     1  UNL1        0.2292
     25 O         -30.7290   -1.8780   24.7210 O.3     1  UNL1       -0.2162
     26 C         -26.3540    0.5760   25.7770 C.2     1  UNL1        0.1931
     27 F         -25.8600   -0.6810   25.7950 F       1  UNL1       -0.1992
     28 C         -27.5370    0.4083   29.0093 C.2     1  UNL1       -0.0046
     29 C         -22.1057    1.7195   27.6706 C.2     1  UNL1        0.1415
     30 C         -27.1023    2.3667   31.6012 C.3     1  UNL1        0.0263
     31 F         -20.9782    2.3283   27.3568 F       1  UNL1       -0.2043
     32 C         -22.1336    1.2941   28.9587 C.2     1  UNL1        0.0308
     33 C         -27.5930    2.9212   30.2490 C.3     1  UNL1        0.0278
     34 C         -29.5882   -0.3526   27.9771 C.2     1  UNL1       -0.0003
     35 C         -25.6434    2.0061   31.2822 C.3     1  UNL1        0.0941
     36 C         -24.5440    1.5588   27.3965 C.2     1  UNL1        0.0208
     37 C         -23.3582    1.2933   29.5807 C.2     1  UNL1        0.0184
     38 C         -23.0236    1.7416   25.3991 C.3     1  UNL1        0.3432
     39 F         -21.9770    2.2113   25.0992 F       1  UNL1       -0.1932
     40 C         -29.4572    2.0437   28.8451 C.2     1  UNL1       -0.0258
     41 C         -30.1742    0.9888   28.1027 C.2     1  UNL1       -0.0046
     42 C         -28.1817    1.7475   29.4042 C.2     1  UNL1       -0.0261
     43 F         -23.7057    0.9352   24.6712 F       1  UNL1       -0.1932
     44 C         -23.2213    1.6573   26.8138 C.2     1  UNL1        0.0723
     45 N         -25.5681    1.8293   29.7835 N.pl3   1  UNL1       -0.2393
     46 C         -24.5971    1.5587   28.8591 C.2     1  UNL1        0.0653
     47 C         -28.3024   -0.6929   28.4862 C.2     1  UNL1       -0.0003
     48 C         -30.1138    3.4230   28.9935 C.3     1  UNL1        0.0307
@<TRIPOS>BOND
     1     2     7    1
     2     2     1    1
     3     3     2    2
     4     4     3    1
     5     4     5    2
     6     5     6    1
     7     6     7    2
     8     8     1    1
     9     8     9    1
    10     8    12    1
    11     9    35    1
    12     9    10    1
    13    10    11    1
    14    12    11    1
    15    13    36    1
    16    14    13    1
    17    14    15    1
    18    15    18    2
    19    16    17    1
    20    16    15    1
    21    19    14    2
    22    20    21    2
    23    20    19    1
    24    21    26    1
    25    22    21    1
    26    23    22    1
    27    24    23    1
    28    24    25    1
    29    26    27    1
    30    26    13    2
    31    28    42    1
    32    29    32    1
    33    31    29    1
    34    32    37    2
    35    33    30    1
    36    34    41    2
    37    34    47    1
    38    35    30    1
    39    36    46    2
    40    38    44    1
    41    39    38    1
    42    40    48    1
    43    40    42    2
    44    41    40    1
    45    42    33    1
    46    43    38    1
    47    44    36    1
    48    44    29    2
    49    45    35    1
    50    46    37    1
    51    46    45    1
    52    47    28    2
