@<TRIPOS>MOLECULE
outputs/IAG933/test6/raw/output_3393_IAG933_linker_design_.xyz
 59 64 0 0 0
SMALL
GASTEIGER

@<TRIPOS>ATOM
      1 C         -24.8550   -1.0120   30.1430 C.3     1  UNL1        0.0963
      2 C         -24.9730   -2.5050   29.7880 C.2     1  UNL1       -0.0064
      3 C         -23.9060   -3.1730   29.1460 C.2     1  UNL1       -0.0029
      4 C         -23.9890   -4.5490   28.8530 C.2     1  UNL1       -0.0003
      5 C         -25.1370   -5.2800   29.2050 C.2     1  UNL1       -0.0000
      6 C         -26.2320   -4.6110   29.7840 C.2     1  UNL1       -0.0003
      7 C         -26.1550   -3.2320   30.0650 C.2     1  UNL1       -0.0029
      8 C         -25.3870   -0.6790   31.5710 C.3     1  UNL1        0.0916
      9 C         -25.1890    0.7730   32.0280 C.3     1  UNL1        0.0206
     10 C         -25.3360    0.6840   33.5440 C.3     1  UNL1        0.0203
     11 C         -24.8290   -0.7150   33.9050 C.3     1  UNL1        0.0888
     12 N         -24.7580   -1.4810   32.6460 N.3     1  UNL1       -0.2178
     13 C         -25.6880    1.6140   26.4610 C.2     1  UNL1        0.0229
     14 C         -26.2500    2.9200   26.3950 C.2     1  UNL1        0.0730
     15 C         -25.6420    4.0930   27.1230 C.2     1  UNL1        0.2661
     16 N         -25.6140    5.2520   26.4490 N.am    1  UNL1       -0.1997
     17 C         -25.0260    6.4790   26.9630 C.3     1  UNL1        0.1388
     18 O         -25.1430    3.9660   28.2430 O.2     1  UNL1       -0.2683
     19 C         -27.4380    3.0910   25.6450 C.2     1  UNL1        0.1061
     20 N         -28.0750    2.0890   25.0030 N.2     1  UNL1       -0.2113
     21 C         -27.5430    0.8490   25.0790 C.2     1  UNL1        0.2383
     22 O         -28.1930   -0.2080   24.4770 O.2     1  UNL1       -0.4583
     23 C         -29.4600    0.0050   23.8660 C.3     1  UNL1        0.2423
     24 C         -30.0650   -1.3770   23.5730 C.3     1  UNL1        0.2292
     25 O         -30.7290   -1.8780   24.7210 O.3     1  UNL1       -0.2162
     26 C         -26.3540    0.5760   25.7770 C.3     1  UNL1        0.2581
     27 F         -25.8600   -0.6810   25.7950 F       1  UNL1       -0.2223
     28 C         -31.7249   -0.0567   29.2989 C.3     1  UNL1        0.3180
     29 C         -27.3645    1.2323   29.1583 C.3     1  UNL1        0.0793
     30 O         -27.9556    1.8792   31.6417 O.3     1  UNL1       -0.2230
     31 C         -28.3683    1.4208   30.4118 C.3     1  UNL1        0.1562
     32 O         -32.0748   -1.3335   29.6999 O.2     1  UNL1       -0.3475
     33 C         -32.9142   -3.9267   30.8762 C.3     1  UNL1        0.1515
     34 C         -30.1808   -4.5114   31.6970 C.3     1  UNL1        0.0156
     35 C         -28.1598    0.1102   28.2987 C.3     1  UNL1        0.1860
     36 C         -24.4880    1.6711   27.0001 C.2     1  UNL1        0.0033
     37 O         -32.6786    0.8396   28.9054 O.3     1  UNL1       -0.3162
     38 C         -29.1996   -0.6893   31.7481 C.3     1  UNL1        0.0428
     39 C         -33.6807   -2.8829   33.0618 C.3     1  UNL1        0.1741
     40 C         -21.0862    1.6294   27.6188 C.3     1  UNL1        0.1745
     41 O         -30.8055   -0.1586   26.9763 O.3     1  UNL1       -0.2202
     42 C         -23.3161    1.0142   27.3632 C.3     1  UNL1        0.1530
     43 O         -33.8020   -3.0595   31.6714 O.3     1  UNL1       -0.3506
     44 N         -24.8063    0.1901   29.2284 N.3     1  UNL1       -0.2667
     45 C         -23.4026    0.7177   28.8636 C.3     1  UNL1        0.1068
     46 N         -31.9172   -1.5966   30.9634 N.2     1  UNL1       -0.0469
     47 C         -26.0205    0.9768   28.9548 C.3     1  UNL1        0.0776
     48 C         -29.7106   -0.0792   28.0555 C.3     1  UNL1        0.1884
     49 C         -29.3267    0.0719   33.2910 C.3     1  UNL1        0.0038
     50 O         -30.5130   -2.2410   32.7024 O.2     1  UNL1       -0.4650
     51 C         -31.3807   -2.5005   31.7822 C.2     1  UNL1        0.2383
     52 C         -34.1108    0.4599   28.8980 C.3     1  UNL1        0.1780
     53 C         -31.4398   -3.8132   31.3102 C.3     1  UNL1        0.1089
     54 C         -29.3583    0.2834   30.5892 C.3     1  UNL1        0.0428
     55 O         -27.6365   -1.1868   28.6831 O.3     1  UNL1       -0.2203
     56 O         -22.3521    1.9519   26.9899 O.3     1  UNL1       -0.3478
     57 C         -30.3700    0.3204   29.4105 C.3     1  UNL1        0.1081
     58 C         -29.1399   -2.2363   32.0836 C.3     1  UNL1        0.1673
     59 C         -28.8576   -3.8891   32.0557 C.3     1  UNL1        0.0441
@<TRIPOS>BOND
     1     1    44    1
     2     2     7    1
     3     2     1    1
     4     3     2    2
     5     4     3    1
     6     4     5    2
     7     5     6    1
     8     6     7    2
     9     8     1    1
    10     8     9    1
    11     8    12    1
    12     9    10    1
    13    10    11    1
    14    12    11    1
    15    13    36    2
    16    14    13    1
    17    14    15    1
    18    15    18    2
    19    16    17    1
    20    16    15    1
    21    19    14    2
    22    20    21    2
    23    20    19    1
    24    21    26    1
    25    22    21    1
    26    23    22    1
    27    24    23    1
    28    24    25    1
    29    26    27    1
    30    26    13    1
    31    28    37    1
    32    28    57    1
    33    28    32    1
    34    29    47    1
    35    29    31    1
    36    31    54    1
    37    31    30    1
    38    32    46    1
    39    33    43    1
    40    34    59    1
    41    35    55    1
    42    35    29    1
    43    38    58    1
    44    38    49    1
    45    42    36    1
    46    42    45    1
    47    43    39    1
    48    45    44    1
    49    46    51    2
    50    47    44    1
    51    48    41    1
    52    48    35    1
    53    48    57    1
    54    51    50    1
    55    52    37    1
    56    53    33    1
    57    53    34    1
    58    53    51    1
    59    54    38    1
    60    56    42    1
    61    56    40    1
    62    57    54    1
    63    58    50    1
    64    59    58    1
