@<TRIPOS>MOLECULE
outputs/IAG933/test6/raw/output_3394_IAG933_linker_design_.xyz
 45 50 0 0 0
SMALL
GASTEIGER

@<TRIPOS>ATOM
      1 C         -24.8550   -1.0120   30.1430 C.3     1  UNL1        0.0975
      2 C         -24.9730   -2.5050   29.7880 C.2     1  UNL1       -0.0064
      3 C         -23.9060   -3.1730   29.1460 C.2     1  UNL1       -0.0029
      4 C         -23.9890   -4.5490   28.8530 C.2     1  UNL1       -0.0003
      5 C         -25.1370   -5.2800   29.2050 C.2     1  UNL1       -0.0000
      6 C         -26.2320   -4.6110   29.7840 C.2     1  UNL1       -0.0003
      7 C         -26.1550   -3.2320   30.0650 C.2     1  UNL1       -0.0029
      8 C         -25.3870   -0.6790   31.5710 C.3     1  UNL1        0.0945
      9 C         -25.1890    0.7730   32.0280 C.3     1  UNL1        0.0517
     10 C         -25.3360    0.6840   33.5440 C.3     1  UNL1        0.0233
     11 C         -24.8290   -0.7150   33.9050 C.3     1  UNL1        0.0889
     12 N         -24.7580   -1.4810   32.6460 N.3     1  UNL1       -0.2176
     13 C         -25.6880    1.6140   26.4610 C.3     1  UNL1        0.0753
     14 C         -26.2500    2.9200   26.3950 C.2     1  UNL1        0.0550
     15 C         -25.6420    4.0930   27.1230 C.2     1  UNL1        0.2624
     16 N         -25.6140    5.2520   26.4490 N.am    1  UNL1       -0.2000
     17 C         -25.0260    6.4790   26.9630 C.3     1  UNL1        0.1388
     18 O         -25.1430    3.9660   28.2430 O.2     1  UNL1       -0.2687
     19 C         -27.4380    3.0910   25.6450 C.2     1  UNL1        0.1021
     20 N         -28.0750    2.0890   25.0030 N.2     1  UNL1       -0.2119
     21 C         -27.5430    0.8490   25.0790 C.2     1  UNL1        0.2341
     22 O         -28.1930   -0.2080   24.4770 O.2     1  UNL1       -0.4585
     23 C         -29.4600    0.0050   23.8660 C.3     1  UNL1        0.2423
     24 C         -30.0650   -1.3770   23.5730 C.3     1  UNL1        0.2292
     25 O         -30.7290   -1.8780   24.7210 O.3     1  UNL1       -0.2162
     26 C         -26.3540    0.5760   25.7770 C.3     1  UNL1        0.2402
     27 F         -25.8600   -0.6810   25.7950 F       1  UNL1       -0.2269
     28 C         -24.4746    1.7795   29.0139 C.3     1  UNL1        0.0359
     29 N         -23.9970   -0.1542   29.8548 N.3     1  UNL1       -0.2555
     30 O         -23.7085    3.8466   32.7515 O.co2   1  UNL1       -0.2206
     31 C         -22.6723    0.1441   29.7196 C.3     1  UNL1        0.0764
     32 C         -23.2835    1.7867   25.8319 C.3     1  UNL1        0.2787
     33 C         -24.5991    1.2153   30.4918 C.3     1  UNL1        0.1299
     34 C         -20.3551    1.7335   28.1882 C.3     1  UNL1        0.3364
     35 C         -23.8841    1.2567   28.0633 C.3     1  UNL1        0.0125
     36 N         -23.6860    2.4120   31.0983 N.am    1  UNL1       -0.1538
     37 F         -19.7902    2.6077   27.6982 F       1  UNL1       -0.1983
     38 C         -22.5272    0.8494   28.5842 C.3     1  UNL1        0.0491
     39 O         -21.9461    2.0730   26.3818 O.3     1  UNL1       -0.3236
     40 C         -24.5056    3.4049   31.8933 C.2     1  UNL1        0.4640
     41 C         -24.2126    1.4303   26.7285 C.3     1  UNL1        0.0694
     42 O         -25.7977    3.5310   31.7771 O.co2   1  UNL1       -0.2206
     43 O         -19.9745    0.4935   28.8444 O.3     1  UNL1       -0.1815
     44 F         -23.4114    1.7868   24.4732 F       1  UNL1       -0.2040
     45 C         -21.6356    1.0981   27.4963 C.3     1  UNL1        0.1834
@<TRIPOS>BOND
     1     1     2    1
     2     1     8    1
     3     2     7    1
     4     3     2    2
     5     4     3    1
     6     4     5    2
     7     5     6    1
     8     6     7    2
     9     8     9    1
    10     8    12    1
    11     9    10    1
    12    10    11    1
    13    12    11    1
    14    13    14    1
    15    14    15    1
    16    15    18    2
    17    16    17    1
    18    16    15    1
    19    19    14    2
    20    20    21    2
    21    20    19    1
    22    21    26    1
    23    22    21    1
    24    23    22    1
    25    24    23    1
    26    24    25    1
    27    26    27    1
    28    26    13    1
    29    28    33    1
    30    29    31    1
    31    29     1    1
    32    29    33    1
    33    32    44    1
    34    32    39    1
    35    32    41    1
    36    33    36    1
    37    33     9    1
    38    34    37    1
    39    34    43    1
    40    35    38    1
    41    35    28    1
    42    36    40    1
    43    38    31    1
    44    39    45    1
    45    40    30   ar
    46    41    13    1
    47    41    35    1
    48    42    40   ar
    49    45    34    1
    50    45    38    1
