@<TRIPOS>MOLECULE
No_3395-gen_results/8p0m/2024-11-27-11-27-31/
 21 23 0 0 0
SMALL
GASTEIGER

@<TRIPOS>ATOM
      1 C         -28.0162   -0.8135   28.8779 C.ar    1  UNL1        0.0340
      2 C         -27.0636   -0.1189   28.6079 C.ar    1  UNL1        0.0029
      3 C         -25.7923   -0.4302   29.0761 C.ar    1  UNL1        0.0002
      4 C         -25.5756   -1.5654   29.9363 C.ar    1  UNL1        0.0031
      5 C         -26.7354   -2.3004   30.2173 C.ar    1  UNL1        0.0369
      6 C         -27.9184   -1.9537   29.7629 C.ar    1  UNL1        0.1393
      7 C         -27.1057    1.1023   27.7593 C.ar    1  UNL1        0.0001
      8 C         -27.8576    1.5309   27.2156 C.ar    1  UNL1        0.0000
      9 C         -29.2421    0.8816   27.2919 C.ar    1  UNL1        0.0001
     10 C         -29.5768   -0.0587   28.1159 C.ar    1  UNL1        0.0030
     11 C         -30.4244    1.4745   26.5881 C.ar    1  UNL1        0.0000
     12 C         -31.5292    1.1325   26.8929 C.ar    1  UNL1        0.0000
     13 C         -32.6536    1.6608   26.2675 C.ar    1  UNL1        0.0000
     14 C         -32.4076    2.6333   25.2083 C.ar    1  UNL1        0.0000
     15 C         -31.1455    3.0039   24.8472 C.ar    1  UNL1        0.0000
     16 C         -30.0796    2.4901   25.5545 C.ar    1  UNL1        0.0000
     17 O         -29.0538   -2.6371   30.0648 O.3     1  UNL1       -0.4637
     18 C         -29.2799   -2.7909   31.4825 C.3     1  UNL1        0.3186
     19 C         -30.6486   -2.6197   31.8191 C.2     1  UNL1        0.4084
     20 O         -30.9583   -2.6521   32.8852 O.co2   1  UNL1       -0.2415
     21 O         -31.4650   -2.4711   30.8189 O.co2   1  UNL1       -0.2415
@<TRIPOS>BOND
     1     9    11    1
     2     6    17    1
     3    17    18    1
     4    18    19    1
     5    19    20   ar
     6    19    21   ar
     7     2     7   ar
     8     7     8   ar
     9     8     9   ar
    10     9    10   ar
    11    10     1   ar
    12     1     2   ar
    13     2     3   ar
    14     3     4   ar
    15     4     5   ar
    16     5     6   ar
    17     6     1   ar
    18    11    12   ar
    19    12    13   ar
    20    13    14   ar
    21    14    15   ar
    22    15    16   ar
    23    16    11   ar
