@<TRIPOS>MOLECULE
outputs/IAG933/test6/raw/output_3396_IAG933_linker_design_.xyz
 50 57 0 0 0
SMALL
GASTEIGER

@<TRIPOS>ATOM
      1 C         -24.8550   -1.0120   30.1430 C.3     1  UNL1        0.1112
      2 C         -24.9730   -2.5050   29.7880 C.2     1  UNL1       -0.0030
      3 C         -23.9060   -3.1730   29.1460 C.2     1  UNL1       -0.0026
      4 C         -23.9890   -4.5490   28.8530 C.2     1  UNL1       -0.0003
      5 C         -25.1370   -5.2800   29.2050 C.2     1  UNL1       -0.0000
      6 C         -26.2320   -4.6110   29.7840 C.2     1  UNL1       -0.0003
      7 C         -26.1550   -3.2320   30.0650 C.2     1  UNL1       -0.0026
      8 C         -25.3870   -0.6790   31.5710 C.3     1  UNL1        0.0950
      9 C         -25.1890    0.7730   32.0280 C.3     1  UNL1        0.0209
     10 C         -25.3360    0.6840   33.5440 C.3     1  UNL1        0.0203
     11 C         -24.8290   -0.7150   33.9050 C.3     1  UNL1        0.0888
     12 N         -24.7580   -1.4810   32.6460 N.3     1  UNL1       -0.2174
     13 C         -25.6880    1.6140   26.4610 C.2     1  UNL1        0.0390
     14 C         -26.2500    2.9200   26.3950 C.2     1  UNL1        0.0766
     15 C         -25.6420    4.0930   27.1230 C.2     1  UNL1        0.2664
     16 N         -25.6140    5.2520   26.4490 N.am    1  UNL1       -0.1997
     17 C         -25.0260    6.4790   26.9630 C.3     1  UNL1        0.1388
     18 O         -25.1430    3.9660   28.2430 O.2     1  UNL1       -0.2683
     19 C         -27.4380    3.0910   25.6450 C.2     1  UNL1        0.1067
     20 N         -28.0750    2.0890   25.0030 N.2     1  UNL1       -0.2081
     21 C         -27.5430    0.8490   25.0790 C.2     1  UNL1        0.2533
     22 O         -28.1930   -0.2080   24.4770 O.2     1  UNL1       -0.4558
     23 C         -29.4600    0.0050   23.8660 C.3     1  UNL1        0.2426
     24 C         -30.0650   -1.3770   23.5730 C.3     1  UNL1        0.2292
     25 O         -30.7290   -1.8780   24.7210 O.3     1  UNL1       -0.2162
     26 C         -26.3540    0.5760   25.7770 C.2     1  UNL1        0.1931
     27 F         -25.8600   -0.6810   25.7950 F       1  UNL1       -0.1992
     28 O         -30.6861    3.1505   32.9892 O.3     1  UNL1       -0.3475
     29 C         -27.5310    1.1603   29.8687 C.3     1  UNL1        0.0227
     30 C         -23.2007    1.9681   26.4898 C.2     1  UNL1        0.0143
     31 F         -21.0249    1.9233   27.1865 F       1  UNL1       -0.2275
     32 C         -32.0410    1.2065   32.2912 C.3     1  UNL1        0.1298
     33 C         -26.7445    0.3281   28.8446 C.3     1  UNL1        0.0588
     34 N         -25.2398   -0.0602   29.0142 N.pl3   1  UNL1       -0.3074
     35 C         -27.9480    2.0920   30.9882 C.3     1  UNL1        0.0270
     36 C         -29.8494    0.2517   29.6928 C.3     1  UNL1        0.0425
     37 N         -31.2095    0.2131   31.6591 N.am    1  UNL1       -0.2603
     38 C         -32.6470   -1.9070   31.1194 C.3     1  UNL1        0.0952
     39 C         -22.2584    1.5723   27.3472 C.3     1  UNL1        0.2064
     40 C         -31.8161    2.7205   32.1867 C.3     1  UNL1        0.1644
     41 C         -29.3521    2.6559   32.8095 C.3     1  UNL1        0.1654
     42 C         -22.7887    0.7497   28.3918 C.2     1  UNL1        0.0275
     43 C         -24.5240    1.3693   27.0625 C.2     1  UNL1        0.0143
     44 C         -31.4866   -1.1078   31.7599 C.2     1  UNL1        0.2296
     45 C         -30.0997    0.7675   30.9890 C.2     1  UNL1        0.0257
     46 C         -27.8260   -0.4811   28.1414 C.3     1  UNL1        0.0202
     47 C         -28.4688    0.2947   29.1892 C.3     1  UNL1        0.0238
     48 C         -29.1936    1.8026   31.5673 C.2     1  UNL1       -0.0053
     49 C         -24.2255    0.6023   28.2297 C.2     1  UNL1        0.0464
     50 O         -30.7256   -1.7257   32.4579 O.2     1  UNL1       -0.2745
@<TRIPOS>BOND
     1     1    34    1
     2     2     7    1
     3     2     1    1
     4     3     2    2
     5     4     3    1
     6     4     5    2
     7     5     6    1
     8     6     7    2
     9     8     1    1
    10     8     9    1
    11     8    12    1
    12     9    10    1
    13    10    11    1
    14    12    11    1
    15    13    43    1
    16    14    13    1
    17    14    15    1
    18    15    18    2
    19    16    17    1
    20    16    15    1
    21    19    14    2
    22    20    21    2
    23    20    19    1
    24    21    26    1
    25    22    21    1
    26    23    22    1
    27    24    23    1
    28    24    25    1
    29    26    27    1
    30    26    13    2
    31    29    35    1
    32    30    43    2
    33    30    39    1
    34    33    34    1
    35    33    47    1
    36    33    29    1
    37    35    48    1
    38    36    45    1
    39    37    44   am
    40    37    32    1
    41    38    44    1
    42    39    31    1
    43    39    42    1
    44    40    32    1
    45    40    28    1
    46    41    28    1
    47    43    49    1
    48    44    50    2
    49    45    48    2
    50    45    37    1
    51    46    33    1
    52    47    46    1
    53    47    36    1
    54    47    29    1
    55    48    41    1
    56    49    42    2
    57    49    34    1
