@<TRIPOS>MOLECULE
outputs/IAG933/test6/raw/output_3399_IAG933_linker_design_.xyz
 41 44 0 0 0
SMALL
GASTEIGER

@<TRIPOS>ATOM
      1 C         -24.8550   -1.0120   30.1430 C.3     1  UNL1        0.0455
      2 C         -24.9730   -2.5050   29.7880 C.2     1  UNL1       -0.0207
      3 C         -23.9060   -3.1730   29.1460 C.2     1  UNL1       -0.0042
      4 C         -23.9890   -4.5490   28.8530 C.2     1  UNL1       -0.0003
      5 C         -25.1370   -5.2800   29.2050 C.2     1  UNL1       -0.0000
      6 C         -26.2320   -4.6110   29.7840 C.2     1  UNL1       -0.0003
      7 C         -26.1550   -3.2320   30.0650 C.2     1  UNL1       -0.0042
      8 C         -25.3870   -0.6790   31.5710 C.3     1  UNL1        0.0994
      9 C         -25.1890    0.7730   32.0280 C.3     1  UNL1        0.1532
     10 C         -25.3360    0.6840   33.5440 C.3     1  UNL1        0.0443
     11 C         -24.8290   -0.7150   33.9050 C.3     1  UNL1        0.0905
     12 N         -24.7580   -1.4810   32.6460 N.3     1  UNL1       -0.2173
     13 C         -25.6880    1.6140   26.4610 C.3     1  UNL1        0.0967
     14 C         -26.2500    2.9200   26.3950 C.2     1  UNL1        0.0570
     15 C         -25.6420    4.0930   27.1230 C.2     1  UNL1        0.2625
     16 N         -25.6140    5.2520   26.4490 N.am    1  UNL1       -0.2000
     17 C         -25.0260    6.4790   26.9630 C.3     1  UNL1        0.1388
     18 O         -25.1430    3.9660   28.2430 O.2     1  UNL1       -0.2687
     19 C         -27.4380    3.0910   25.6450 C.2     1  UNL1        0.1022
     20 N         -28.0750    2.0890   25.0030 N.2     1  UNL1       -0.2119
     21 C         -27.5430    0.8490   25.0790 C.2     1  UNL1        0.2342
     22 O         -28.1930   -0.2080   24.4770 O.2     1  UNL1       -0.4585
     23 C         -29.4600    0.0050   23.8660 C.3     1  UNL1        0.2423
     24 C         -30.0650   -1.3770   23.5730 C.3     1  UNL1        0.2292
     25 O         -30.7290   -1.8780   24.7210 O.3     1  UNL1       -0.2162
     26 C         -26.3540    0.5760   25.7770 C.3     1  UNL1        0.2422
     27 F         -25.8600   -0.6810   25.7950 F       1  UNL1       -0.2268
     28 C         -23.4855    1.1188   27.5430 C.2     1  UNL1        0.0140
     29 C         -24.7264    2.2644   30.1655 C.2     1  UNL1        0.2171
     30 C         -22.9857    0.0482   28.2590 C.2     1  UNL1        0.0405
     31 O         -25.1725    3.5786   32.3977 O.2     1  UNL1       -0.1671
     32 CL        -22.9246    2.5644   25.3367 Cl      1  UNL1       -0.0825
     33 C         -21.2055    1.9080   27.2002 C.2     1  UNL1        0.0144
     34 C         -21.6027   -0.0998   28.4010 C.2     1  UNL1        0.1955
     35 N         -25.2333    1.5757   28.9215 N.2     1  UNL1       -0.2480
     36 S         -25.6386    2.3195   31.5470 S.O2    1  UNL1        0.0272
     37 O         -27.0293    2.2079   31.2570 O.2     1  UNL1       -0.1671
     38 C         -20.7156    0.9097   28.0217 C.2     1  UNL1        0.0429
     39 C         -22.5516    1.8775   26.8425 C.2     1  UNL1        0.0557
     40 O         -21.1118   -1.2639   28.9475 O.2     1  UNL1       -0.2866
     41 C         -24.8852    1.3729   27.5721 C.3     1  UNL1        0.1352
@<TRIPOS>BOND
     1     2     7    1
     2     2     1    1
     3     3     2    2
     4     4     3    1
     5     4     5    2
     6     5     6    1
     7     6     7    2
     8     8     1    1
     9     8     9    1
    10     8    12    1
    11     9    36    1
    12     9    10    1
    13    10    11    1
    14    12    11    1
    15    13    41    1
    16    14    13    1
    17    14    15    1
    18    15    18    2
    19    16    17    1
    20    16    15    1
    21    19    14    2
    22    20    21    2
    23    20    19    1
    24    21    26    1
    25    22    21    1
    26    23    22    1
    27    24    23    1
    28    24    25    1
    29    26    27    1
    30    26    13    1
    31    28    41    1
    32    28    30    1
    33    29    36    1
    34    30    34    2
    35    32    39    1
    36    33    38    2
    37    34    40    1
    38    35    29    2
    39    36    31    2
    40    37    36    2
    41    38    34    1
    42    39    33    1
    43    39    28    2
    44    41    35    1
