@<TRIPOS>MOLECULE
No_340-gen_results/8p0m/2024-11-27-11-27-31/
 15 15 0 0 0
SMALL
GASTEIGER

@<TRIPOS>ATOM
      1 F         -28.0727   -1.2542   28.5316 F       1  UNL1       -0.2008
      2 C         -27.3591   -0.3792   28.7224 C.ar    1  UNL1        0.1802
      3 C         -26.8100    0.1885   27.6513 C.ar    1  UNL1        0.1977
      4 C         -25.6015    0.9529   27.6828 C.ar    1  UNL1        0.1969
      5 C         -25.0371    1.2332   29.0000 C.ar    1  UNL1        0.1745
      6 C         -25.6162    0.5855   30.0870 C.ar    1  UNL1        0.1139
      7 C         -26.6061   -0.2296   29.9624 C.ar    1  UNL1        0.0935
      8 F         -24.0460    2.0502   29.0717 F       1  UNL1       -0.2017
      9 F         -27.2441    0.0088   26.4268 F       1  UNL1       -0.1993
     10 F         -25.0754    1.6053   26.6779 F       1  UNL1       -0.1993
     11 CL        -27.2737   -1.0130   31.4036 Cl      1  UNL1       -0.0798
     12 C         -24.9259    0.9200   31.4403 C.3     1  UNL1        0.4216
     13 F         -24.7976    1.8713   31.9692 F       1  UNL1       -0.1657
     14 F         -23.5849    0.3707   31.3614 F       1  UNL1       -0.1657
     15 F         -25.5316    0.1997   32.4244 F       1  UNL1       -0.1657
@<TRIPOS>BOND
     1     1     2    1
     2     5     8    1
     3     3     9    1
     4     4    10    1
     5     7    11    1
     6     6    12    1
     7    12    13    1
     8    12    14    1
     9    12    15    1
    10     2     3   ar
    11     3     4   ar
    12     4     5   ar
    13     5     6   ar
    14     6     7   ar
    15     7     2   ar
