@<TRIPOS>MOLECULE
No_3400-gen_results/8p0m/2024-11-27-11-27-31/
 25 27 0 0 0
SMALL
GASTEIGER

@<TRIPOS>ATOM
      1 C         -28.0162   -0.8135   28.8779 C.ar    1  UNL1       -0.0016
      2 C         -27.0636   -0.1190   28.6079 C.ar    1  UNL1       -0.0026
      3 C         -26.9716    0.7139   27.5060 C.ar    1  UNL1        0.0006
      4 C         -28.1053    0.7744   26.6421 C.ar    1  UNL1        0.0114
      5 C         -29.2041    0.1179   27.0477 C.ar    1  UNL1        0.0574
      6 C         -29.2127   -0.6088   28.1281 C.ar    1  UNL1        0.0088
      7 C         -25.7106    1.4518   27.1380 C.ar    1  UNL1       -0.0003
      8 C         -24.6052    0.9253   27.6902 C.ar    1  UNL1       -0.0034
      9 C         -23.3087    1.6018   27.4923 C.ar    1  UNL1       -0.0119
     10 C         -23.2169    2.4959   26.4391 C.ar    1  UNL1       -0.0034
     11 C         -25.5553    2.4208   26.1832 C.ar    1  UNL1       -0.0000
     12 C         -24.3322    3.0724   25.9239 C.ar    1  UNL1       -0.0003
     13 C         -22.0936    1.0267   28.1293 C.3     1  UNL1        0.0792
     14 BR        -22.1200   -0.3724   29.2937 Br      1  UNL1       -0.0769
     15 C         -20.7668    1.5674   27.8208 C.3     1  UNL1        0.0170
     16 CL        -30.5885    0.2507   26.0408 Cl      1  UNL1       -0.0823
     17 C         -28.0650   -1.6690   30.1172 C.3     1  UNL1        0.1178
     18 N         -27.3804   -2.8371   30.0444 N.pl3   1  UNL1       -0.3018
     19 C         -26.0741   -2.8774   29.7717 C.ar    1  UNL1        0.0481
     20 C         -25.4934   -4.1657   29.4124 C.ar    1  UNL1        0.0145
     21 C         -28.0392   -4.0109   30.2583 C.3     1  UNL1        0.1125
     22 C         -24.1555   -4.1238   28.9972 C.ar    1  UNL1        0.0013
     23 C         -23.4979   -2.8886   28.9071 C.ar    1  UNL1        0.0001
     24 C         -24.0864   -1.6591   29.2492 C.ar    1  UNL1        0.0013
     25 C         -25.3658   -1.7053   29.6569 C.ar    1  UNL1        0.0145
@<TRIPOS>BOND
     1     3     7    1
     2     9    13    1
     3    13    14    1
     4    13    15    1
     5     5    16    1
     6     1    17    1
     7    17    18    1
     8    18    19    1
     9    18    21    1
    10     7     8   ar
    11     8     9   ar
    12     9    10   ar
    13    10    12   ar
    14    12    11   ar
    15    11     7   ar
    16     1     2   ar
    17     2     3   ar
    18     3     4   ar
    19     4     5   ar
    20     5     6   ar
    21     6     1   ar
    22    19    20   ar
    23    20    22   ar
    24    22    23   ar
    25    23    24   ar
    26    24    25   ar
    27    25    19   ar
