@<TRIPOS>MOLECULE
outputs/IAG933/test6/raw/output_3401_IAG933_linker_design_.xyz
 42 44 0 0 0
SMALL
GASTEIGER

@<TRIPOS>ATOM
      1 C1        -24.8550   -1.0120   30.1430 C.3     1  <1>         0.0607
      2 C2        -24.9730   -2.5050   29.7880 C.2     1  <1>        -0.0194
      3 C3        -23.9060   -3.1730   29.1460 C.2     1  <1>        -0.0042
      4 C4        -23.9890   -4.5490   28.8530 C.2     1  <1>        -0.0003
      5 C5        -25.1370   -5.2800   29.2050 C.2     1  <1>        -0.0000
      6 C6        -26.2320   -4.6110   29.7840 C.2     1  <1>        -0.0003
      7 C7        -26.1550   -3.2320   30.0650 C.2     1  <1>        -0.0042
      8 C8        -25.3870   -0.6790   31.5710 C.3     1  <1>         0.0785
      9 C9        -25.1890    0.7730   32.0280 C.3     1  <1>         0.0192
     10 C10       -25.3360    0.6840   33.5440 C.3     1  <1>         0.0202
     11 C11       -24.8290   -0.7150   33.9050 C.3     1  <1>         0.0887
     12 N1        -24.7580   -1.4810   32.6460 N.3     1  <1>        -0.2191
     13 C12       -25.6880    1.6140   26.4610 C.3     1  <1>         0.1071
     14 C13       -26.2500    2.9200   26.3950 C.2     1  <1>         0.0602
     15 C14       -25.6420    4.0930   27.1230 C.2     1  <1>         0.2628
     16 N2        -25.6140    5.2520   26.4490 N.am    1  <1>        -0.2000
     17 C15       -25.0260    6.4790   26.9630 C.3     1  <1>         0.1388
     18 O1        -25.1430    3.9660   28.2430 O.2     1  <1>        -0.2686
     19 C16       -27.4380    3.0910   25.6450 C.2     1  <1>         0.1025
     20 N3        -28.0750    2.0890   25.0030 N.2     1  <1>        -0.2118
     21 C17       -27.5430    0.8490   25.0790 C.2     1  <1>         0.2345
     22 O2        -28.1930   -0.2080   24.4770 O.2     1  <1>        -0.4585
     23 C18       -29.4600    0.0050   23.8660 C.3     1  <1>         0.2423
     24 C19       -30.0650   -1.3770   23.5730 C.3     1  <1>         0.2292
     25 O3        -30.7290   -1.8780   24.7210 O.3     1  <1>        -0.2162
     26 C20       -26.3540    0.5760   25.7770 C.3     1  <1>         0.2453
     27 F1        -25.8600   -0.6810   25.7950 F       1  <1>        -0.2265
     28 C21       -25.7510   -0.3619   29.0726 C.3     1  <1>         0.1269
     29 O4        -28.2663   -0.9202   29.6502 O.3     1  <1>        -0.3498
     30 C22       -29.9178    0.6895   28.6343 C.3     1  <1>         0.2236
     31 O5        -30.6761   -1.5790   28.5369 O.co2   1  <1>        -0.2440
     32 C23       -20.8772    1.5018   27.6510 C.3     1  <1>         0.0254
     33 C24       -22.2855    1.1730   28.2080 C.3     1  <1>         0.1147
     34 N4        -22.2707   -0.1351   28.8922 N.3     1  <1>        -0.1281
     35 C25       -24.7081    1.3363   27.4993 C.2     1  <1>         0.0473
     36 O6        -31.3858   -0.1417   27.0153 O.co2   1  <1>        -0.2440
     37 C26       -23.3043    1.5444   27.1591 C.2     1  <1>         0.0046
     38 C27       -29.1003    0.2339   29.8486 C.3     1  <1>         0.1727
     39 N5        -30.8083    1.8386   28.7931 N.3     1  <1>        -0.1181
     40 N6        -25.2998    0.8162   28.6024 N.pl3   1  <1>        -0.2406
     41 C28       -30.6862   -0.4227   27.9822 C.2     1  <1>         0.3844
     42 C29       -27.2626   -0.7885   28.6200 C.3     1  <1>         0.1640
@<TRIPOS>BOND
     1     1    28    1
     2     2     7    1
     3     2     1    1
     4     3     2    2
     5     4     3    1
     6     4     5    2
     7     5     6    1
     8     6     7    2
     9     8     1    1
    10     8     9    1
    11     8    12    1
    12     9    10    1
    13    10    11    1
    14    12    11    1
    15    13    35    1
    16    14    13    1
    17    14    15    1
    18    15    18    2
    19    16    17    1
    20    16    15    1
    21    19    14    2
    22    20    21    2
    23    20    19    1
    24    21    26    1
    25    22    21    1
    26    23    22    1
    27    24    23    1
    28    24    25    1
    29    26    27    1
    30    26    13    1
    31    28    42    1
    32    29    38    1
    33    30    39    1
    34    30    38    1
    35    33    32    1
    36    33    34    1
    37    35    40    1
    38    36    41   ar
    39    37    35    2
    40    37    33    1
    41    40    28    1
    42    41    31   ar
    43    41    30    1
    44    42    29    1
