@<TRIPOS>MOLECULE
outputs/IAG933/test6/raw/output_3404_IAG933_linker_design_.xyz
 41 45 0 0 0
SMALL
GASTEIGER

@<TRIPOS>ATOM
      1 C         -24.8550   -1.0120   30.1430 C.3     1  UNL1        0.1001
      2 C         -24.9730   -2.5050   29.7880 C.2     1  UNL1       -0.0063
      3 C         -23.9060   -3.1730   29.1460 C.2     1  UNL1       -0.0029
      4 C         -23.9890   -4.5490   28.8530 C.2     1  UNL1       -0.0003
      5 C         -25.1370   -5.2800   29.2050 C.2     1  UNL1       -0.0000
      6 C         -26.2320   -4.6110   29.7840 C.2     1  UNL1       -0.0003
      7 C         -26.1550   -3.2320   30.0650 C.2     1  UNL1       -0.0029
      8 C         -25.3870   -0.6790   31.5710 C.3     1  UNL1        0.0917
      9 C         -25.1890    0.7730   32.0280 C.3     1  UNL1        0.0206
     10 C         -25.3360    0.6840   33.5440 C.3     1  UNL1        0.0203
     11 C         -24.8290   -0.7150   33.9050 C.3     1  UNL1        0.0888
     12 N         -24.7580   -1.4810   32.6460 N.3     1  UNL1       -0.2178
     13 C         -25.6880    1.6140   26.4610 C.2     1  UNL1        0.0909
     14 C         -26.2500    2.9200   26.3950 C.2     1  UNL1        0.0886
     15 C         -25.6420    4.0930   27.1230 C.2     1  UNL1        0.2348
     16 N         -25.6140    5.2520   26.4490 N.2     1  UNL1       -0.2351
     17 C         -25.0260    6.4790   26.9630 C.3     1  UNL1        0.1550
     18 O         -25.1430    3.9660   28.2430 O.3     1  UNL1       -0.3734
     19 C         -27.4380    3.0910   25.6450 C.2     1  UNL1        0.1081
     20 N         -28.0750    2.0890   25.0030 N.2     1  UNL1       -0.2080
     21 C         -27.5430    0.8490   25.0790 C.2     1  UNL1        0.2546
     22 O         -28.1930   -0.2080   24.4770 O.2     1  UNL1       -0.4558
     23 C         -29.4600    0.0050   23.8660 C.3     1  UNL1        0.2426
     24 C         -30.0650   -1.3770   23.5730 C.3     1  UNL1        0.2292
     25 O         -30.7290   -1.8780   24.7210 O.3     1  UNL1       -0.2162
     26 C         -26.3540    0.5760   25.7770 C.2     1  UNL1        0.2066
     27 F         -25.8600   -0.6810   25.7950 F       1  UNL1       -0.1979
     28 O         -26.1100    3.1091   29.9811 O.co2   1  UNL1       -0.1996
     29 O         -20.2545    0.7274   27.9934 O.3     1  UNL1       -0.2185
     30 F         -22.3487   -0.0375   30.1491 F       1  UNL1       -0.2142
     31 C         -21.3455    1.3259   27.3198 C.3     1  UNL1        0.1755
     32 C         -25.1813    2.8820   29.4582 C.2     1  UNL1        0.5579
     33 C         -22.5344    0.9945   27.9504 C.2     1  UNL1        0.0429
     34 O         -24.2429    2.2174   29.7611 O.co2   1  UNL1       -0.1996
     35 C         -22.8801    2.4374   26.1280 C.3     1  UNL1        0.0440
     36 C         -22.9303    0.1956   29.1471 C.3     1  UNL1        0.2457
     37 C         -23.4563    1.6020   27.0620 C.2     1  UNL1        0.0284
     38 C         -25.0069    0.0231   28.0073 C.3     1  UNL1        0.1753
     39 N         -24.1837   -0.2927   29.1224 N.3     1  UNL1       -0.2214
     40 N         -24.6990    1.1452   27.2281 N.pl3   1  UNL1       -0.2743
     41 C         -21.5366    2.1805   26.1877 C.3     1  UNL1        0.0433
@<TRIPOS>BOND
     1     1     2    1
     2     2     7    1
     3     3     2    2
     4     4     3    1
     5     4     5    2
     6     5     6    1
     7     6     7    2
     8     8     1    1
     9     8     9    1
    10     8    12    1
    11     9    10    1
    12    10    11    1
    13    12    11    1
    14    13    40    1
    15    14    13    1
    16    14    15    1
    17    15    18    1
    18    16    17    1
    19    16    15    2
    20    18    32    1
    21    19    14    2
    22    20    21    2
    23    20    19    1
    24    21    26    1
    25    22    21    1
    26    23    22    1
    27    24    23    1
    28    24    25    1
    29    26    27    1
    30    26    13    2
    31    31    33    1
    32    31    29    1
    33    32    34   ar
    34    32    28   ar
    35    33    36    1
    36    35    41    1
    37    35    37    1
    38    36    30    1
    39    37    40    1
    40    37    33    2
    41    38    39    1
    42    39    36    1
    43    39     1    1
    44    40    38    1
    45    41    31    1
