@<TRIPOS>MOLECULE
outputs/IAG933/test6/raw/output_3405_IAG933_linker_design_.xyz
 46 50 0 0 0
SMALL
GASTEIGER

@<TRIPOS>ATOM
      1 C         -24.8550   -1.0120   30.1430 C.3     1  UNL1        0.1153
      2 C         -24.9730   -2.5050   29.7880 C.2     1  UNL1       -0.0029
      3 C         -23.9060   -3.1730   29.1460 C.2     1  UNL1       -0.0026
      4 C         -23.9890   -4.5490   28.8530 C.2     1  UNL1       -0.0003
      5 C         -25.1370   -5.2800   29.2050 C.2     1  UNL1       -0.0000
      6 C         -26.2320   -4.6110   29.7840 C.2     1  UNL1       -0.0003
      7 C         -26.1550   -3.2320   30.0650 C.2     1  UNL1       -0.0026
      8 C         -25.3870   -0.6790   31.5710 C.3     1  UNL1        0.0952
      9 C         -25.1890    0.7730   32.0280 C.3     1  UNL1        0.0209
     10 C         -25.3360    0.6840   33.5440 C.3     1  UNL1        0.0203
     11 C         -24.8290   -0.7150   33.9050 C.3     1  UNL1        0.0888
     12 N         -24.7580   -1.4810   32.6460 N.3     1  UNL1       -0.2174
     13 C         -25.6880    1.6140   26.4610 C.2     1  UNL1        0.0225
     14 C         -26.2500    2.9200   26.3950 C.2     1  UNL1        0.0730
     15 C         -25.6420    4.0930   27.1230 C.2     1  UNL1        0.2661
     16 N         -25.6140    5.2520   26.4490 N.am    1  UNL1       -0.1997
     17 C         -25.0260    6.4790   26.9630 C.3     1  UNL1        0.1388
     18 O         -25.1430    3.9660   28.2430 O.2     1  UNL1       -0.2683
     19 C         -27.4380    3.0910   25.6450 C.2     1  UNL1        0.1064
     20 N         -28.0750    2.0890   25.0030 N.2     1  UNL1       -0.2081
     21 C         -27.5430    0.8490   25.0790 C.2     1  UNL1        0.2530
     22 O         -28.1930   -0.2080   24.4770 O.2     1  UNL1       -0.4558
     23 C         -29.4600    0.0050   23.8660 C.3     1  UNL1        0.2426
     24 C         -30.0650   -1.3770   23.5730 C.3     1  UNL1        0.2292
     25 O         -30.7290   -1.8780   24.7210 O.3     1  UNL1       -0.2162
     26 C         -26.3540    0.5760   25.7770 C.2     1  UNL1        0.1895
     27 F         -25.8600   -0.6810   25.7950 F       1  UNL1       -0.1996
     28 C         -25.3230    0.6121   28.4593 C.3     1  UNL1        0.1581
     29 C         -29.3220    3.9773   30.6195 C.3     1  UNL1        0.0721
     30 O         -21.9977    2.3156   25.2283 O.3     1  UNL1       -0.2154
     31 F         -21.0343    1.3444   27.7054 F       1  UNL1       -0.1999
     32 C         -27.8716    4.3850   32.7132 C.3     1  UNL1        0.0174
     33 C         -22.3896    1.2816   27.9468 C.2     1  UNL1        0.1883
     34 C         -27.0802    3.8636   31.5035 C.3     1  UNL1        0.0721
     35 N         -28.2145    3.1384   30.8141 N.3     1  UNL1       -0.2715
     36 O         -22.2361    0.2828   30.0462 O.2     1  UNL1       -0.2674
     37 N         -26.7208    0.4763   28.7275 N.3     1  UNL1       -0.1979
     38 C         -30.2433    3.8969   31.8612 C.3     1  UNL1        0.0174
     39 C         -29.2467    3.8170   33.0768 C.3     1  UNL1        0.0029
     40 C         -23.2297    2.5960   25.8417 C.3     1  UNL1        0.2072
     41 C         -27.7588    2.7513   29.4738 C.3     1  UNL1        0.0912
     42 C         -22.9362    0.5539   29.0943 C.2     1  UNL1        0.2773
     43 C         -24.6721    1.3613   27.3710 C.3     1  UNL1        0.0829
     44 N         -24.2880    0.0659   29.2428 N.am    1  UNL1       -0.2574
     45 C         -23.3588    1.7849   27.0982 C.2     1  UNL1        0.0273
     46 C         -27.8870    1.2241   29.3315 C.3     1  UNL1        0.1078
@<TRIPOS>BOND
     1     1     2    1
     2     2     7    1
     3     3     2    2
     4     4     3    1
     5     4     5    2
     6     5     6    1
     7     6     7    2
     8     8     1    1
     9     8     9    1
    10     8    12    1
    11     9    10    1
    12    10    11    1
    13    12    11    1
    14    14    13    1
    15    14    15    1
    16    15    18    2
    17    16    17    1
    18    16    15    1
    19    19    14    2
    20    20    21    2
    21    20    19    1
    22    21    26    1
    23    22    21    1
    24    23    22    1
    25    24    23    1
    26    24    25    1
    27    26    27    1
    28    26    13    2
    29    28    37    1
    30    28    44    1
    31    29    35    1
    32    29    38    1
    33    30    40    1
    34    31    33    1
    35    32    39    1
    36    33    42    1
    37    34    32    1
    38    35    34    1
    39    37    46    1
    40    38    39    1
    41    40    45    1
    42    41    35    1
    43    42    44   am
    44    42    36    2
    45    43    13    1
    46    43    28    1
    47    44     1    1
    48    45    43    1
    49    45    33    2
    50    46    41    1
