@<TRIPOS>MOLECULE
outputs/IAG933/test6/raw/output_3409_IAG933_linker_design_.xyz
 43 46 0 0 0
SMALL
GASTEIGER

@<TRIPOS>ATOM
      1 C         -24.8550   -1.0120   30.1430 C.3     1  UNL1        0.0454
      2 C         -24.9730   -2.5050   29.7880 C.2     1  UNL1       -0.0207
      3 C         -23.9060   -3.1730   29.1460 C.2     1  UNL1       -0.0042
      4 C         -23.9890   -4.5490   28.8530 C.2     1  UNL1       -0.0003
      5 C         -25.1370   -5.2800   29.2050 C.2     1  UNL1       -0.0000
      6 C         -26.2320   -4.6110   29.7840 C.2     1  UNL1       -0.0003
      7 C         -26.1550   -3.2320   30.0650 C.2     1  UNL1       -0.0042
      8 C         -25.3870   -0.6790   31.5710 C.3     1  UNL1        0.0953
      9 C         -25.1890    0.7730   32.0280 C.3     1  UNL1        0.0954
     10 C         -25.3360    0.6840   33.5440 C.3     1  UNL1        0.0401
     11 C         -24.8290   -0.7150   33.9050 C.3     1  UNL1        0.0905
     12 N         -24.7580   -1.4810   32.6460 N.3     1  UNL1       -0.2174
     13 C         -25.6880    1.6140   26.4610 C.2     1  UNL1        0.0222
     14 C         -26.2500    2.9200   26.3950 C.2     1  UNL1        0.0730
     15 C         -25.6420    4.0930   27.1230 C.2     1  UNL1        0.2661
     16 N         -25.6140    5.2520   26.4490 N.am    1  UNL1       -0.1997
     17 C         -25.0260    6.4790   26.9630 C.3     1  UNL1        0.1388
     18 O         -25.1430    3.9660   28.2430 O.2     1  UNL1       -0.2683
     19 C         -27.4380    3.0910   25.6450 C.2     1  UNL1        0.1064
     20 N         -28.0750    2.0890   25.0030 N.2     1  UNL1       -0.2081
     21 C         -27.5430    0.8490   25.0790 C.2     1  UNL1        0.2530
     22 O         -28.1930   -0.2080   24.4770 O.2     1  UNL1       -0.4558
     23 C         -29.4600    0.0050   23.8660 C.3     1  UNL1        0.2426
     24 C         -30.0650   -1.3770   23.5730 C.3     1  UNL1        0.2292
     25 O         -30.7290   -1.8780   24.7210 O.3     1  UNL1       -0.2162
     26 C         -26.3540    0.5760   25.7770 C.2     1  UNL1        0.1895
     27 F         -25.8600   -0.6810   25.7950 F       1  UNL1       -0.1996
     28 O         -28.6473    4.6333   30.5534 O.3     1  UNL1       -0.1527
     29 C         -24.3470    1.3852   26.9001 C.3     1  UNL1        0.0802
     30 O         -25.2689    3.1787   30.9526 O.2     1  UNL1       -0.2507
     31 N         -29.8444    3.3108   32.3773 N.3     1  UNL1       -0.0517
     32 F         -20.4945    1.5764   27.5719 F       1  UNL1       -0.2082
     33 C         -24.0092    1.6005   28.5115 C.3     1  UNL1        0.1126
     34 S         -28.6230    3.2765   31.2779 S.3     1  UNL1        0.0289
     35 C         -21.7857    1.4255   27.5119 C.2     1  UNL1        0.1262
     36 C         -25.3634    2.2476   30.4183 C.2     1  UNL1        0.3239
     37 CL        -22.5138    2.3890   24.9201 Cl      1  UNL1       -0.0846
     38 N         -25.9938    1.8255   31.3900 N.am    1  UNL1       -0.2514
     39 N         -24.9962    1.5963   29.3655 N.am    1  UNL1       -0.1891
     40 C         -27.0650    2.6532   32.0559 C.3     1  UNL1        0.1803
     41 C         -28.0383    2.1444   30.2239 C.3     1  UNL1        0.1002
     42 C         -22.7120    1.7393   26.5145 C.2     1  UNL1        0.0641
     43 C         -22.5325    1.1517   28.7709 C.3     1  UNL1        0.0795
@<TRIPOS>BOND
     1     2     7    1
     2     2     1    1
     3     3     2    2
     4     4     3    1
     5     4     5    2
     6     5     6    1
     7     6     7    2
     8     8     1    1
     9     8     9    1
    10     8    12    1
    11     9    38    1
    12     9    10    1
    13    10    11    1
    14    12    11    1
    15    14    13    1
    16    14    15    1
    17    15    18    2
    18    16    17    1
    19    16    15    1
    20    19    14    2
    21    20    21    2
    22    20    19    1
    23    21    26    1
    24    22    21    1
    25    23    22    1
    26    24    23    1
    27    24    25    1
    28    26    27    1
    29    26    13    2
    30    28    34    1
    31    29    13    1
    32    29    33    1
    33    33    43    1
    34    33    39    1
    35    34    41    1
    36    34    40    1
    37    34    31    1
    38    35    32    1
    39    35    43    1
    40    36    30    2
    41    36    38   am
    42    37    42    1
    43    38    40    1
    44    39    36    1
    45    42    29    1
    46    42    35    2
