@<TRIPOS>MOLECULE
outputs/IAG933/test6/raw/output_341_IAG933_linker_design_.xyz
 41 44 0 0 0
SMALL
GASTEIGER

@<TRIPOS>ATOM
      1 C         -24.8550   -1.0120   30.1430 C.3     1  UNL1        0.2064
      2 C         -24.9730   -2.5050   29.7880 C.2     1  UNL1        0.0218
      3 C         -23.9060   -3.1730   29.1460 C.2     1  UNL1       -0.0004
      4 C         -23.9890   -4.5490   28.8530 C.2     1  UNL1       -0.0002
      5 C         -25.1370   -5.2800   29.2050 C.2     1  UNL1       -0.0000
      6 C         -26.2320   -4.6110   29.7840 C.2     1  UNL1       -0.0002
      7 C         -26.1550   -3.2320   30.0650 C.2     1  UNL1       -0.0004
      8 C         -25.3870   -0.6790   31.5710 C.3     1  UNL1        0.1202
      9 C         -25.1890    0.7730   32.0280 C.3     1  UNL1        0.0233
     10 C         -25.3360    0.6840   33.5440 C.3     1  UNL1        0.0204
     11 C         -24.8290   -0.7150   33.9050 C.3     1  UNL1        0.0889
     12 N         -24.7580   -1.4810   32.6460 N.3     1  UNL1       -0.2150
     13 C         -25.6880    1.6140   26.4610 C.3     1  UNL1        0.2510
     14 C         -26.2500    2.9200   26.3950 C.2     1  UNL1        0.0991
     15 C         -25.6420    4.0930   27.1230 C.2     1  UNL1        0.2663
     16 N         -25.6140    5.2520   26.4490 N.am    1  UNL1       -0.1999
     17 C         -25.0260    6.4790   26.9630 C.3     1  UNL1        0.1388
     18 O         -25.1430    3.9660   28.2430 O.2     1  UNL1       -0.2685
     19 C         -27.4380    3.0910   25.6450 C.2     1  UNL1        0.1061
     20 N         -28.0750    2.0890   25.0030 N.2     1  UNL1       -0.2116
     21 C         -27.5430    0.8490   25.0790 C.2     1  UNL1        0.2384
     22 O         -28.1930   -0.2080   24.4770 O.2     1  UNL1       -0.4584
     23 C         -29.4600    0.0050   23.8660 C.3     1  UNL1        0.2423
     24 C         -30.0650   -1.3770   23.5730 C.3     1  UNL1        0.2292
     25 O         -30.7290   -1.8780   24.7210 O.3     1  UNL1       -0.2162
     26 C         -26.3540    0.5760   25.7770 C.3     1  UNL1        0.2842
     27 F         -25.8600   -0.6810   25.7950 F       1  UNL1       -0.2224
     28 O         -28.8352   -0.2093   28.5982 O.3     1  UNL1       -0.2072
     29 N         -25.2143    0.0317   29.0440 N.am    1  UNL1       -0.1341
     30 C         -24.3233    0.6035   28.1569 C.2     1  UNL1        0.3336
     31 O         -21.9394   -0.7207   29.8297 O.3     1  UNL1       -0.2200
     32 N         -24.2403    1.5595   26.9100 N.pl3   1  UNL1       -0.0988
     33 C         -26.6457    0.4382   28.9792 C.2     1  UNL1        0.3475
     34 C         -23.3219    0.6347   27.8077 C.1     1  UNL1       -0.0254
     35 C         -20.8505    0.6461   28.0602 C.3     1  UNL1        0.0671
     36 C         -21.0355   -0.4712   28.8937 C.3     1  UNL1        0.1871
     37 C         -22.0458    1.0915   27.3842 C.2     1  UNL1        0.0210
     38 N         -23.3941    2.3519   25.9841 N.3     1  UNL1       -0.0311
     39 C         -27.5058   -0.7439   28.6507 C.3     1  UNL1        0.2937
     40 O         -27.2068    1.5263   29.0622 O.2     1  UNL1       -0.2438
     41 C         -22.2114    2.0472   26.2857 C.3     1  UNL1        0.1674
@<TRIPOS>BOND
     1     1    29    1
     2     2     7    1
     3     2     1    1
     4     3     2    2
     5     4     3    1
     6     4     5    2
     7     5     6    1
     8     6     7    2
     9     8     1    1
    10     8     9    1
    11     8    12    1
    12     9    10    1
    13    10    11    1
    14    12    11    1
    15    13    32    1
    16    14    13    1
    17    14    15    1
    18    15    18    2
    19    16    17    1
    20    16    15    1
    21    19    14    2
    22    20    21    2
    23    20    19    1
    24    21    26    1
    25    22    21    1
    26    23    22    1
    27    24    23    1
    28    24    25    1
    29    26    27    1
    30    26    13    1
    31    28    39    1
    32    30    29    1
    33    32    30    1
    34    33    29   am
    35    33    40    2
    36    34    30    2
    37    35    36    1
    38    36    31    1
    39    37    34    2
    40    37    35    1
    41    38    41    1
    42    38    32    1
    43    39    33    1
    44    41    37    1
