@<TRIPOS>MOLECULE
outputs/IAG933/test6/raw/output_3412_IAG933_linker_design_.xyz
 42 44 0 0 0
SMALL
GASTEIGER

@<TRIPOS>ATOM
      1 C         -24.8550   -1.0120   30.1430 C.3     1  UNL1        0.0672
      2 C         -24.9730   -2.5050   29.7880 C.2     1  UNL1       -0.0187
      3 C         -23.9060   -3.1730   29.1460 C.2     1  UNL1       -0.0042
      4 C         -23.9890   -4.5490   28.8530 C.2     1  UNL1       -0.0003
      5 C         -25.1370   -5.2800   29.2050 C.2     1  UNL1       -0.0000
      6 C         -26.2320   -4.6110   29.7840 C.2     1  UNL1       -0.0003
      7 C         -26.1550   -3.2320   30.0650 C.2     1  UNL1       -0.0042
      8 C         -25.3870   -0.6790   31.5710 C.3     1  UNL1        0.0792
      9 C         -25.1890    0.7730   32.0280 C.3     1  UNL1        0.0193
     10 C         -25.3360    0.6840   33.5440 C.3     1  UNL1        0.0202
     11 C         -24.8290   -0.7150   33.9050 C.3     1  UNL1        0.0887
     12 N         -24.7580   -1.4810   32.6460 N.3     1  UNL1       -0.2190
     13 C         -25.6880    1.6140   26.4610 C.2     1  UNL1        0.0177
     14 C         -26.2500    2.9200   26.3950 C.2     1  UNL1        0.0726
     15 C         -25.6420    4.0930   27.1230 C.2     1  UNL1        0.2661
     16 N         -25.6140    5.2520   26.4490 N.am    1  UNL1       -0.1997
     17 C         -25.0260    6.4790   26.9630 C.3     1  UNL1        0.1388
     18 O         -25.1430    3.9660   28.2430 O.2     1  UNL1       -0.2683
     19 C         -27.4380    3.0910   25.6450 C.2     1  UNL1        0.1064
     20 N         -28.0750    2.0890   25.0030 N.2     1  UNL1       -0.2081
     21 C         -27.5430    0.8490   25.0790 C.2     1  UNL1        0.2530
     22 O         -28.1930   -0.2080   24.4770 O.2     1  UNL1       -0.4558
     23 C         -29.4600    0.0050   23.8660 C.3     1  UNL1        0.2426
     24 C         -30.0650   -1.3770   23.5730 C.3     1  UNL1        0.2292
     25 O         -30.7290   -1.8780   24.7210 O.3     1  UNL1       -0.2162
     26 C         -26.3540    0.5760   25.7770 C.2     1  UNL1        0.1892
     27 F         -25.8600   -0.6810   25.7950 F       1  UNL1       -0.1996
     28 C         -24.6361    0.9593   28.7142 C.3     1  UNL1        0.1271
     29 N         -25.8299    1.6505   29.2117 N.am    1  UNL1       -0.2043
     30 C         -20.2791   -0.1689   28.4995 C.3     1  UNL1        0.0349
     31 C         -23.9656   -0.0464   29.3130 C.3     1  UNL1        0.1406
     32 C         -27.7818    4.1848   30.6571 C.3     1  UNL1        0.1098
     33 C         -21.5862    0.2673   28.8291 C.3     1  UNL1        0.1481
     34 C         -21.6611    1.4388   28.1676 C.3     1  UNL1        0.2114
     35 O         -27.3378   -0.1248   29.0566 O.2     1  UNL1       -0.2733
     36 C         -27.0730    1.1105   29.1821 C.2     1  UNL1        0.2414
     37 O         -22.6129   -0.3825   29.4184 O.3     1  UNL1       -0.3539
     38 N         -28.8538    3.9525   31.6295 N.3     1  UNL1       -0.1314
     39 C         -28.2597    2.0133   29.3272 C.3     1  UNL1        0.0884
     40 C         -27.8575    3.4994   29.2995 C.3     1  UNL1        0.0301
     41 C         -24.3914    1.3893   27.2052 C.3     1  UNL1        0.0531
     42 O         -21.1692    1.6356   26.9318 O.3     1  UNL1       -0.2177
@<TRIPOS>BOND
     1     1    31    1
     2     2     7    1
     3     2     1    1
     4     3     2    2
     5     4     3    1
     6     4     5    2
     7     5     6    1
     8     6     7    2
     9     8     1    1
    10     8     9    1
    11     8    12    1
    12     9    10    1
    13    10    11    1
    14    12    11    1
    15    13    41    1
    16    14    13    1
    17    14    15    1
    18    15    18    2
    19    16    17    1
    20    16    15    1
    21    19    14    2
    22    20    21    2
    23    20    19    1
    24    21    26    1
    25    22    21    1
    26    23    22    1
    27    24    23    1
    28    24    25    1
    29    26    27    1
    30    26    13    2
    31    28    41    1
    32    28    29    1
    33    28    31    1
    34    31    37    1
    35    32    38    1
    36    33    30    1
    37    33    37    1
    38    34    33    1
    39    35    36    2
    40    36    29    1
    41    36    39    1
    42    40    39    1
    43    40    32    1
    44    42    34    1
