@<TRIPOS>MOLECULE
outputs/IAG933/test6/raw/output_3413_IAG933_linker_design_.xyz
 44 48 0 0 0
SMALL
GASTEIGER

@<TRIPOS>ATOM
      1 C         -24.8550   -1.0120   30.1430 C.3     1  UNL1        0.0625
      2 C         -24.9730   -2.5050   29.7880 C.2     1  UNL1       -0.0191
      3 C         -23.9060   -3.1730   29.1460 C.2     1  UNL1       -0.0042
      4 C         -23.9890   -4.5490   28.8530 C.2     1  UNL1       -0.0003
      5 C         -25.1370   -5.2800   29.2050 C.2     1  UNL1       -0.0000
      6 C         -26.2320   -4.6110   29.7840 C.2     1  UNL1       -0.0003
      7 C         -26.1550   -3.2320   30.0650 C.2     1  UNL1       -0.0042
      8 C         -25.3870   -0.6790   31.5710 C.3     1  UNL1        0.0788
      9 C         -25.1890    0.7730   32.0280 C.3     1  UNL1        0.0193
     10 C         -25.3360    0.6840   33.5440 C.3     1  UNL1        0.0202
     11 C         -24.8290   -0.7150   33.9050 C.3     1  UNL1        0.0887
     12 N         -24.7580   -1.4810   32.6460 N.3     1  UNL1       -0.2191
     13 C         -25.6880    1.6140   26.4610 C.3     1  UNL1        0.0921
     14 C         -26.2500    2.9200   26.3950 C.2     1  UNL1        0.0589
     15 C         -25.6420    4.0930   27.1230 C.2     1  UNL1        0.2628
     16 N         -25.6140    5.2520   26.4490 N.am    1  UNL1       -0.2000
     17 C         -25.0260    6.4790   26.9630 C.3     1  UNL1        0.1388
     18 O         -25.1430    3.9660   28.2430 O.2     1  UNL1       -0.2686
     19 C         -27.4380    3.0910   25.6450 C.2     1  UNL1        0.1025
     20 N         -28.0750    2.0890   25.0030 N.2     1  UNL1       -0.2118
     21 C         -27.5430    0.8490   25.0790 C.2     1  UNL1        0.2344
     22 O         -28.1930   -0.2080   24.4770 O.2     1  UNL1       -0.4585
     23 C         -29.4600    0.0050   23.8660 C.3     1  UNL1        0.2423
     24 C         -30.0650   -1.3770   23.5730 C.3     1  UNL1        0.2292
     25 O         -30.7290   -1.8780   24.7210 O.3     1  UNL1       -0.2162
     26 C         -26.3540    0.5760   25.7770 C.3     1  UNL1        0.2440
     27 F         -25.8600   -0.6810   25.7950 F       1  UNL1       -0.2265
     28 C         -24.3428    1.4530   26.8716 C.2     1  UNL1       -0.0174
     29 C         -25.1080   -0.1494   28.8364 C.3     1  UNL1        0.1241
     30 O         -29.9980    1.5298   33.1611 O.3     1  UNL1       -0.2231
     31 C         -21.6613    1.2352   27.6668 C.2     1  UNL1       -0.0003
     32 C         -29.7381    2.5968   29.7288 C.3     1  UNL1        0.0244
     33 C         -30.9080    0.8751   30.8928 C.3     1  UNL1        0.0546
     34 C         -24.0376    0.6989   28.0581 C.2     1  UNL1       -0.0057
     35 C         -29.4270    2.9010   31.2029 C.3     1  UNL1        0.0347
     36 O         -27.8006   -0.9601   28.6723 O.2     1  UNL1       -0.2492
     37 C         -27.6017    0.0162   29.3348 C.2     1  UNL1        0.3395
     38 C         -23.3247    2.0738   26.0882 C.2     1  UNL1       -0.0041
     39 C         -29.8410    1.0352   29.7503 C.3     1  UNL1        0.0996
     40 N         -26.2840    0.6537   29.2026 N.am    1  UNL1       -0.1841
     41 C         -22.6696    0.6431   28.4512 C.2     1  UNL1       -0.0029
     42 C         -30.3788    1.9237   31.8748 C.3     1  UNL1        0.1538
     43 N         -28.6736    0.5271   30.2364 N.am    1  UNL1       -0.1889
     44 C         -21.9789    1.9512   26.4984 C.2     1  UNL1       -0.0003
@<TRIPOS>BOND
     1     1    29    1
     2     2     7    1
     3     2     1    1
     4     3     2    2
     5     4     3    1
     6     4     5    2
     7     5     6    1
     8     6     7    2
     9     8     1    1
    10     8     9    1
    11     8    12    1
    12     9    10    1
    13    10    11    1
    14    12    11    1
    15    13    28    1
    16    14    13    1
    17    14    15    1
    18    15    18    2
    19    16    17    1
    20    16    15    1
    21    19    14    2
    22    20    21    2
    23    20    19    1
    24    21    26    1
    25    22    21    1
    26    23    22    1
    27    24    23    1
    28    24    25    1
    29    26    27    1
    30    26    13    1
    31    28    34    1
    32    29    40    1
    33    31    41    1
    34    32    39    1
    35    32    35    1
    36    33    42    1
    37    34    41    2
    38    34    29    1
    39    35    42    1
    40    36    37    2
    41    37    43    1
    42    38    44    1
    43    38    28    2
    44    39    43    1
    45    39    33    1
    46    40    37    1
    47    42    30    1
    48    44    31    2
