@<TRIPOS>MOLECULE
outputs/IAG933/test6/raw/output_3417_IAG933_linker_design_.xyz
 41 45 0 0 0
SMALL
GASTEIGER

@<TRIPOS>ATOM
      1 C         -24.8550   -1.0120   30.1430 C.3     1  UNL1        0.0403
      2 C         -24.9730   -2.5050   29.7880 C.2     1  UNL1       -0.0211
      3 C         -23.9060   -3.1730   29.1460 C.2     1  UNL1       -0.0042
      4 C         -23.9890   -4.5490   28.8530 C.2     1  UNL1       -0.0003
      5 C         -25.1370   -5.2800   29.2050 C.2     1  UNL1       -0.0000
      6 C         -26.2320   -4.6110   29.7840 C.2     1  UNL1       -0.0003
      7 C         -26.1550   -3.2320   30.0650 C.2     1  UNL1       -0.0042
      8 C         -25.3870   -0.6790   31.5710 C.3     1  UNL1        0.0769
      9 C         -25.1890    0.7730   32.0280 C.3     1  UNL1        0.0192
     10 C         -25.3360    0.6840   33.5440 C.3     1  UNL1        0.0202
     11 C         -24.8290   -0.7150   33.9050 C.3     1  UNL1        0.0887
     12 N         -24.7580   -1.4810   32.6460 N.3     1  UNL1       -0.2191
     13 C         -25.6880    1.6140   26.4610 C.3     1  UNL1        0.0895
     14 C         -26.2500    2.9200   26.3950 C.2     1  UNL1        0.0586
     15 C         -25.6420    4.0930   27.1230 C.2     1  UNL1        0.2627
     16 N         -25.6140    5.2520   26.4490 N.am    1  UNL1       -0.2000
     17 C         -25.0260    6.4790   26.9630 C.3     1  UNL1        0.1388
     18 O         -25.1430    3.9660   28.2430 O.2     1  UNL1       -0.2686
     19 C         -27.4380    3.0910   25.6450 C.2     1  UNL1        0.1025
     20 N         -28.0750    2.0890   25.0030 N.2     1  UNL1       -0.2118
     21 C         -27.5430    0.8490   25.0790 C.2     1  UNL1        0.2344
     22 O         -28.1930   -0.2080   24.4770 O.2     1  UNL1       -0.4585
     23 C         -29.4600    0.0050   23.8660 C.3     1  UNL1        0.2423
     24 C         -30.0650   -1.3770   23.5730 C.3     1  UNL1        0.2292
     25 O         -30.7290   -1.8780   24.7210 O.3     1  UNL1       -0.2162
     26 C         -26.3540    0.5760   25.7770 C.3     1  UNL1        0.2437
     27 F         -25.8600   -0.6810   25.7950 F       1  UNL1       -0.2265
     28 C         -22.8155    1.4172   26.2424 C.3     1  UNL1        0.2128
     29 C         -24.3514   -0.0726   29.4467 C.3     1  UNL1        0.0298
     30 N         -26.4529    1.2903   29.1798 N.am    1  UNL1       -0.1633
     31 C         -22.9344   -0.0165   29.3524 C.3     1  UNL1        0.0090
     32 O         -27.6423   -0.5418   28.6203 O.co2   1  UNL1       -0.2207
     33 C         -24.7740    1.2106   27.5113 C.2     1  UNL1       -0.0219
     34 O         -28.6223    1.3311   28.8446 O.co2   1  UNL1       -0.2207
     35 C         -27.6520    0.6834   28.8762 C.2     1  UNL1        0.4632
     36 C         -23.4161    1.1681   27.3718 C.2     1  UNL1       -0.0058
     37 C         -22.4983    0.7072   28.2246 C.3     1  UNL1        0.0510
     38 O         -21.4260    1.6933   26.4854 O.3     1  UNL1       -0.3369
     39 C         -21.2172    1.0458   27.7295 C.3     1  UNL1        0.1480
     40 C         -25.2003    0.8398   28.7007 C.3     1  UNL1        0.1173
     41 CL        -23.1541    1.3833   24.5719 Cl      1  UNL1       -0.0777
@<TRIPOS>BOND
     1     1     2    1
     2     2     7    1
     3     3     2    2
     4     4     3    1
     5     4     5    2
     6     5     6    1
     7     6     7    2
     8     8     1    1
     9     8     9    1
    10     8    12    1
    11     9    10    1
    12    10    11    1
    13    12    11    1
    14    13    33    1
    15    14    13    1
    16    14    15    1
    17    15    18    2
    18    16    17    1
    19    16    15    1
    20    19    14    2
    21    20    21    2
    22    20    19    1
    23    21    26    1
    24    22    21    1
    25    23    22    1
    26    24    23    1
    27    24    25    1
    28    26    27    1
    29    26    13    1
    30    28    41    1
    31    28    38    1
    32    28    36    1
    33    29     1    1
    34    31    29    1
    35    32    35   ar
    36    33    40    1
    37    34    35   ar
    38    35    30    1
    39    36    33    2
    40    36    37    1
    41    37    39    1
    42    37    31    1
    43    38    39    1
    44    40    30    1
    45    40    29    1
