@<TRIPOS>MOLECULE
No_3418-gen_results/8p0m/2024-11-27-11-27-31/
 22 23 0 0 0
SMALL
GASTEIGER

@<TRIPOS>ATOM
      1 C         -28.0162   -0.8135   28.8779 C.3     1  UNL1        0.2555
      2 C         -27.0636   -0.1190   28.6079 C.3     1  UNL1        0.4273
      3 F         -27.0425    0.2440   27.4277 F       1  UNL1       -0.1672
      4 F         -27.6481   -1.9251   29.5748 F       1  UNL1       -0.2281
      5 C         -29.0434   -0.1276   29.7843 C.3     1  UNL1        0.0503
      6 C         -30.2615   -0.6536   29.9265 C.3     1  UNL1        0.0296
      7 F         -25.7973   -0.8243   28.7138 F       1  UNL1       -0.1672
      8 F         -26.6557    1.0036   29.3401 F       1  UNL1       -0.1672
      9 C         -31.2023    0.0530   29.4491 C.ar    1  UNL1       -0.0197
     10 C         -32.2733   -0.3431   28.9451 C.ar    1  UNL1        0.0755
     11 C         -33.3501    0.4592   28.3456 C.ar    1  UNL1        0.0062
     12 C         -33.1398    1.8402   28.3743 C.ar    1  UNL1       -0.0001
     13 C         -31.9853    2.3582   28.9031 C.ar    1  UNL1       -0.0046
     14 C         -31.0236    1.5487   29.3994 C.ar    1  UNL1       -0.0259
     15 C         -29.7566    2.1098   29.8212 C.3     1  UNL1        0.0262
     16 C         -28.9517    1.3425   29.3680 C.3     1  UNL1        0.0084
     17 C         -28.3544    0.0015   31.2808 C.3     1  UNL1        0.0755
     18 C         -28.2735   -1.1219   31.9683 C.2     1  UNL1        0.2075
     19 O         -27.9047   -0.9523   33.1892 O.2     1  UNL1       -0.2883
     20 C         -32.6243   -1.8262   28.8856 C.2     1  UNL1        0.3874
     21 O         -32.6714   -2.4175   27.8986 O.co2   1  UNL1       -0.2406
     22 O         -32.2907   -2.5122   30.0769 O.co2   1  UNL1       -0.2406
@<TRIPOS>BOND
     1     1     2    1
     2     2     3    1
     3     1     4    1
     4     1     5    1
     5     5     6    1
     6     2     7    1
     7     2     8    1
     8     6     9    1
     9    14    15    1
    10     5    16    1
    11    15    16    1
    12     5    17    1
    13    17    18    1
    14    18    19    2
    15    10    20    1
    16    20    21   ar
    17    20    22   ar
    18     9    10   ar
    19    10    11   ar
    20    11    12   ar
    21    12    13   ar
    22    13    14   ar
    23    14     9   ar
