@<TRIPOS>MOLECULE
outputs/IAG933/test6/raw/output_342_IAG933_linker_design_.xyz
 42 45 0 0 0
SMALL
GASTEIGER

@<TRIPOS>ATOM
      1 C         -24.8550   -1.0120   30.1430 C.3     1  UNL1        0.0583
      2 C         -24.9730   -2.5050   29.7880 C.2     1  UNL1       -0.0195
      3 C         -23.9060   -3.1730   29.1460 C.2     1  UNL1       -0.0042
      4 C         -23.9890   -4.5490   28.8530 C.2     1  UNL1       -0.0003
      5 C         -25.1370   -5.2800   29.2050 C.2     1  UNL1       -0.0000
      6 C         -26.2320   -4.6110   29.7840 C.2     1  UNL1       -0.0003
      7 C         -26.1550   -3.2320   30.0650 C.2     1  UNL1       -0.0042
      8 C         -25.3870   -0.6790   31.5710 C.3     1  UNL1        0.0785
      9 C         -25.1890    0.7730   32.0280 C.3     1  UNL1        0.0192
     10 C         -25.3360    0.6840   33.5440 C.3     1  UNL1        0.0202
     11 C         -24.8290   -0.7150   33.9050 C.3     1  UNL1        0.0887
     12 N         -24.7580   -1.4810   32.6460 N.3     1  UNL1       -0.2191
     13 C         -25.6880    1.6140   26.4610 C.3     1  UNL1        0.0702
     14 C         -26.2500    2.9200   26.3950 C.2     1  UNL1        0.0548
     15 C         -25.6420    4.0930   27.1230 C.2     1  UNL1        0.2624
     16 N         -25.6140    5.2520   26.4490 N.am    1  UNL1       -0.2000
     17 C         -25.0260    6.4790   26.9630 C.3     1  UNL1        0.1388
     18 O         -25.1430    3.9660   28.2430 O.2     1  UNL1       -0.2687
     19 C         -27.4380    3.0910   25.6450 C.2     1  UNL1        0.1021
     20 N         -28.0750    2.0890   25.0030 N.2     1  UNL1       -0.2119
     21 C         -27.5430    0.8490   25.0790 C.2     1  UNL1        0.2341
     22 O         -28.1930   -0.2080   24.4770 O.2     1  UNL1       -0.4585
     23 C         -29.4600    0.0050   23.8660 C.3     1  UNL1        0.2423
     24 C         -30.0650   -1.3770   23.5730 C.3     1  UNL1        0.2292
     25 O         -30.7290   -1.8780   24.7210 O.3     1  UNL1       -0.2162
     26 C         -26.3540    0.5760   25.7770 C.3     1  UNL1        0.2400
     27 F         -25.8600   -0.6810   25.7950 F       1  UNL1       -0.2269
     28 C         -30.1063    3.7477   29.1712 C.3     1  UNL1        0.0364
     29 C         -29.6903    1.2642   28.8218 C.3     1  UNL1        0.0952
     30 C         -21.4428    1.6394   27.6264 C.3     1  UNL1        0.0001
     31 C         -23.0196    1.5586   27.8266 C.3     1  UNL1        0.0021
     32 O         -28.0020    4.8006   29.8668 O.3     1  UNL1       -0.2213
     33 C         -24.7002    0.0171   29.0005 C.3     1  UNL1        0.1022
     34 N         -25.7792    1.0708   28.9811 N.am    1  UNL1       -0.1898
     35 N         -28.3280    1.6291   29.3327 N.am    1  UNL1       -0.2603
     36 C         -27.2427    0.6439   29.0664 C.2     1  UNL1        0.3232
     37 O         -27.5767   -0.5203   28.8982 O.2     1  UNL1       -0.2508
     38 C         -28.9929    3.9249   30.2559 C.3     1  UNL1        0.1718
     39 C         -30.7343    2.3155   29.2793 C.3     1  UNL1        0.0242
     40 C         -23.2194    0.3622   28.7419 C.3     1  UNL1        0.0221
     41 C         -24.2963    1.3600   26.7636 C.3     1  UNL1        0.0079
     42 C         -28.2720    2.5518   30.4866 C.3     1  UNL1        0.1277
@<TRIPOS>BOND
     1     1    33    1
     2     2     7    1
     3     2     1    1
     4     3     2    2
     5     4     3    1
     6     4     5    2
     7     5     6    1
     8     6     7    2
     9     8     1    1
    10     8     9    1
    11     8    12    1
    12     9    10    1
    13    10    11    1
    14    12    11    1
    15    13    41    1
    16    14    13    1
    17    14    15    1
    18    15    18    2
    19    16    17    1
    20    16    15    1
    21    19    14    2
    22    20    21    2
    23    20    19    1
    24    21    26    1
    25    22    21    1
    26    23    22    1
    27    24    23    1
    28    24    25    1
    29    26    27    1
    30    26    13    1
    31    28    39    1
    32    28    38    1
    33    29    39    1
    34    29    35    1
    35    31    30    1
    36    31    40    1
    37    33    40    1
    38    34    33    1
    39    34    36    1
    40    35    42    1
    41    36    35   am
    42    37    36    2
    43    38    32    1
    44    38    42    1
    45    41    31    1
