@<TRIPOS>MOLECULE
outputs/IAG933/test6/raw/output_3422_IAG933_linker_design_.xyz
 44 47 0 0 0
SMALL
GASTEIGER

@<TRIPOS>ATOM
      1 C         -24.8550   -1.0120   30.1430 C.3     1  UNL1        0.0582
      2 C         -24.9730   -2.5050   29.7880 C.2     1  UNL1       -0.0195
      3 C         -23.9060   -3.1730   29.1460 C.2     1  UNL1       -0.0042
      4 C         -23.9890   -4.5490   28.8530 C.2     1  UNL1       -0.0003
      5 C         -25.1370   -5.2800   29.2050 C.2     1  UNL1       -0.0000
      6 C         -26.2320   -4.6110   29.7840 C.2     1  UNL1       -0.0003
      7 C         -26.1550   -3.2320   30.0650 C.2     1  UNL1       -0.0042
      8 C         -25.3870   -0.6790   31.5710 C.3     1  UNL1        0.0785
      9 C         -25.1890    0.7730   32.0280 C.3     1  UNL1        0.0192
     10 C         -25.3360    0.6840   33.5440 C.3     1  UNL1        0.0202
     11 C         -24.8290   -0.7150   33.9050 C.3     1  UNL1        0.0887
     12 N         -24.7580   -1.4810   32.6460 N.3     1  UNL1       -0.2191
     13 C         -25.6880    1.6140   26.4610 C.3     1  UNL1        0.0888
     14 C         -26.2500    2.9200   26.3950 C.2     1  UNL1        0.0564
     15 C         -25.6420    4.0930   27.1230 C.2     1  UNL1        0.2625
     16 N         -25.6140    5.2520   26.4490 N.am    1  UNL1       -0.2000
     17 C         -25.0260    6.4790   26.9630 C.3     1  UNL1        0.1388
     18 O         -25.1430    3.9660   28.2430 O.2     1  UNL1       -0.2687
     19 C         -27.4380    3.0910   25.6450 C.2     1  UNL1        0.1022
     20 N         -28.0750    2.0890   25.0030 N.2     1  UNL1       -0.2119
     21 C         -27.5430    0.8490   25.0790 C.2     1  UNL1        0.2341
     22 O         -28.1930   -0.2080   24.4770 O.2     1  UNL1       -0.4585
     23 C         -29.4600    0.0050   23.8660 C.3     1  UNL1        0.2423
     24 C         -30.0650   -1.3770   23.5730 C.3     1  UNL1        0.2292
     25 O         -30.7290   -1.8780   24.7210 O.3     1  UNL1       -0.2162
     26 C         -26.3540    0.5760   25.7770 C.3     1  UNL1        0.2416
     27 F         -25.8600   -0.6810   25.7950 F       1  UNL1       -0.2268
     28 C         -22.8975    0.0236   28.5520 C.2     1  UNL1        0.2086
     29 C         -23.8129    4.5914   32.2576 C.2     1  UNL1        0.0985
     30 C         -25.1434    6.1004   33.5517 C.2     1  UNL1        0.0029
     31 C         -24.7906    1.2128   27.5758 C.3     1  UNL1        0.0915
     32 C         -26.1888    5.9884   32.6160 C.2     1  UNL1        0.0165
     33 N         -24.8733    4.3977   31.4195 N.2     1  UNL1       -0.2464
     34 O         -27.8482    1.2717   29.7800 O.2     1  UNL1       -0.2508
     35 C         -25.8015   -0.2440   29.2036 C.3     1  UNL1        0.1006
     36 N         -26.9409    3.2421   30.0709 N.am    1  UNL1       -0.1819
     37 N         -25.6330    1.2529   28.9701 N.am    1  UNL1       -0.2633
     38 C         -26.9244    1.8745   29.6102 C.2     1  UNL1        0.3236
     39 C         -23.4658    1.0054   27.6614 C.3     1  UNL1        0.0835
     40 C         -26.6427    4.6996   30.5598 C.3     1  UNL1        0.1621
     41 C         -22.3146    1.9387   27.3424 C.3     1  UNL1        0.0100
     42 C         -23.9974    5.3307   33.4357 C.2     1  UNL1        0.0207
     43 C         -25.9547    4.9508   31.6818 C.2     1  UNL1        0.0810
     44 O         -22.1887   -0.2320   29.3641 O.2     1  UNL1       -0.2883
@<TRIPOS>BOND
     1     1    35    1
     2     2     7    1
     3     2     1    1
     4     3     2    2
     5     4     3    1
     6     4     5    2
     7     5     6    1
     8     6     7    2
     9     8     1    1
    10     8     9    1
    11     8    12    1
    12     9    10    1
    13    10    11    1
    14    12    11    1
    15    13    31    1
    16    14    13    1
    17    14    15    1
    18    15    18    2
    19    16    17    1
    20    16    15    1
    21    19    14    2
    22    20    21    2
    23    20    19    1
    24    21    26    1
    25    22    21    1
    26    23    22    1
    27    24    23    1
    28    24    25    1
    29    26    27    1
    30    26    13    1
    31    28    44    2
    32    29    42    1
    33    31    39    1
    34    31    37    1
    35    32    30    1
    36    33    43    1
    37    33    29    2
    38    36    40    1
    39    37    35    1
    40    37    38   am
    41    38    34    2
    42    38    36    1
    43    39    41    1
    44    39    28    1
    45    40    43    1
    46    42    30    2
    47    43    32    2
