@<TRIPOS>MOLECULE
No_3423-gen_results/8p0m/2024-11-27-11-27-31/
 35 38 0 0 0
SMALL
GASTEIGER

@<TRIPOS>ATOM
      1 O         -28.1229   -1.3353   28.4874 O.2     1  UNL1       -0.2741
      2 C         -27.0637   -0.8242   28.8687 C.2     1  UNL1        0.2352
      3 C         -26.4017   -0.0623   28.6224 C.3     1  UNL1        0.0999
      4 N         -26.3805   -1.7991   29.9619 N.am    1  UNL1       -0.2256
      5 C         -25.0334    0.3743   29.0484 C.3     1  UNL1        0.0265
      6 C         -24.5462   -0.4703   30.1069 C.3     1  UNL1        0.1244
      7 C         -23.1825   -0.2090   30.6548 C.2     1  UNL1        0.3660
      8 C         -25.2403   -1.6006   30.5360 C.3     1  UNL1        0.1124
      9 C         -26.8176    0.9805   27.5115 C.ar    1  UNL1       -0.0134
     10 C         -26.0187    1.2625   26.5117 C.ar    1  UNL1       -0.0038
     11 O         -22.4998    0.7636   30.2211 O.co2   1  UNL1       -0.2456
     12 O         -22.7450   -0.8964   31.7027 O.co2   1  UNL1       -0.2456
     13 C         -26.4893    2.0011   25.4316 C.ar    1  UNL1        0.0002
     14 C         -27.8529    2.4025   25.3458 C.ar    1  UNL1        0.0067
     15 C         -28.6910    2.0035   26.4014 C.ar    1  UNL1        0.0343
     16 C         -28.1818    1.2967   27.4873 C.ar    1  UNL1        0.0029
     17 C         -27.2588   -2.9507   30.3576 C.2     1  UNL1        0.2547
     18 C         -28.4641   -2.7597   30.9929 C.ar    1  UNL1        0.0542
     19 C         -29.2374   -3.8339   31.2587 C.ar    1  UNL1        0.0045
     20 C         -30.4898   -3.6508   31.8722 C.ar    1  UNL1        0.0004
     21 C         -30.9669   -2.7162   31.8131 C.ar    1  UNL1        0.0064
     22 C         -30.4029   -1.4114   31.5373 C.ar    1  UNL1        0.0758
     23 C         -29.0717   -1.4629   31.0733 C.ar    1  UNL1        0.0110
     24 O         -26.6672   -4.0190   30.1092 O.2     1  UNL1       -0.2695
     25 BR        -30.3430    2.7492   26.2523 Br      1  UNL1       -0.0490
     26 C         -31.0418   -0.0900   31.7057 C.2     1  UNL1        0.3415
     27 O         -31.8035    0.3112   30.9800 O.2     1  UNL1       -0.2449
     28 O         -30.5696    0.6207   32.7552 O.3     1  UNL1       -0.4404
     29 C         -30.4837    1.8589   32.8325 C.3     1  UNL1        0.2354
     30 C         -29.3898    2.3335   32.9543 C.ar    1  UNL1        0.0213
     31 C         -28.2948    1.8270   33.6203 C.ar    1  UNL1       -0.0007
     32 C         -26.9232    2.3276   33.6489 C.ar    1  UNL1       -0.0002
     33 C         -26.6687    3.5256   32.9392 C.ar    1  UNL1       -0.0000
     34 C         -27.6744    4.1511   32.2302 C.ar    1  UNL1       -0.0002
     35 C         -28.9514    3.5946   32.2036 C.ar    1  UNL1       -0.0007
@<TRIPOS>BOND
     1     1     2    2
     2     2     3    1
     3     2     4   am
     4     3     5    1
     5     6     7    1
     6     4     8    1
     7     6     8    1
     8     3     9    1
     9     7    11   ar
    10     7    12   ar
    11     4    17   am
    12    17    18    1
    13    17    24    2
    14    15    25    1
    15    22    26    1
    16    26    27    2
    17    26    28    1
    18    28    29    1
    19    29    30    1
    20     5     6    1
    21    18    19   ar
    22    19    20   ar
    23    20    21   ar
    24    21    22   ar
    25    22    23   ar
    26    23    18   ar
    27    30    31   ar
    28    31    32   ar
    29    32    33   ar
    30    33    34   ar
    31    34    35   ar
    32    35    30   ar
    33     9    10   ar
    34    10    13   ar
    35    13    14   ar
    36    14    15   ar
    37    15    16   ar
    38    16     9   ar
