@<TRIPOS>MOLECULE
outputs/IAG933/test6/raw/output_3424_IAG933_linker_design_.xyz
 44 48 0 0 0
SMALL
GASTEIGER

@<TRIPOS>ATOM
      1 C         -24.8550   -1.0120   30.1430 C.3     1  UNL1        0.1297
      2 C         -24.9730   -2.5050   29.7880 C.2     1  UNL1       -0.0015
      3 C         -23.9060   -3.1730   29.1460 C.2     1  UNL1       -0.0026
      4 C         -23.9890   -4.5490   28.8530 C.2     1  UNL1       -0.0003
      5 C         -25.1370   -5.2800   29.2050 C.2     1  UNL1       -0.0000
      6 C         -26.2320   -4.6110   29.7840 C.2     1  UNL1       -0.0003
      7 C         -26.1550   -3.2320   30.0650 C.2     1  UNL1       -0.0026
      8 C         -25.3870   -0.6790   31.5710 C.3     1  UNL1        0.0966
      9 C         -25.1890    0.7730   32.0280 C.3     1  UNL1        0.0210
     10 C         -25.3360    0.6840   33.5440 C.3     1  UNL1        0.0203
     11 C         -24.8290   -0.7150   33.9050 C.3     1  UNL1        0.0888
     12 N         -24.7580   -1.4810   32.6460 N.3     1  UNL1       -0.2174
     13 C         -25.6880    1.6140   26.4610 C.3     1  UNL1        0.0902
     14 C         -26.2500    2.9200   26.3950 C.2     1  UNL1        0.0586
     15 C         -25.6420    4.0930   27.1230 C.2     1  UNL1        0.2627
     16 N         -25.6140    5.2520   26.4490 N.am    1  UNL1       -0.2000
     17 C         -25.0260    6.4790   26.9630 C.3     1  UNL1        0.1388
     18 O         -25.1430    3.9660   28.2430 O.2     1  UNL1       -0.2686
     19 C         -27.4380    3.0910   25.6450 C.2     1  UNL1        0.1025
     20 N         -28.0750    2.0890   25.0030 N.2     1  UNL1       -0.2118
     21 C         -27.5430    0.8490   25.0790 C.2     1  UNL1        0.2344
     22 O         -28.1930   -0.2080   24.4770 O.2     1  UNL1       -0.4585
     23 C         -29.4600    0.0050   23.8660 C.3     1  UNL1        0.2423
     24 C         -30.0650   -1.3770   23.5730 C.3     1  UNL1        0.2292
     25 O         -30.7290   -1.8780   24.7210 O.3     1  UNL1       -0.2162
     26 C         -26.3540    0.5760   25.7770 C.3     1  UNL1        0.2437
     27 F         -25.8600   -0.6810   25.7950 F       1  UNL1       -0.2265
     28 C         -26.6816    1.1072   29.2171 C.3     1  UNL1        0.0257
     29 C         -24.7622    1.2412   27.5253 C.2     1  UNL1       -0.0109
     30 N         -24.4534   -0.0261   29.3643 N.pl3   1  UNL1       -0.2268
     31 C         -28.0929    3.2651   30.3466 C.3     1  UNL1        0.0027
     32 O         -31.0719    2.3492   29.6399 O.3     1  UNL1       -0.3538
     33 C         -22.5025    2.0050   26.5545 C.2     1  UNL1        0.3344
     34 C         -30.0395    1.3004   29.7613 C.3     1  UNL1        0.1422
     35 C         -25.2805    0.8251   28.6512 C.3     1  UNL1        0.1106
     36 C         -30.8215    3.6725   30.1607 C.3     1  UNL1        0.1422
     37 F         -21.2849    2.1479   26.8903 F       1  UNL1       -0.1586
     38 C         -29.3349    4.1051   30.0140 C.3     1  UNL1        0.0321
     39 C         -23.2777    1.3221   27.4656 C.2     1  UNL1        0.0825
     40 C         -22.5397    0.6131   28.4389 C.2     1  UNL1        0.1224
     41 C         -29.0214    1.5865   28.6989 C.3     1  UNL1        0.0321
     42 O         -22.8116    2.3883   25.5080 O.2     1  UNL1       -0.2541
     43 N         -23.1422   -0.0092   29.3682 N.2     1  UNL1       -0.1798
     44 C         -27.7100    2.2708   29.2194 C.3     1  UNL1        0.0046
@<TRIPOS>BOND
     1     1     2    1
     2     2     7    1
     3     3     2    2
     4     4     3    1
     5     4     5    2
     6     5     6    1
     7     6     7    2
     8     8     1    1
     9     8     9    1
    10     8    12    1
    11     9    10    1
    12    10    11    1
    13    12    11    1
    14    13    29    1
    15    14    13    1
    16    14    15    1
    17    15    18    2
    18    16    17    1
    19    16    15    1
    20    19    14    2
    21    20    21    2
    22    20    19    1
    23    21    26    1
    24    22    21    1
    25    23    22    1
    26    24    23    1
    27    24    25    1
    28    26    27    1
    29    26    13    1
    30    29    35    1
    31    30    43    1
    32    30     1    1
    33    32    34    1
    34    32    36    1
    35    33    37    1
    36    33    39    1
    37    35    28    1
    38    35    30    1
    39    38    36    1
    40    38    31    1
    41    39    29    2
    42    39    40    1
    43    40    43    2
    44    41    44    1
    45    41    34    1
    46    42    33    2
    47    44    28    1
    48    44    31    1
