@<TRIPOS>MOLECULE
outputs/IAG933/test6/raw/output_3430_IAG933_linker_design_.xyz
 42 45 0 0 0
SMALL
GASTEIGER

@<TRIPOS>ATOM
      1 C         -24.8550   -1.0120   30.1430 C.3     1  UNL1        0.1114
      2 C         -24.9730   -2.5050   29.7880 C.2     1  UNL1       -0.0030
      3 C         -23.9060   -3.1730   29.1460 C.2     1  UNL1       -0.0026
      4 C         -23.9890   -4.5490   28.8530 C.2     1  UNL1       -0.0003
      5 C         -25.1370   -5.2800   29.2050 C.2     1  UNL1       -0.0000
      6 C         -26.2320   -4.6110   29.7840 C.2     1  UNL1       -0.0003
      7 C         -26.1550   -3.2320   30.0650 C.2     1  UNL1       -0.0026
      8 C         -25.3870   -0.6790   31.5710 C.3     1  UNL1        0.0950
      9 C         -25.1890    0.7730   32.0280 C.3     1  UNL1        0.0209
     10 C         -25.3360    0.6840   33.5440 C.3     1  UNL1        0.0203
     11 C         -24.8290   -0.7150   33.9050 C.3     1  UNL1        0.0888
     12 N         -24.7580   -1.4810   32.6460 N.3     1  UNL1       -0.2174
     13 C         -25.6880    1.6140   26.4610 C.2     1  UNL1        0.0402
     14 C         -26.2500    2.9200   26.3950 C.2     1  UNL1        0.0766
     15 C         -25.6420    4.0930   27.1230 C.2     1  UNL1        0.2664
     16 N         -25.6140    5.2520   26.4490 N.am    1  UNL1       -0.1997
     17 C         -25.0260    6.4790   26.9630 C.3     1  UNL1        0.1388
     18 O         -25.1430    3.9660   28.2430 O.2     1  UNL1       -0.2683
     19 C         -27.4380    3.0910   25.6450 C.2     1  UNL1        0.1067
     20 N         -28.0750    2.0890   25.0030 N.2     1  UNL1       -0.2081
     21 C         -27.5430    0.8490   25.0790 C.2     1  UNL1        0.2533
     22 O         -28.1930   -0.2080   24.4770 O.2     1  UNL1       -0.4558
     23 C         -29.4600    0.0050   23.8660 C.3     1  UNL1        0.2426
     24 C         -30.0650   -1.3770   23.5730 C.3     1  UNL1        0.2292
     25 O         -30.7290   -1.8780   24.7210 O.3     1  UNL1       -0.2162
     26 C         -26.3540    0.5760   25.7770 C.2     1  UNL1        0.1931
     27 F         -25.8600   -0.6810   25.7950 F       1  UNL1       -0.1992
     28 C         -24.3793    1.4873   27.1541 C.2     1  UNL1        0.0296
     29 C         -23.1567    2.0692   26.4963 C.2     1  UNL1        0.0591
     30 C         -23.0796    1.2393   29.1703 C.2     1  UNL1        0.2089
     31 S         -29.1642   -0.5336   28.9251 S.O2    1  UNL1       -0.0065
     32 C         -30.0777    0.3116   30.0634 C.3     1  UNL1        0.1761
     33 CL        -23.2331    3.0922   25.0740 Cl      1  UNL1       -0.0822
     34 C         -21.8460    1.5133   28.4509 C.2     1  UNL1        0.0442
     35 O         -29.7959   -0.5033   27.6430 O.2     1  UNL1       -0.1729
     36 C         -21.9663    1.9111   27.0945 C.2     1  UNL1        0.0148
     37 C         -26.4824   -0.5522   28.3729 C.3     1  UNL1        0.1164
     38 O         -28.8636   -1.8527   29.3392 O.2     1  UNL1       -0.1729
     39 C         -24.2578    0.8456   28.4328 C.2     1  UNL1        0.0884
     40 N         -25.2198   -0.0805   29.0374 N.pl3   1  UNL1       -0.2998
     41 O         -23.1318    1.5971   30.4307 O.2     1  UNL1       -0.2852
     42 C         -27.6411    0.3908   28.7503 C.3     1  UNL1        0.1722
@<TRIPOS>BOND
     1     1    40    1
     2     2     7    1
     3     2     1    1
     4     3     2    2
     5     4     3    1
     6     4     5    2
     7     5     6    1
     8     6     7    2
     9     8     1    1
    10     8     9    1
    11     8    12    1
    12     9    10    1
    13    10    11    1
    14    12    11    1
    15    13    28    1
    16    14    13    1
    17    14    15    1
    18    15    18    2
    19    16    17    1
    20    16    15    1
    21    19    14    2
    22    20    21    2
    23    20    19    1
    24    21    26    1
    25    22    21    1
    26    23    22    1
    27    24    23    1
    28    24    25    1
    29    26    27    1
    30    26    13    2
    31    28    39    1
    32    29    36    1
    33    29    28    2
    34    30    41    1
    35    31    38    2
    36    31    32    1
    37    33    29    1
    38    34    30    1
    39    35    31    2
    40    36    34    2
    41    37    42    1
    42    37    40    1
    43    39    40    1
    44    39    30    2
    45    42    31    1
