@<TRIPOS>MOLECULE
No_3432-gen_results/8p0m/2024-11-27-11-27-31/
 15 16 0 0 0
SMALL
GASTEIGER

@<TRIPOS>ATOM
      1 N         -28.0544   -1.0498   28.7246 N.ar    1  UNL1       -0.2285
      2 C         -27.7460   -0.0733   29.0098 C.ar    1  UNL1        0.1392
      3 C         -27.5562    0.3369   30.3393 C.ar    1  UNL1        0.0350
      4 C         -27.8558   -0.5867   31.3709 C.ar    1  UNL1        0.0045
      5 C         -28.2477   -1.8503   30.9650 C.ar    1  UNL1        0.0208
      6 C         -28.3271   -2.1308   29.6397 C.ar    1  UNL1        0.1003
      7 N         -27.4192    0.8770   28.0606 N.pl3   1  UNL1       -0.2499
      8 C         -26.5674    1.5538   27.8987 C.ar    1  UNL1        0.0569
      9 C         -25.5451    1.6733   28.7342 C.ar    1  UNL1        0.0152
     10 C         -25.0869    2.9712   29.0122 C.ar    1  UNL1        0.0013
     11 C         -25.0197    3.8950   27.9839 C.ar    1  UNL1        0.0001
     12 C         -25.8868    3.7203   26.8764 C.ar    1  UNL1        0.0013
     13 C         -26.7103    2.6318   26.8951 C.ar    1  UNL1        0.0152
     14 C         -28.6547    0.9711   27.2056 C.2     1  UNL1        0.0708
     15 C         -28.5414    1.3739   25.9730 C.2     1  UNL1        0.0178
@<TRIPOS>BOND
     1     2     7    1
     2     7     8    1
     3     7    14    1
     4    14    15    2
     5     1     2   ar
     6     2     3   ar
     7     3     4   ar
     8     4     5   ar
     9     5     6   ar
    10     6     1   ar
    11     8     9   ar
    12     9    10   ar
    13    10    11   ar
    14    11    12   ar
    15    12    13   ar
    16    13     8   ar
