@<TRIPOS>MOLECULE
outputs/IAG933/test6/raw/output_3436_IAG933_linker_design_.xyz
 42 46 0 0 0
SMALL
GASTEIGER

@<TRIPOS>ATOM
      1 C         -24.8550   -1.0120   30.1430 C.3     1  UNL1        0.0440
      2 C         -24.9730   -2.5050   29.7880 C.2     1  UNL1       -0.0208
      3 C         -23.9060   -3.1730   29.1460 C.2     1  UNL1       -0.0042
      4 C         -23.9890   -4.5490   28.8530 C.2     1  UNL1       -0.0003
      5 C         -25.1370   -5.2800   29.2050 C.2     1  UNL1       -0.0000
      6 C         -26.2320   -4.6110   29.7840 C.2     1  UNL1       -0.0003
      7 C         -26.1550   -3.2320   30.0650 C.2     1  UNL1       -0.0042
      8 C         -25.3870   -0.6790   31.5710 C.3     1  UNL1        0.0812
      9 C         -25.1890    0.7730   32.0280 C.3     1  UNL1        0.0415
     10 C         -25.3360    0.6840   33.5440 C.3     1  UNL1        0.0246
     11 C         -24.8290   -0.7150   33.9050 C.3     1  UNL1        0.0891
     12 N         -24.7580   -1.4810   32.6460 N.3     1  UNL1       -0.2188
     13 C         -25.6880    1.6140   26.4610 C.2     1  UNL1        0.0407
     14 C         -26.2500    2.9200   26.3950 C.2     1  UNL1        0.0748
     15 C         -25.6420    4.0930   27.1230 C.2     1  UNL1        0.2269
     16 N         -25.6140    5.2520   26.4490 N.2     1  UNL1       -0.2353
     17 C         -25.0260    6.4790   26.9630 C.3     1  UNL1        0.1550
     18 O         -25.1430    3.9660   28.2430 O.2     1  UNL1       -0.4351
     19 C         -27.4380    3.0910   25.6450 C.2     1  UNL1        0.1068
     20 N         -28.0750    2.0890   25.0030 N.2     1  UNL1       -0.2081
     21 C         -27.5430    0.8490   25.0790 C.2     1  UNL1        0.2533
     22 O         -28.1930   -0.2080   24.4770 O.2     1  UNL1       -0.4558
     23 C         -29.4600    0.0050   23.8660 C.3     1  UNL1        0.2426
     24 C         -30.0650   -1.3770   23.5730 C.3     1  UNL1        0.2292
     25 O         -30.7290   -1.8780   24.7210 O.3     1  UNL1       -0.2162
     26 C         -26.3540    0.5760   25.7770 C.2     1  UNL1        0.1931
     27 F         -25.8600   -0.6810   25.7950 F       1  UNL1       -0.1992
     28 C         -25.2091    3.2745   32.4786 C.2     1  UNL1        0.0086
     29 C         -24.7272    2.4580   30.2833 C.2     1  UNL1        0.0985
     30 C         -21.0663    1.7135   27.1042 C.3     1  UNL1        0.2175
     31 CL        -25.5436    5.8176   33.1911 Cl      1  UNL1       -0.0822
     32 C         -25.4036    4.5642   31.9854 C.2     1  UNL1        0.0605
     33 C         -25.4810    4.8159   30.5581 C.2     1  UNL1        0.0503
     34 C         -23.1790    1.8342   27.8312 C.3     1  UNL1        0.1979
     35 N         -23.6325    1.5357   29.9851 N.pl3   1  UNL1       -0.2057
     36 C         -25.1603    3.7545   29.6345 C.2     1  UNL1        0.1624
     37 C         -23.2735    2.1492   26.6108 C.3     1  UNL1        0.2159
     38 C         -25.0515    2.1951   31.5988 C.2     1  UNL1       -0.0023
     39 O         -21.7957    2.0921   25.9920 O.3     1  UNL1       -0.2175
     40 O         -22.0009    1.4867   28.4568 O.3     1  UNL1       -0.3299
     41 C         -23.0003    1.5279   28.7529 C.3     1  UNL1        0.2392
     42 O         -22.9414    2.3641   25.3919 O.3     1  UNL1       -0.2175
@<TRIPOS>BOND
     1     2     7    1
     2     2     1    1
     3     3     2    2
     4     4     3    1
     5     4     5    2
     6     5     6    1
     7     6     7    2
     8     8     1    1
     9     8     9    1
    10     8    12    1
    11     9    38    1
    12     9    10    1
    13    10    11    1
    14    12    11    1
    15    14    13    1
    16    14    15    1
    17    15    18    1
    18    16    17    1
    19    16    15    2
    20    18    36    1
    21    19    14    2
    22    20    21    2
    23    20    19    1
    24    21    26    1
    25    22    21    1
    26    23    22    1
    27    24    23    1
    28    24    25    1
    29    26    27    1
    30    26    13    2
    31    29    38    1
    32    32    28    1
    33    32    31    1
    34    33    32    2
    35    34    37    1
    36    34    40    1
    37    34    41    1
    38    35    29    1
    39    36    29    2
    40    36    33    1
    41    38    28    2
    42    39    30    1
    43    40    41    1
    44    41    35    1
    45    42    39    1
    46    42    37    1
