@<TRIPOS>MOLECULE
outputs/IAG933/test6/raw/output_3437_IAG933_linker_design_.xyz
 45 48 0 0 0
SMALL
GASTEIGER

@<TRIPOS>ATOM
      1 C         -24.8550   -1.0120   30.1430 C.3     1  UNL1        0.0480
      2 C         -24.9730   -2.5050   29.7880 C.2     1  UNL1       -0.0206
      3 C         -23.9060   -3.1730   29.1460 C.2     1  UNL1       -0.0042
      4 C         -23.9890   -4.5490   28.8530 C.2     1  UNL1       -0.0003
      5 C         -25.1370   -5.2800   29.2050 C.2     1  UNL1       -0.0000
      6 C         -26.2320   -4.6110   29.7840 C.2     1  UNL1       -0.0003
      7 C         -26.1550   -3.2320   30.0650 C.2     1  UNL1       -0.0042
      8 C         -25.3870   -0.6790   31.5710 C.3     1  UNL1        0.0773
      9 C         -25.1890    0.7730   32.0280 C.3     1  UNL1        0.0192
     10 C         -25.3360    0.6840   33.5440 C.3     1  UNL1        0.0202
     11 C         -24.8290   -0.7150   33.9050 C.3     1  UNL1        0.0887
     12 N         -24.7580   -1.4810   32.6460 N.3     1  UNL1       -0.2191
     13 C         -25.6880    1.6140   26.4610 C.2     1  UNL1        0.0417
     14 C         -26.2500    2.9200   26.3950 C.2     1  UNL1        0.0767
     15 C         -25.6420    4.0930   27.1230 C.2     1  UNL1        0.2664
     16 N         -25.6140    5.2520   26.4490 N.am    1  UNL1       -0.1997
     17 C         -25.0260    6.4790   26.9630 C.3     1  UNL1        0.1388
     18 O         -25.1430    3.9660   28.2430 O.2     1  UNL1       -0.2683
     19 C         -27.4380    3.0910   25.6450 C.2     1  UNL1        0.1067
     20 N         -28.0750    2.0890   25.0030 N.2     1  UNL1       -0.2081
     21 C         -27.5430    0.8490   25.0790 C.2     1  UNL1        0.2533
     22 O         -28.1930   -0.2080   24.4770 O.2     1  UNL1       -0.4558
     23 C         -29.4600    0.0050   23.8660 C.3     1  UNL1        0.2426
     24 C         -30.0650   -1.3770   23.5730 C.3     1  UNL1        0.2292
     25 O         -30.7290   -1.8780   24.7210 O.3     1  UNL1       -0.2162
     26 C         -26.3540    0.5760   25.7770 C.2     1  UNL1        0.1932
     27 F         -25.8600   -0.6810   25.7950 F       1  UNL1       -0.1992
     28 O         -23.1060    0.3815   28.7260 O.2     1  UNL1       -0.4329
     29 C         -25.4672    0.0611   29.2456 C.3     1  UNL1        0.0947
     30 F         -21.0851    1.2920   27.4669 F       1  UNL1       -0.1619
     31 O         -28.4638    5.0496   33.4911 O.3     1  UNL1       -0.2177
     32 C         -28.2285    4.3971   31.6066 C.3     1  UNL1        0.1499
     33 C         -27.0180    0.2436   29.3391 C.3     1  UNL1        0.1767
     34 C         -27.3283    3.3829   31.5038 C.3     1  UNL1        0.0349
     35 C         -28.5146    4.0469   32.2592 C.3     1  UNL1        0.2114
     36 O         -27.6105   -0.7026   28.7010 O.3     1  UNL1       -0.2211
     37 C         -28.5875    3.6934   29.3623 C.3     1  UNL1        0.2346
     38 C         -28.0067    1.2483   30.2421 C.3     1  UNL1        0.1245
     39 N         -27.8937    2.6763   30.2184 N.3     1  UNL1       -0.1858
     40 O         -28.8195    4.7876   30.1958 O.3     1  UNL1       -0.3362
     41 CL        -22.9234    2.4763   25.4085 Cl      1  UNL1       -0.0765
     42 C         -22.4511    1.2273   27.7086 C.ar    1  UNL1        0.2982
     43 C         -24.5789    1.2957   27.2470 C.ar    1  UNL1        0.0489
     44 C         -23.3645    1.6357   26.8696 C.ar    1  UNL1        0.1238
     45 C         -24.5357    0.5562   28.4096 C.ar    1  UNL1        0.1288
@<TRIPOS>BOND
     1     1    29    1
     2     2     7    1
     3     2     1    1
     4     3     2    2
     5     4     3    1
     6     4     5    2
     7     5     6    1
     8     6     7    2
     9     8     1    1
    10     8     9    1
    11     8    12    1
    12     9    10    1
    13    10    11    1
    14    12    11    1
    15    13    43    1
    16    14    13    1
    17    14    15    1
    18    15    18    2
    19    16    17    1
    20    16    15    1
    21    19    14    2
    22    20    21    2
    23    20    19    1
    24    21    26    1
    25    22    21    1
    26    23    22    1
    27    24    23    1
    28    24    25    1
    29    26    27    1
    30    26    13    2
    31    29    33    1
    32    30    42    1
    33    32    34    1
    34    32    35    1
    35    33    36    1
    36    33    38    1
    37    35    31    1
    38    37    40    1
    39    37    39    1
    40    39    38    1
    41    40    32    1
    42    41    44    1
    43    42    28   ar
    44    43    45   ar
    45    44    43   ar
    46    44    42   ar
    47    45    28   ar
    48    45    29    1
