@<TRIPOS>MOLECULE
outputs/IAG933/test6/raw/output_344_IAG933_linker_design_.xyz
 41 45 0 0 0
SMALL
GASTEIGER

@<TRIPOS>ATOM
      1 C         -24.8550   -1.0120   30.1430 C.3     1  UNL1        0.1618
      2 C         -24.9730   -2.5050   29.7880 C.2     1  UNL1       -0.0009
      3 C         -23.9060   -3.1730   29.1460 C.2     1  UNL1       -0.0027
      4 C         -23.9890   -4.5490   28.8530 C.2     1  UNL1       -0.0003
      5 C         -25.1370   -5.2800   29.2050 C.2     1  UNL1       -0.0000
      6 C         -26.2320   -4.6110   29.7840 C.2     1  UNL1       -0.0003
      7 C         -26.1550   -3.2320   30.0650 C.2     1  UNL1       -0.0027
      8 C         -25.3870   -0.6790   31.5710 C.3     1  UNL1        0.1041
      9 C         -25.1890    0.7730   32.0280 C.3     1  UNL1        0.0769
     10 C         -25.3360    0.6840   33.5440 C.3     1  UNL1        0.0276
     11 C         -24.8290   -0.7150   33.9050 C.3     1  UNL1        0.0892
     12 N         -24.7580   -1.4810   32.6460 N.3     1  UNL1       -0.2171
     13 C         -25.6880    1.6140   26.4610 C.2     1  UNL1        0.0574
     14 C         -26.2500    2.9200   26.3950 C.2     1  UNL1        0.0779
     15 C         -25.6420    4.0930   27.1230 C.2     1  UNL1        0.2665
     16 N         -25.6140    5.2520   26.4490 N.am    1  UNL1       -0.1997
     17 C         -25.0260    6.4790   26.9630 C.3     1  UNL1        0.1388
     18 O         -25.1430    3.9660   28.2430 O.2     1  UNL1       -0.2683
     19 C         -27.4380    3.0910   25.6450 C.2     1  UNL1        0.1068
     20 N         -28.0750    2.0890   25.0030 N.2     1  UNL1       -0.2081
     21 C         -27.5430    0.8490   25.0790 C.2     1  UNL1        0.2533
     22 O         -28.1930   -0.2080   24.4770 O.2     1  UNL1       -0.4558
     23 C         -29.4600    0.0050   23.8660 C.3     1  UNL1        0.2426
     24 C         -30.0650   -1.3770   23.5730 C.3     1  UNL1        0.2292
     25 O         -30.7290   -1.8780   24.7210 O.3     1  UNL1       -0.2162
     26 C         -26.3540    0.5760   25.7770 C.2     1  UNL1        0.1944
     27 F         -25.8600   -0.6810   25.7950 F       1  UNL1       -0.1992
     28 C         -25.9499    3.2851   31.5327 C.3     1  UNL1        0.0646
     29 F         -21.0218    2.0428   26.8206 F       1  UNL1       -0.1953
     30 C         -23.2981    1.7037   26.6224 C.2     1  UNL1        0.1110
     31 N         -23.5838    0.2868   28.6293 N.pl3   1  UNL1        0.0079
     32 C         -22.3033    0.6554   28.3499 C.2     1  UNL1        0.4334
     33 N         -24.4750    0.3145   28.2099 N.pl3   1  UNL1       -0.0487
     34 C         -24.4681    1.2861   27.1077 C.2     1  UNL1        0.1243
     35 N         -21.4355    0.2893   29.2056 N.pl3   1  UNL1        0.2164
     36 C         -25.1914    4.2184   32.4890 C.3     1  UNL1        0.0082
     37 N         -24.5606    0.0026   29.0089 N.3     1  UNL1        0.0058
     38 C         -25.0686    2.0614   31.3498 C.2     1  UNL1        0.1517
     39 C         -22.1390    1.4552   27.2560 C.2     1  UNL1        0.2397
     40 O         -24.1370    2.2869   30.5728 O.2     1  UNL1       -0.2960
     41 CL        -23.1816    2.7699   25.2315 Cl      1  UNL1       -0.0782
@<TRIPOS>BOND
     1     1     2    1
     2     2     7    1
     3     3     2    2
     4     4     3    1
     5     4     5    2
     6     5     6    1
     7     6     7    2
     8     8     1    1
     9     8     9    1
    10     8    12    1
    11     9    38    1
    12     9    10    1
    13    10    11    1
    14    12    11    1
    15    13    34    1
    16    14    13    1
    17    14    15    1
    18    15    18    2
    19    16    17    1
    20    16    15    1
    21    19    14    2
    22    20    21    2
    23    20    19    1
    24    21    26    1
    25    22    21    1
    26    23    22    1
    27    24    23    1
    28    24    25    1
    29    26    27    1
    30    26    13    2
    31    28    36    1
    32    29    39    1
    33    30    34    2
    34    30    39    1
    35    31    37    1
    36    32    31    1
    37    32    35    1
    38    33    31    1
    39    33    37    1
    40    34    33    1
    41    37     1    1
    42    38    28    1
    43    39    32    2
    44    40    38    2
    45    41    30    1
