@<TRIPOS>MOLECULE
No_3440-gen_results/8p0m/2024-11-27-11-27-31/
 26 28 0 0 0
SMALL
GASTEIGER

@<TRIPOS>ATOM
      1 C         -28.0162   -0.8135   28.8779 C.ar    1  UNL1        0.0115
      2 C         -28.4690   -0.7850   29.8287 C.ar    1  UNL1        0.0054
      3 C         -28.1960    0.3478   28.0550 C.ar    1  UNL1        0.0576
      4 C         -29.0191    1.3501   28.3782 C.ar    1  UNL1        0.0107
      5 C         -29.4107    0.1803   30.3782 C.ar    1  UNL1        0.0554
      6 C         -29.2236    2.4924   27.5425 C.ar    1  UNL1        0.0008
      7 C         -29.5873    1.2242   29.6185 C.ar    1  UNL1        0.0054
      8 C         -29.6215    2.7611   26.5109 C.ar    1  UNL1        0.0000
      9 C         -29.7046    4.0306   25.7684 C.ar    1  UNL1        0.0000
     10 C         -29.1859    5.1635   26.4111 C.ar    1  UNL1        0.0000
     11 C         -28.6217    5.0147   27.6302 C.ar    1  UNL1        0.0000
     12 C         -28.5664    3.7934   28.2435 C.ar    1  UNL1        0.0000
     13 CL        -27.3569    0.3686   26.5226 Cl      1  UNL1       -0.0822
     14 C         -30.0559    0.0025   31.7545 C.2     1  UNL1        0.2690
     15 N         -30.0893    0.9201   32.5426 N.am    1  UNL1       -0.1745
     16 C         -30.6880    0.9343   33.6469 C.2     1  UNL1        0.0847
     17 O         -30.6006   -1.0869   31.9414 O.2     1  UNL1       -0.2680
     18 C         -30.0197    0.6083   34.7957 C.2     1  UNL1       -0.0035
     19 C         -28.6745    0.7947   34.8963 C.3     1  UNL1        0.0551
     20 C         -28.0203    1.6586   34.0329 C.ar    1  UNL1       -0.0010
     21 C         -26.5247    1.7842   34.2387 C.ar    1  UNL1       -0.0026
     22 C         -25.8792    2.6335   33.2761 C.ar    1  UNL1       -0.0002
     23 C         -26.2104    2.8245   32.3343 C.ar    1  UNL1        0.0014
     24 C         -27.6678    2.7483   31.9477 C.ar    1  UNL1        0.0177
     25 C         -28.4423    2.0859   32.8225 C.ar    1  UNL1        0.0854
     26 N         -29.3239    3.2664   33.1684 N.pl3   1  UNL1       -0.1284
@<TRIPOS>BOND
     1     4     6    1
     2     3    13    1
     3     5    14    1
     4    14    15   am
     5    15    16    1
     6    14    17    2
     7    16    18    2
     8    18    19    1
     9    25    26    1
    10    19    20    1
    11     6     8   ar
    12     8     9   ar
    13     9    10   ar
    14    10    11   ar
    15    11    12   ar
    16    12     6   ar
    17    20    21   ar
    18    21    22   ar
    19    22    23   ar
    20    23    24   ar
    21    24    25   ar
    22    25    20   ar
    23     1     2   ar
    24     2     5   ar
    25     5     7   ar
    26     7     4   ar
    27     4     3   ar
    28     3     1   ar
