@<TRIPOS>MOLECULE
No_3441-gen_results/8p0m/2024-11-27-11-27-31/
 6 6 0 0 0
SMALL
GASTEIGER

@<TRIPOS>ATOM
      1 C         -28.0162   -0.8135   28.8779 C.ar    1  UNL1        0.0207
      2 C         -27.0636   -0.1190   28.6079 C.ar    1  UNL1        0.0989
      3 N         -26.9849    0.5972   27.5218 N.ar    1  UNL1       -0.2423
      4 C         -29.2908   -0.4367   28.3661 C.ar    1  UNL1        0.0032
      5 C         -29.3203    0.4079   27.3056 C.ar    1  UNL1        0.0207
      6 C         -28.1194    0.9858   26.9061 C.ar    1  UNL1        0.0989
@<TRIPOS>BOND
     1     1     2   ar
     2     2     3   ar
     3     3     6   ar
     4     6     5   ar
     5     5     4   ar
     6     4     1   ar
