@<TRIPOS>MOLECULE
No_3442-gen_results/8p0m/2024-11-27-11-27-31/
 21 22 0 0 0
SMALL
GASTEIGER

@<TRIPOS>ATOM
      1 C         -28.0162   -0.8135   28.8779 C.ar    1  UNL1       -0.0060
      2 C         -28.4690   -0.7850   29.8287 C.ar    1  UNL1       -0.0008
      3 C         -28.1960    0.3478   28.0550 C.ar    1  UNL1       -0.0080
      4 C         -29.0191    1.3501   28.3782 C.ar    1  UNL1       -0.0034
      5 C         -29.6249    1.2683   29.6012 C.ar    1  UNL1       -0.0006
      6 C         -28.2861   -2.0249   30.8303 C.3     1  UNL1        0.1441
      7 C         -29.3773    0.1888   30.3806 C.ar    1  UNL1       -0.0026
      8 N         -28.6488   -3.1000   30.6206 N.am    1  UNL1       -0.1712
      9 C         -29.6014   -3.7447   31.2333 C.2     1  UNL1        0.4099
     10 F         -29.9615   -3.4686   32.2342 F       1  UNL1       -0.1424
     11 O         -29.3962   -5.1488   31.1068 O.2     1  UNL1       -0.2344
     12 C         -27.4500    0.3444   26.6943 C.3     1  UNL1        0.1478
     13 C         -28.0128    0.4532   25.5055 C.2     1  UNL1        0.3724
     14 C         -25.9893    0.2151   26.7203 C.ar    1  UNL1       -0.0077
     15 C         -25.2476   -0.0378   27.8898 C.ar    1  UNL1       -0.0034
     16 C         -23.9724    0.3429   28.0766 C.ar    1  UNL1       -0.0003
     17 C         -23.3253    1.1353   27.0641 C.ar    1  UNL1       -0.0000
     18 C         -24.0754    1.4695   25.8985 C.ar    1  UNL1       -0.0003
     19 C         -25.3712    1.1191   25.7552 C.ar    1  UNL1       -0.0034
     20 O         -28.8072    1.0337   25.2459 O.co2   1  UNL1       -0.2449
     21 O         -27.5919   -0.4363   24.6104 O.co2   1  UNL1       -0.2449
@<TRIPOS>BOND
     1     2     6    1
     2     6     8    1
     3     8     9   am
     4     9    10    1
     5     9    11    2
     6     3    12    1
     7    12    13    1
     8    12    14    1
     9    13    20   ar
    10    13    21   ar
    11     1     2   ar
    12     2     7   ar
    13     7     5   ar
    14     5     4   ar
    15     4     3   ar
    16     3     1   ar
    17    14    15   ar
    18    15    16   ar
    19    16    17   ar
    20    17    18   ar
    21    18    19   ar
    22    19    14   ar
