@<TRIPOS>MOLECULE
No_3443-gen_results/8p0m/2024-11-27-11-27-31/
 12 12 0 0 0
SMALL
GASTEIGER

@<TRIPOS>ATOM
      1 O         -28.1229   -1.3353   28.4874 O.2     1  UNL1       -0.2733
      2 C         -27.4806   -0.4044   28.7094 C.2     1  UNL1        0.2432
      3 C         -27.1904    0.2461   29.5268 C.3     1  UNL1        0.0788
      4 N         -26.6021   -0.1576   27.5515 N.am    1  UNL1       -0.1728
      5 C         -25.6421    0.9031   27.5822 C.3     1  UNL1        0.2555
      6 C         -25.5003    1.6142   28.7368 C.3     1  UNL1        0.0588
      7 C         -26.2553    1.3158   29.8133 C.3     1  UNL1        0.0138
      8 F         -24.9218    1.1203   26.5235 F       1  UNL1       -0.2132
      9 C         -28.0240   -0.0598   30.9337 C.3     1  UNL1        0.0138
     10 C         -27.5282   -0.2633   31.9418 C.3     1  UNL1        0.0265
     11 C         -26.1699   -0.1337   32.1668 C.2     1  UNL1       -0.0261
     12 C         -25.2058    0.7465   31.8628 C.2     1  UNL1       -0.0049
@<TRIPOS>BOND
     1     1     2    2
     2     2     3    1
     3     2     4   am
     4     4     5    1
     5     5     6    1
     6     5     8    1
     7     3     9    1
     8     9    10    1
     9    10    11    1
    10    11    12    2
    11     3     7    1
    12     7     6    1
