@<TRIPOS>MOLECULE
No_3444-gen_results/8p0m/2024-11-27-11-27-31/
 14 14 0 0 0
SMALL
GASTEIGER

@<TRIPOS>ATOM
      1 C         -28.0162   -0.8135   28.8779 C.ar    1  UNL1        0.0188
      2 C         -28.4690   -0.7850   29.8287 C.ar    1  UNL1        0.0809
      3 C         -26.5042   -0.7777   28.8766 C.ar    1  UNL1        0.0686
      4 C         -25.9150   -0.6580   29.9230 C.ar    1  UNL1        0.0746
      5 C         -27.9691   -0.7243   31.2047 C.ar    1  UNL1        0.0141
      6 C         -26.5847   -0.6393   31.2062 C.ar    1  UNL1        0.0913
      7 CL        -24.1810   -0.5661   30.0378 Cl      1  UNL1       -0.0811
      8 C         -30.1011   -0.8898   29.8970 C.2     1  UNL1        0.3878
      9 O         -30.5804   -0.6471   29.0228 O.co2   1  UNL1       -0.2406
     10 O         -30.7038   -1.2924   31.0076 O.co2   1  UNL1       -0.2406
     11 CL        -25.5946   -0.7528   27.3651 Cl      1  UNL1       -0.0814
     12 C         -25.8146   -0.4921   32.5083 C.2     1  UNL1        0.3886
     13 O         -26.1925   -0.1112   33.3936 O.co2   1  UNL1       -0.2405
     14 O         -24.5828   -1.1114   32.5194 O.co2   1  UNL1       -0.2405
@<TRIPOS>BOND
     1     4     7    1
     2     2     8    1
     3     8     9   ar
     4     8    10   ar
     5     3    11    1
     6     6    12    1
     7    12    13   ar
     8    12    14   ar
     9     1     2   ar
    10     2     5   ar
    11     5     6   ar
    12     6     4   ar
    13     4     3   ar
    14     3     1   ar
