@<TRIPOS>MOLECULE
outputs/IAG933/test6/raw/output_3446_IAG933_linker_design_.xyz
 44 48 0 0 0
SMALL
GASTEIGER

@<TRIPOS>ATOM
      1 C         -24.8550   -1.0120   30.1430 C.3     1  UNL1        0.0438
      2 C         -24.9730   -2.5050   29.7880 C.2     1  UNL1       -0.0208
      3 C         -23.9060   -3.1730   29.1460 C.2     1  UNL1       -0.0042
      4 C         -23.9890   -4.5490   28.8530 C.2     1  UNL1       -0.0003
      5 C         -25.1370   -5.2800   29.2050 C.2     1  UNL1       -0.0000
      6 C         -26.2320   -4.6110   29.7840 C.2     1  UNL1       -0.0003
      7 C         -26.1550   -3.2320   30.0650 C.2     1  UNL1       -0.0042
      8 C         -25.3870   -0.6790   31.5710 C.3     1  UNL1        0.0785
      9 C         -25.1890    0.7730   32.0280 C.3     1  UNL1        0.0339
     10 C         -25.3360    0.6840   33.5440 C.3     1  UNL1        0.0216
     11 C         -24.8290   -0.7150   33.9050 C.3     1  UNL1        0.0887
     12 N         -24.7580   -1.4810   32.6460 N.3     1  UNL1       -0.2191
     13 C         -25.6880    1.6140   26.4610 C.2     1  UNL1        0.0223
     14 C         -26.2500    2.9200   26.3950 C.2     1  UNL1        0.0728
     15 C         -25.6420    4.0930   27.1230 C.2     1  UNL1        0.2661
     16 N         -25.6140    5.2520   26.4490 N.am    1  UNL1       -0.1997
     17 C         -25.0260    6.4790   26.9630 C.3     1  UNL1        0.1388
     18 O         -25.1430    3.9660   28.2430 O.2     1  UNL1       -0.2683
     19 C         -27.4380    3.0910   25.6450 C.2     1  UNL1        0.1064
     20 N         -28.0750    2.0890   25.0030 N.2     1  UNL1       -0.2081
     21 C         -27.5430    0.8490   25.0790 C.2     1  UNL1        0.2530
     22 O         -28.1930   -0.2080   24.4770 O.2     1  UNL1       -0.4558
     23 C         -29.4600    0.0050   23.8660 C.3     1  UNL1        0.2426
     24 C         -30.0650   -1.3770   23.5730 C.3     1  UNL1        0.2292
     25 O         -30.7290   -1.8780   24.7210 O.3     1  UNL1       -0.2162
     26 C         -26.3540    0.5760   25.7770 C.2     1  UNL1        0.1893
     27 F         -25.8600   -0.6810   25.7950 F       1  UNL1       -0.1996
     28 C         -24.4489    1.3623   27.0508 C.3     1  UNL1        0.1049
     29 C         -26.9691    3.3937   32.0964 C.3     1  UNL1        0.1435
     30 C         -25.5537    3.3154   31.5126 C.3     1  UNL1        0.0458
     31 N         -24.4316    1.6578   29.7242 N.3     1  UNL1       -0.2201
     32 C         -27.0225    5.6768   30.8555 C.3     1  UNL1        0.0322
     33 F         -23.2198    2.8884   25.6350 F       1  UNL1       -0.2010
     34 C         -23.9711    1.6695   28.4196 C.3     1  UNL1        0.0850
     35 F         -20.9466    1.9400   26.5569 F       1  UNL1       -0.2314
     36 C         -27.8579    4.5883   30.0933 C.3     1  UNL1        0.1422
     37 C         -22.0861    0.1128   29.3920 C.3     1  UNL1        0.0045
     38 C         -22.4342    1.3139   28.4558 C.3     1  UNL1        0.0547
     39 O         -27.8683    3.4429   30.9470 O.3     1  UNL1       -0.3537
     40 F         -23.3161    0.9253   24.9506 F       1  UNL1       -0.2010
     41 C         -25.0418    1.9221   31.0408 C.3     1  UNL1        0.0765
     42 C         -25.5459    5.1047   31.2481 C.3     1  UNL1        0.0065
     43 C         -23.2597    1.6325   26.1216 C.3     1  UNL1        0.2982
     44 C         -22.0487    1.1666   26.9649 C.3     1  UNL1        0.2231
@<TRIPOS>BOND
     1     2     7    1
     2     2     1    1
     3     3     2    2
     4     4     3    1
     5     4     5    2
     6     5     6    1
     7     6     7    2
     8     8     1    1
     9     8     9    1
    10     8    12    1
    11     9    41    1
    12     9    10    1
    13    10    11    1
    14    12    11    1
    15    14    13    1
    16    14    15    1
    17    15    18    2
    18    16    17    1
    19    16    15    1
    20    19    14    2
    21    20    21    2
    22    20    19    1
    23    21    26    1
    24    22    21    1
    25    23    22    1
    26    24    23    1
    27    24    25    1
    28    26    27    1
    29    26    13    2
    30    28    13    1
    31    28    34    1
    32    30    41    1
    33    30    29    1
    34    32    42    1
    35    33    43    1
    36    34    38    1
    37    34    31    1
    38    36    32    1
    39    36    39    1
    40    38    37    1
    41    39    29    1
    42    40    43    1
    43    41    31    1
    44    42    30    1
    45    43    44    1
    46    43    28    1
    47    44    35    1
    48    44    38    1
