@<TRIPOS>MOLECULE
outputs/IAG933/test6/raw/output_3447_IAG933_linker_design_.xyz
 44 48 0 0 0
SMALL
GASTEIGER

@<TRIPOS>ATOM
      1 C         -24.8550   -1.0120   30.1430 C.3     1  UNL1        0.0437
      2 C         -24.9730   -2.5050   29.7880 C.2     1  UNL1       -0.0208
      3 C         -23.9060   -3.1730   29.1460 C.2     1  UNL1       -0.0042
      4 C         -23.9890   -4.5490   28.8530 C.2     1  UNL1       -0.0003
      5 C         -25.1370   -5.2800   29.2050 C.2     1  UNL1       -0.0000
      6 C         -26.2320   -4.6110   29.7840 C.2     1  UNL1       -0.0003
      7 C         -26.1550   -3.2320   30.0650 C.2     1  UNL1       -0.0042
      8 C         -25.3870   -0.6790   31.5710 C.3     1  UNL1        0.0776
      9 C         -25.1890    0.7730   32.0280 C.3     1  UNL1        0.0255
     10 C         -25.3360    0.6840   33.5440 C.3     1  UNL1        0.0206
     11 C         -24.8290   -0.7150   33.9050 C.3     1  UNL1        0.0887
     12 N         -24.7580   -1.4810   32.6460 N.3     1  UNL1       -0.2191
     13 C         -25.6880    1.6140   26.4610 C.3     1  UNL1        0.1017
     14 C         -26.2500    2.9200   26.3950 C.2     1  UNL1        0.0592
     15 C         -25.6420    4.0930   27.1230 C.2     1  UNL1        0.2628
     16 N         -25.6140    5.2520   26.4490 N.am    1  UNL1       -0.2000
     17 C         -25.0260    6.4790   26.9630 C.3     1  UNL1        0.1388
     18 O         -25.1430    3.9660   28.2430 O.2     1  UNL1       -0.2686
     19 C         -27.4380    3.0910   25.6450 C.2     1  UNL1        0.1025
     20 N         -28.0750    2.0890   25.0030 N.2     1  UNL1       -0.2118
     21 C         -27.5430    0.8490   25.0790 C.2     1  UNL1        0.2344
     22 O         -28.1930   -0.2080   24.4770 O.2     1  UNL1       -0.4585
     23 C         -29.4600    0.0050   23.8660 C.3     1  UNL1        0.2423
     24 C         -30.0650   -1.3770   23.5730 C.3     1  UNL1        0.2292
     25 O         -30.7290   -1.8780   24.7210 O.3     1  UNL1       -0.2162
     26 C         -26.3540    0.5760   25.7770 C.3     1  UNL1        0.2443
     27 F         -25.8600   -0.6810   25.7950 F       1  UNL1       -0.2265
     28 C         -24.2444    1.5593   26.8089 C.2     1  UNL1        0.0948
     29 C         -24.0187    1.3125   28.1983 C.2     1  UNL1        0.1443
     30 C         -21.6071    1.5815   27.7181 C.2     1  UNL1        0.1862
     31 N         -28.3000    2.7318   32.2563 N.pl3   1  UNL1       -0.1284
     32 O         -21.8359    1.8205   26.3906 O.3     1  UNL1       -0.4179
     33 C         -29.1312   -0.7013   30.3197 C.2     1  UNL1       -0.0002
     34 C         -23.0995    1.7925   25.9019 C.2     1  UNL1        0.3451
     35 C         -28.6014    1.5511   31.7415 C.2     1  UNL1        0.0852
     36 O         -25.1319    1.2001   29.0239 O.2     1  UNL1       -0.4751
     37 C         -27.6012    1.0683   30.9802 C.2     1  UNL1       -0.0021
     38 C         -26.2030    1.8445   31.2657 C.3     1  UNL1        0.0687
     39 C         -30.0641   -0.2131   31.2370 C.2     1  UNL1        0.0014
     40 C         -29.8317    0.9689   31.9142 C.2     1  UNL1        0.0177
     41 O         -23.2513    2.0070   24.6583 O.2     1  UNL1       -0.2447
     42 C         -27.9218   -0.0418   30.1225 C.2     1  UNL1       -0.0028
     43 C         -22.6536    1.3284   28.6155 C.2     1  UNL1        0.0775
     44 C         -25.4654    2.2558   29.9898 C.3     1  UNL1        0.2097
@<TRIPOS>BOND
     1     2     7    1
     2     2     1    1
     3     3     2    2
     4     4     3    1
     5     4     5    2
     6     5     6    1
     7     6     7    2
     8     8     1    1
     9     8     9    1
    10     8    12    1
    11     9    38    1
    12     9    10    1
    13    10    11    1
    14    12    11    1
    15    13    28    1
    16    14    13    1
    17    14    15    1
    18    15    18    2
    19    16    17    1
    20    16    15    1
    21    19    14    2
    22    20    21    2
    23    20    19    1
    24    21    26    1
    25    22    21    1
    26    23    22    1
    27    24    23    1
    28    24    25    1
    29    26    27    1
    30    26    13    1
    31    28    29    2
    32    29    43    1
    33    29    36    1
    34    30    43    2
    35    32    30    1
    36    33    39    1
    37    34    32    1
    38    34    28    1
    39    35    40    1
    40    35    31    1
    41    36    44    1
    42    37    38    1
    43    37    35    2
    44    38    44    1
    45    39    40    2
    46    41    34    2
    47    42    33    2
    48    42    37    1
