@<TRIPOS>MOLECULE
outputs/IAG933/test6/raw/output_345_IAG933_linker_design_.xyz
 45 49 0 0 0
SMALL
GASTEIGER

@<TRIPOS>ATOM
      1 C         -24.8550   -1.0120   30.1430 C.3     1  UNL1        0.0483
      2 C         -24.9730   -2.5050   29.7880 C.2     1  UNL1       -0.0206
      3 C         -23.9060   -3.1730   29.1460 C.2     1  UNL1       -0.0042
      4 C         -23.9890   -4.5490   28.8530 C.2     1  UNL1       -0.0003
      5 C         -25.1370   -5.2800   29.2050 C.2     1  UNL1       -0.0000
      6 C         -26.2320   -4.6110   29.7840 C.2     1  UNL1       -0.0003
      7 C         -26.1550   -3.2320   30.0650 C.2     1  UNL1       -0.0042
      8 C         -25.3870   -0.6790   31.5710 C.3     1  UNL1        0.0773
      9 C         -25.1890    0.7730   32.0280 C.3     1  UNL1        0.0192
     10 C         -25.3360    0.6840   33.5440 C.3     1  UNL1        0.0202
     11 C         -24.8290   -0.7150   33.9050 C.3     1  UNL1        0.0887
     12 N         -24.7580   -1.4810   32.6460 N.3     1  UNL1       -0.2191
     13 C         -25.6880    1.6140   26.4610 C.3     1  UNL1        0.1424
     14 C         -26.2500    2.9200   26.3950 C.2     1  UNL1        0.0709
     15 C         -25.6420    4.0930   27.1230 C.2     1  UNL1        0.2638
     16 N         -25.6140    5.2520   26.4490 N.am    1  UNL1       -0.2000
     17 C         -25.0260    6.4790   26.9630 C.3     1  UNL1        0.1388
     18 O         -25.1430    3.9660   28.2430 O.2     1  UNL1       -0.2686
     19 C         -27.4380    3.0910   25.6450 C.2     1  UNL1        0.1035
     20 N         -28.0750    2.0890   25.0030 N.2     1  UNL1       -0.2118
     21 C         -27.5430    0.8490   25.0790 C.2     1  UNL1        0.2356
     22 O         -28.1930   -0.2080   24.4770 O.2     1  UNL1       -0.4585
     23 C         -29.4600    0.0050   23.8660 C.3     1  UNL1        0.2423
     24 C         -30.0650   -1.3770   23.5730 C.3     1  UNL1        0.2292
     25 O         -30.7290   -1.8780   24.7210 O.3     1  UNL1       -0.2162
     26 C         -26.3540    0.5760   25.7770 C.3     1  UNL1        0.2559
     27 F         -25.8600   -0.6810   25.7950 F       1  UNL1       -0.2253
     28 O         -27.2904   -1.0805   28.6058 O.2     1  UNL1       -0.2748
     29 C         -22.8236    1.9210   26.0315 C.3     1  UNL1        0.0000
     30 C         -24.5295    0.5956   28.3451 C.3     1  UNL1        0.0821
     31 C         -29.3891    3.8201   29.7214 C.3     1  UNL1        0.0033
     32 N         -24.8266    1.2522   27.3364 N.3     1  UNL1       -0.2124
     33 C         -29.0723    0.0740   27.8748 C.3     1  UNL1        0.0933
     34 C         -29.5979    2.8912   28.5018 C.3     1  UNL1        0.0183
     35 C         -25.4338   -0.1293   29.1161 C.3     1  UNL1        0.0980
     36 C         -23.3088    1.3091   28.8587 C.3     1  UNL1        0.0179
     37 C         -21.1964    1.5459   27.7719 C.3     1  UNL1        0.0000
     38 N         -28.0963    0.8432   28.6611 N.am    1  UNL1       -0.2811
     39 C         -27.9317    3.3113   29.7786 C.3     1  UNL1        0.0199
     40 C         -28.1630    2.3278   28.5833 C.3     1  UNL1        0.0753
     41 C         -30.0445    0.9517   27.0484 C.3     1  UNL1        0.0199
     42 C         -22.6387    1.8607   27.5908 C.3     1  UNL1        0.0014
     43 C         -31.2317    1.1181   26.0542 C.3     1  UNL1        0.0018
     44 C         -30.5838    1.8572   28.2083 C.3     1  UNL1        0.0033
     45 C         -26.9429   -0.0900   28.8563 C.2     1  UNL1        0.2268
@<TRIPOS>BOND
     1     1    35    1
     2     2     7    1
     3     2     1    1
     4     3     2    2
     5     4     3    1
     6     4     5    2
     7     5     6    1
     8     6     7    2
     9     8     1    1
    10     8     9    1
    11     8    12    1
    12     9    10    1
    13    10    11    1
    14    12    11    1
    15    13    32    1
    16    14    13    1
    17    14    15    1
    18    15    18    2
    19    16    17    1
    20    16    15    1
    21    19    14    2
    22    20    21    2
    23    20    19    1
    24    21    26    1
    25    22    21    1
    26    23    22    1
    27    24    23    1
    28    24    25    1
    29    26    27    1
    30    26    13    1
    31    28    45    2
    32    29    42    1
    33    30    36    1
    34    30    35    1
    35    31    39    1
    36    32    30    1
    37    33    38    1
    38    34    44    1
    39    34    40    1
    40    34    31    1
    41    35    45    1
    42    38    45   am
    43    40    38    1
    44    40    39    1
    45    41    43    1
    46    41    33    1
    47    41    44    1
    48    42    37    1
    49    42    36    1
