@<TRIPOS>MOLECULE
outputs/IAG933/test6/raw/output_3450_IAG933_linker_design_.xyz
 43 47 0 0 0
SMALL
GASTEIGER

@<TRIPOS>ATOM
      1 C         -24.8550   -1.0120   30.1430 C.3     1  UNL1        0.0442
      2 C         -24.9730   -2.5050   29.7880 C.2     1  UNL1       -0.0208
      3 C         -23.9060   -3.1730   29.1460 C.2     1  UNL1       -0.0042
      4 C         -23.9890   -4.5490   28.8530 C.2     1  UNL1       -0.0003
      5 C         -25.1370   -5.2800   29.2050 C.2     1  UNL1       -0.0000
      6 C         -26.2320   -4.6110   29.7840 C.2     1  UNL1       -0.0003
      7 C         -26.1550   -3.2320   30.0650 C.2     1  UNL1       -0.0042
      8 C         -25.3870   -0.6790   31.5710 C.3     1  UNL1        0.0848
      9 C         -25.1890    0.7730   32.0280 C.3     1  UNL1        0.0827
     10 C         -25.3360    0.6840   33.5440 C.3     1  UNL1        0.0284
     11 C         -24.8290   -0.7150   33.9050 C.3     1  UNL1        0.0892
     12 N         -24.7580   -1.4810   32.6460 N.3     1  UNL1       -0.2186
     13 C         -25.6880    1.6140   26.4610 C.3     1  UNL1        0.0771
     14 C         -26.2500    2.9200   26.3950 C.2     1  UNL1        0.0552
     15 C         -25.6420    4.0930   27.1230 C.2     1  UNL1        0.2625
     16 N         -25.6140    5.2520   26.4490 N.am    1  UNL1       -0.2000
     17 C         -25.0260    6.4790   26.9630 C.3     1  UNL1        0.1388
     18 O         -25.1430    3.9660   28.2430 O.2     1  UNL1       -0.2687
     19 C         -27.4380    3.0910   25.6450 C.2     1  UNL1        0.1022
     20 N         -28.0750    2.0890   25.0030 N.2     1  UNL1       -0.2119
     21 C         -27.5430    0.8490   25.0790 C.2     1  UNL1        0.2341
     22 O         -28.1930   -0.2080   24.4770 O.2     1  UNL1       -0.4585
     23 C         -29.4600    0.0050   23.8660 C.3     1  UNL1        0.2423
     24 C         -30.0650   -1.3770   23.5730 C.3     1  UNL1        0.2292
     25 O         -30.7290   -1.8780   24.7210 O.3     1  UNL1       -0.2162
     26 C         -26.3540    0.5760   25.7770 C.3     1  UNL1        0.2404
     27 F         -25.8600   -0.6810   25.7950 F       1  UNL1       -0.2269
     28 C         -26.6628    5.0156   34.2292 C.2     1  UNL1       -0.0217
     29 C         -23.3630    1.9890   25.6672 C.3     1  UNL1        0.1506
     30 C         -25.1304    3.6604   32.1486 C.2     1  UNL1        0.1457
     31 C         -23.9719    1.6003   29.2057 C.1     1  UNL1       -0.0728
     32 C         -27.2746    4.1112   33.3302 C.2     1  UNL1       -0.0011
     33 C         -25.3214    5.3661   33.9625 C.2     1  UNL1       -0.0011
     34 C         -22.1488    1.7938   27.3154 C.3     1  UNL1        0.3052
     35 O         -24.3374    2.8998   31.2694 O.2     1  UNL1       -0.4503
     36 C         -26.5192    3.4340   32.3439 C.2     1  UNL1        0.0372
     37 C         -24.6516    1.5286   30.7216 C.2     1  UNL1        0.1575
     38 C         -24.5717    4.6813   32.9738 C.2     1  UNL1        0.0372
     39 C         -24.1595    1.6978   26.6389 C.3     1  UNL1        0.0677
     40 O         -22.0560    2.3127   26.0679 O.3     1  UNL1       -0.3229
     41 C         -27.3298    5.6036   35.3423 C.3     1  UNL1        0.0310
     42 F         -20.9736    1.3341   27.8029 F       1  UNL1       -0.1985
     43 C         -23.3987    1.6863   27.7234 C.2     1  UNL1        0.0559
@<TRIPOS>BOND
     1     2     7    1
     2     2     1    1
     3     3     2    2
     4     4     3    1
     5     4     5    2
     6     5     6    1
     7     6     7    2
     8     8     1    1
     9     8     9    1
    10     8    12    1
    11     9    37    1
    12     9    10    1
    13    10    11    1
    14    12    11    1
    15    13    14    1
    16    13    39    1
    17    14    15    1
    18    15    18    2
    19    16    17    1
    20    16    15    1
    21    19    14    2
    22    20    21    2
    23    20    19    1
    24    21    26    1
    25    22    21    1
    26    23    22    1
    27    24    23    1
    28    24    25    1
    29    26    27    1
    30    26    13    1
    31    28    41    1
    32    29    40    1
    33    30    36    2
    34    30    38    1
    35    31    37    2
    36    32    28    2
    37    33    28    1
    38    34    43    1
    39    34    42    1
    40    35    30    1
    41    36    32    1
    42    37    35    1
    43    38    33    2
    44    39    29    1
    45    39    43    1
    46    40    34    1
    47    43    31    2
