@<TRIPOS>MOLECULE
outputs/IAG933/test6/raw/output_3453_IAG933_linker_design_.xyz
 43 46 0 0 0
SMALL
GASTEIGER

@<TRIPOS>ATOM
      1 C1        -24.8550   -1.0120   30.1430 C.3     1  <1>         0.0608
      2 C2        -24.9730   -2.5050   29.7880 C.2     1  <1>        -0.0194
      3 C3        -23.9060   -3.1730   29.1460 C.2     1  <1>        -0.0042
      4 C4        -23.9890   -4.5490   28.8530 C.2     1  <1>        -0.0003
      5 C5        -25.1370   -5.2800   29.2050 C.2     1  <1>        -0.0000
      6 C6        -26.2320   -4.6110   29.7840 C.2     1  <1>        -0.0003
      7 C7        -26.1550   -3.2320   30.0650 C.2     1  <1>        -0.0042
      8 C8        -25.3870   -0.6790   31.5710 C.3     1  <1>         0.0786
      9 C9        -25.1890    0.7730   32.0280 C.3     1  <1>         0.0192
     10 C10       -25.3360    0.6840   33.5440 C.3     1  <1>         0.0202
     11 C11       -24.8290   -0.7150   33.9050 C.3     1  <1>         0.0887
     12 N1        -24.7580   -1.4810   32.6460 N.3     1  <1>        -0.2191
     13 C12       -25.6880    1.6140   26.4610 C.2     1  <1>         0.0913
     14 C13       -26.2500    2.9200   26.3950 C.2     1  <1>         0.0902
     15 C14       -25.6420    4.0930   27.1230 C.2     1  <1>         0.2676
     16 N2        -25.6140    5.2520   26.4490 N.am    1  <1>        -0.1997
     17 C15       -25.0260    6.4790   26.9630 C.3     1  <1>         0.1388
     18 O1        -25.1430    3.9660   28.2430 O.2     1  <1>        -0.2683
     19 C16       -27.4380    3.0910   25.6450 C.2     1  <1>         0.1080
     20 N3        -28.0750    2.0890   25.0030 N.2     1  <1>        -0.2080
     21 C17       -27.5430    0.8490   25.0790 C.2     1  <1>         0.2546
     22 O2        -28.1930   -0.2080   24.4770 O.2     1  <1>        -0.4558
     23 C18       -29.4600    0.0050   23.8660 C.3     1  <1>         0.2426
     24 C19       -30.0650   -1.3770   23.5730 C.3     1  <1>         0.2292
     25 O3        -30.7290   -1.8780   24.7210 O.3     1  <1>        -0.2162
     26 C20       -26.3540    0.5760   25.7770 C.2     1  <1>         0.2066
     27 F1        -25.8600   -0.6810   25.7950 F       1  <1>        -0.1979
     28 N4        -24.5048    1.3153   27.1409 N.pl3   1  <1>        -0.2641
     29 F2        -21.0030    1.8110   27.3430 F       1  <1>        -0.1951
     30 C21       -28.3740    0.9726   30.9126 C.3     1  <1>         0.1085
     31 C22       -28.4385    2.5162   30.9933 C.3     1  <1>         0.1338
     32 O4        -30.8303    2.0597   31.3437 O.3     1  <1>        -0.2188
     33 N5        -26.7748    0.6763   29.1592 N.am    1  <1>        -0.2041
     34 C23       -22.2472    1.4412   27.4847 C.2     1  <1>         0.1917
     35 N6        -27.3708    3.3784   31.6983 N.3     1  <1>        -0.1296
     36 C24       -24.4577    0.7436   28.3403 C.3     1  <1>         0.1524
     37 C25       -25.5928   -0.1877   28.9637 C.3     1  <1>         0.1297
     38 C26       -27.8515    0.2419   29.7123 C.2     1  <1>         0.2430
     39 C27       -23.2387    1.7307   26.6451 C.2     1  <1>         0.1451
     40 Cl1       -22.8372    2.4260   25.1237 Cl      1  <1>        -0.0628
     41 S1        -22.7740    0.4444   28.8363 S.3     1  <1>        -0.0611
     42 O5        -28.3053   -0.7654   29.2084 O.2     1  <1>        -0.2733
     43 C28       -29.7114    2.8088   31.8333 C.3     1  <1>         0.2014
@<TRIPOS>BOND
     1     1    37    1
     2     2     7    1
     3     2     1    1
     4     3     2    2
     5     4     3    1
     6     4     5    2
     7     5     6    1
     8     6     7    2
     9     8     1    1
    10     8     9    1
    11     8    12    1
    12     9    10    1
    13    10    11    1
    14    12    11    1
    15    13    28    1
    16    14    13    1
    17    14    15    1
    18    15    18    2
    19    16    17    1
    20    16    15    1
    21    19    14    2
    22    20    21    2
    23    20    19    1
    24    21    26    1
    25    22    21    1
    26    23    22    1
    27    24    23    1
    28    24    25    1
    29    26    27    1
    30    26    13    2
    31    28    36    1
    32    29    34    1
    33    30    31    1
    34    31    35    1
    35    31    43    1
    36    32    43    1
    37    33    38    1
    38    34    41    1
    39    36    41    1
    40    36    37    1
    41    37    33    1
    42    38    30    1
    43    39    28    1
    44    39    34    2
    45    40    39    1
    46    42    38    2
