@<TRIPOS>MOLECULE
No_3457-gen_results/8p0m/2024-11-27-11-27-31/
 34 40 0 0 0
SMALL
GASTEIGER

@<TRIPOS>ATOM
      1 C         -28.0162   -0.8135   28.8779 C.ar    1  UNL1        0.0063
      2 C         -27.0636   -0.1189   28.6079 C.ar    1  UNL1        0.0391
      3 C         -26.9716    0.7139   27.5060 C.ar    1  UNL1        0.0060
      4 C         -28.1053    0.7744   26.6421 C.ar    1  UNL1        0.0347
      5 C         -29.2041    0.1179   27.0477 C.ar    1  UNL1        0.1447
      6 C         -29.2127   -0.6088   28.1281 C.ar    1  UNL1        0.0376
      7 C         -25.7106    1.4518   27.1380 C.ar    1  UNL1        0.0003
      8 C         -24.6052    0.9253   27.6902 C.ar    1  UNL1        0.0031
      9 C         -23.3376    1.6509   27.5494 C.ar    1  UNL1        0.0001
     10 C         -22.1760    1.2277   28.2868 C.ar    1  UNL1        0.0000
     11 C         -22.1814    0.0854   29.0261 C.ar    1  UNL1        0.0001
     12 C         -23.3607   -0.6935   29.1008 C.ar    1  UNL1        0.0032
     13 C         -24.5306   -0.2411   28.4874 C.ar    1  UNL1        0.0389
     14 C         -25.7159   -0.6069   29.1263 C.ar    1  UNL1        0.1955
     15 O         -25.7376   -1.5573   29.9905 O.2     1  UNL1       -0.2866
     16 C         -25.7534    2.4979   26.1763 C.ar    1  UNL1        0.0000
     17 O         -30.3432    0.3150   26.3350 O.2     1  UNL1       -0.4578
     18 C         -30.6144    0.8826   25.5190 C.ar    1  UNL1        0.1228
     19 C         -28.1702    1.6535   25.5022 C.ar    1  UNL1        0.0056
     20 C         -29.4939    1.7390   24.8538 C.ar    1  UNL1        0.0330
     21 C         -27.0354    2.5516   25.2389 C.ar    1  UNL1        0.0002
     22 C         -31.7965    0.9389   24.6811 C.3     1  UNL1        0.0662
     23 C         -32.6502   -0.1139   24.9505 C.3     1  UNL1        0.0273
     24 C         -33.1676   -0.1397   26.2430 C.3     1  UNL1        0.0912
     25 N         -33.4763   -1.1661   26.7947 N.pl3   1  UNL1       -0.3075
     26 C         -33.1031   -2.2778   26.5582 C.3     1  UNL1        0.0908
     27 C         -32.5919   -2.5235   25.1987 C.3     1  UNL1        0.0215
     28 C         -31.8205   -1.4343   24.7945 C.3     1  UNL1        0.0039
     29 C         -34.3229   -1.0932   28.1441 C.ar    1  UNL1        0.0478
     30 C         -34.7212   -1.8370   28.7407 C.ar    1  UNL1        0.0145
     31 C         -34.5066    0.3601   28.6044 C.ar    1  UNL1        0.0145
     32 C         -35.2568    0.6044   29.7226 C.ar    1  UNL1        0.0013
     33 C         -35.5192   -1.6956   29.9890 C.ar    1  UNL1        0.0013
     34 C         -35.7538   -0.4219   30.4268 C.ar    1  UNL1        0.0001
@<TRIPOS>BOND
     1     7     8   ar
     2     2    14   ar
     3    13    14   ar
     4    14    15    2
     5     5    17   ar
     6    17    18   ar
     7    18    20   ar
     8    19    20   ar
     9    18    22    1
    10    22    23    1
    11    23    24    1
    12    24    25    1
    13    25    26    1
    14    23    28    1
    15    27    28    1
    16    25    29    1
    17    27    26    1
    18     1     2   ar
    19     2     3   ar
    20     4     5   ar
    21     5     6   ar
    22     6     1   ar
    23     3     4   ar
    24     4    19   ar
    25    19    21   ar
    26    21    16   ar
    27    16     7   ar
    28     7     3   ar
    29    29    30   ar
    30    30    33   ar
    31    33    34   ar
    32    34    32   ar
    33    32    31   ar
    34    31    29   ar
    35     8     9   ar
    36     9    10   ar
    37    10    11   ar
    38    11    12   ar
    39    12    13   ar
    40    13     8   ar
