@<TRIPOS>MOLECULE
No_3458-gen_results/8p0m/2024-11-27-11-27-31/
 22 24 0 0 0
SMALL
GASTEIGER

@<TRIPOS>ATOM
      1 C         -28.0162   -0.8135   28.8779 C.ar    1  UNL1        0.0420
      2 C         -28.4690   -0.7850   29.8287 C.ar    1  UNL1        0.0570
      3 C         -28.1960    0.3478   28.0550 C.ar    1  UNL1        0.1455
      4 C         -29.0191    1.3501   28.3782 C.ar    1  UNL1        0.0408
      5 C         -28.3170   -1.9812   30.8560 C.2     1  UNL1        0.2529
      6 C         -29.5950    1.2859   29.6049 C.ar    1  UNL1        0.0454
      7 C         -29.3465    0.2093   30.3749 C.ar    1  UNL1        0.0080
      8 N         -29.2155   -2.9170   30.8674 N.am    1  UNL1       -0.2540
      9 C         -28.8997   -4.1543   30.4626 C.2     1  UNL1        0.0632
     10 C         -30.0445   -5.1130   30.2764 C.2     1  UNL1       -0.0082
     11 C         -30.9604   -4.7115   31.0429 C.3     1  UNL1        0.0493
     12 C         -30.4853   -3.0830   31.5071 C.3     1  UNL1        0.1032
     13 O         -27.5527    0.3273   26.7899 O.3     1  UNL1       -0.4535
     14 C         -26.8693    1.4786   26.3850 C.ar    1  UNL1        0.1453
     15 C         -25.5630    1.1323   25.9573 C.ar    1  UNL1        0.0375
     16 C         -24.4480    1.9715   26.4204 C.ar    1  UNL1        0.0031
     17 C         -24.7629    3.2524   26.8420 C.ar    1  UNL1        0.0002
     18 C         -26.1339    3.6251   27.0915 C.ar    1  UNL1        0.0031
     19 C         -27.1182    2.6779   26.9625 C.ar    1  UNL1        0.0375
     20 O         -27.3108   -1.9407   31.5888 O.2     1  UNL1       -0.2696
     21 C         -30.5093    2.3731   30.0802 C.2     1  UNL1        0.2343
     22 O         -30.3553    2.9328   31.0319 O.2     1  UNL1       -0.2831
@<TRIPOS>BOND
     1     2     5    1
     2     5     8   am
     3     8     9    1
     4     9    10    2
     5    10    11    1
     6     8    12    1
     7    11    12    1
     8     3    13    1
     9    13    14    1
    10     5    20    2
    11     6    21    1
    12    21    22    2
    13    14    15   ar
    14    15    16   ar
    15    16    17   ar
    16    17    18   ar
    17    18    19   ar
    18    19    14   ar
    19     1     2   ar
    20     2     7   ar
    21     7     6   ar
    22     6     4   ar
    23     4     3   ar
    24     3     1   ar
