@<TRIPOS>MOLECULE
outputs/IAG933/test6/raw/output_3459_IAG933_linker_design_.xyz
 59 66 0 0 0
SMALL
GASTEIGER

@<TRIPOS>ATOM
      1 C         -24.8550   -1.0120   30.1430 C.3     1  UNL1        0.0400
      2 C         -24.9730   -2.5050   29.7880 C.2     1  UNL1       -0.0211
      3 C         -23.9060   -3.1730   29.1460 C.2     1  UNL1       -0.0042
      4 C         -23.9890   -4.5490   28.8530 C.2     1  UNL1       -0.0003
      5 C         -25.1370   -5.2800   29.2050 C.2     1  UNL1       -0.0000
      6 C         -26.2320   -4.6110   29.7840 C.2     1  UNL1       -0.0003
      7 C         -26.1550   -3.2320   30.0650 C.2     1  UNL1       -0.0042
      8 C         -25.3870   -0.6790   31.5710 C.3     1  UNL1        0.0769
      9 C         -25.1890    0.7730   32.0280 C.3     1  UNL1        0.0192
     10 C         -25.3360    0.6840   33.5440 C.3     1  UNL1        0.0202
     11 C         -24.8290   -0.7150   33.9050 C.3     1  UNL1        0.0887
     12 N         -24.7580   -1.4810   32.6460 N.3     1  UNL1       -0.2191
     13 C         -25.6880    1.6140   26.4610 C.3     1  UNL1        0.0713
     14 C         -26.2500    2.9200   26.3950 C.2     1  UNL1        0.0548
     15 C         -25.6420    4.0930   27.1230 C.2     1  UNL1        0.2624
     16 N         -25.6140    5.2520   26.4490 N.am    1  UNL1       -0.2000
     17 C         -25.0260    6.4790   26.9630 C.3     1  UNL1        0.1388
     18 O         -25.1430    3.9660   28.2430 O.2     1  UNL1       -0.2687
     19 C         -27.4380    3.0910   25.6450 C.2     1  UNL1        0.1021
     20 N         -28.0750    2.0890   25.0030 N.2     1  UNL1       -0.2119
     21 C         -27.5430    0.8490   25.0790 C.2     1  UNL1        0.2341
     22 O         -28.1930   -0.2080   24.4770 O.2     1  UNL1       -0.4585
     23 C         -29.4600    0.0050   23.8660 C.3     1  UNL1        0.2423
     24 C         -30.0650   -1.3770   23.5730 C.3     1  UNL1        0.2292
     25 O         -30.7290   -1.8780   24.7210 O.3     1  UNL1       -0.2162
     26 C         -26.3540    0.5760   25.7770 C.3     1  UNL1        0.2400
     27 F         -25.8600   -0.6810   25.7950 F       1  UNL1       -0.2269
     28 C         -27.9902    3.8835   30.3296 C.2     1  UNL1        0.0468
     29 N         -30.2053    8.2275   32.6103 N.3     1  UNL1       -0.2166
     30 N         -25.9774    2.3406   30.2441 N.am    1  UNL1       -0.2017
     31 C         -32.1520    9.6895   28.7010 C.3     1  UNL1        0.1595
     32 C         -30.0777    3.3185   29.1136 C.3     1  UNL1        0.0265
     33 C         -30.1132    5.1343   30.6692 C.3     1  UNL1        0.0255
     34 N         -32.0799    8.2932   30.2974 N.3     1  UNL1       -0.2717
     35 C         -25.9614    1.1549   29.2551 C.3     1  UNL1        0.1158
     36 O         -30.9091    9.2789   27.9572 O.3     1  UNL1       -0.3496
     37 C         -23.5025    0.5939   28.4569 C.3     1  UNL1        0.0033
     38 C         -33.8377    9.3126   31.8803 C.3     1  UNL1        0.0175
     39 C         -23.5778    0.8891   27.2602 C.3     1  UNL1        0.0156
     40 C         -26.5637    3.5883   30.4568 C.2     1  UNL1        0.2642
     41 C         -32.8006    8.4918   29.1250 C.3     1  UNL1        0.1045
     42 C         -29.9042    7.1368   31.8015 C.3     1  UNL1        0.0904
     43 O         -25.8901    4.6017   30.7451 O.2     1  UNL1       -0.2684
     44 C         -28.7073    3.1328   29.4231 C.2     1  UNL1       -0.0219
     45 C         -24.6840    0.2276   29.2785 C.3     1  UNL1        0.0272
     46 C         -30.9612    9.3179   32.5190 C.3     1  UNL1        0.1032
     47 C         -30.4758    6.4610   30.7512 C.3     1  UNL1        0.0374
     48 C         -30.9501    8.0633   27.1550 C.3     1  UNL1        0.1742
     49 C         -24.3548    1.4390   26.6948 C.3     1  UNL1        0.0225
     50 C         -28.4669    5.7690   32.0609 C.2     1  UNL1       -0.0045
     51 C         -21.7035    1.6981   27.5849 C.3     1  UNL1        0.0151
     52 C         -32.2166    9.3615   31.7412 C.3     1  UNL1        0.0616
     53 C         -32.9677   10.4619   32.1595 C.3     1  UNL1        0.0175
     54 CL        -22.4939    2.1493   25.1126 Cl      1  UNL1       -0.1162
     55 C         -30.9135    4.1333   29.9678 C.3     1  UNL1        0.0091
     56 C         -23.0960    1.5101   26.6392 C.3     1  UNL1        0.0676
     57 C         -28.8280    4.9308   31.0555 C.2     1  UNL1       -0.0183
     58 C         -31.0370    7.0813   29.9804 C.3     1  UNL1        0.0738
     59 C         -22.1814    0.8861   28.5752 C.3     1  UNL1        0.0013
@<TRIPOS>BOND
     1     1    45    1
     2     2     7    1
     3     2     1    1
     4     3     2    2
     5     4     3    1
     6     4     5    2
     7     5     6    1
     8     6     7    2
     9     8     1    1
    10     8     9    1
    11     8    12    1
    12     9    10    1
    13    10    11    1
    14    12    11    1
    15    13    14    1
    16    13    49    1
    17    14    15    1
    18    15    18    2
    19    16    17    1
    20    16    15    1
    21    19    14    2
    22    20    21    2
    23    20    19    1
    24    21    26    1
    25    22    21    1
    26    23    22    1
    27    24    23    1
    28    24    25    1
    29    26    27    1
    30    26    13    1
    31    28    40    1
    32    28    57    1
    33    30    40    1
    34    31    41    1
    35    32    44    1
    36    32    55    1
    37    33    55    1
    38    33    47    1
    39    33    57    1
    40    34    52    1
    41    35    45    1
    42    35    30    1
    43    36    31    1
    44    37    59    1
    45    37    45    1
    46    38    53    1
    47    39    37    1
    48    40    43    2
    49    41    34    1
    50    42    29    1
    51    44    28    2
    52    46    29    1
    53    47    42    1
    54    48    36    1
    55    49    39    1
    56    51    59    1
    57    52    38    1
    58    52    53    1
    59    52    46    1
    60    54    56    1
    61    56    49    1
    62    56    39    1
    63    56    51    1
    64    57    50    2
    65    58    34    1
    66    58    47    1
