@<TRIPOS>MOLECULE
No_346-gen_results/8p0m/2024-11-27-11-27-31/
 10 10 0 0 0
SMALL
GASTEIGER

@<TRIPOS>ATOM
      1 C         -28.0162   -0.8135   28.8779 C.ar    1  UNL1        0.0001
      2 C         -27.0636   -0.1189   28.6079 C.ar    1  UNL1        0.0000
      3 C         -26.9716    0.7139   27.5060 C.ar    1  UNL1        0.0001
      4 C         -28.1053    0.7744   26.6421 C.ar    1  UNL1        0.0046
      5 C         -29.2008    0.1044   27.0527 C.ar    1  UNL1        0.0550
      6 C         -29.2096   -0.6029   28.1853 C.ar    1  UNL1        0.0046
      7 C         -30.2851    0.2916   26.0027 C.2     1  UNL1        0.2648
      8 O         -30.2014    0.4920   24.8778 O.2     1  UNL1       -0.2684
      9 N         -31.5736    0.3117   26.5862 N.am    1  UNL1       -0.1998
     10 C         -32.7051    0.3946   25.7217 C.3     1  UNL1        0.1388
@<TRIPOS>BOND
     1     5     7    1
     2     7     8    2
     3     7     9   am
     4     9    10    1
     5     1     2   ar
     6     2     3   ar
     7     3     4   ar
     8     4     5   ar
     9     5     6   ar
    10     6     1   ar
