@<TRIPOS>MOLECULE
outputs/IAG933/test6/raw/output_3461_IAG933_linker_design_.xyz
 47 51 0 0 0
SMALL
GASTEIGER

@<TRIPOS>ATOM
      1 C         -24.8550   -1.0120   30.1430 C.3     1  UNL1        0.1113
      2 C         -24.9730   -2.5050   29.7880 C.2     1  UNL1       -0.0030
      3 C         -23.9060   -3.1730   29.1460 C.2     1  UNL1       -0.0026
      4 C         -23.9890   -4.5490   28.8530 C.2     1  UNL1       -0.0003
      5 C         -25.1370   -5.2800   29.2050 C.2     1  UNL1       -0.0000
      6 C         -26.2320   -4.6110   29.7840 C.2     1  UNL1       -0.0003
      7 C         -26.1550   -3.2320   30.0650 C.2     1  UNL1       -0.0026
      8 C         -25.3870   -0.6790   31.5710 C.3     1  UNL1        0.0950
      9 C         -25.1890    0.7730   32.0280 C.3     1  UNL1        0.0209
     10 C         -25.3360    0.6840   33.5440 C.3     1  UNL1        0.0203
     11 C         -24.8290   -0.7150   33.9050 C.3     1  UNL1        0.0888
     12 N         -24.7580   -1.4810   32.6460 N.3     1  UNL1       -0.2174
     13 C         -25.6880    1.6140   26.4610 C.2     1  UNL1        0.0415
     14 C         -26.2500    2.9200   26.3950 C.2     1  UNL1        0.0767
     15 C         -25.6420    4.0930   27.1230 C.2     1  UNL1        0.2664
     16 N         -25.6140    5.2520   26.4490 N.am    1  UNL1       -0.1997
     17 C         -25.0260    6.4790   26.9630 C.3     1  UNL1        0.1388
     18 O         -25.1430    3.9660   28.2430 O.2     1  UNL1       -0.2683
     19 C         -27.4380    3.0910   25.6450 C.2     1  UNL1        0.1067
     20 N         -28.0750    2.0890   25.0030 N.2     1  UNL1       -0.2081
     21 C         -27.5430    0.8490   25.0790 C.2     1  UNL1        0.2533
     22 O         -28.1930   -0.2080   24.4770 O.2     1  UNL1       -0.4558
     23 C         -29.4600    0.0050   23.8660 C.3     1  UNL1        0.2426
     24 C         -30.0650   -1.3770   23.5730 C.3     1  UNL1        0.2292
     25 O         -30.7290   -1.8780   24.7210 O.3     1  UNL1       -0.2162
     26 C         -26.3540    0.5760   25.7770 C.2     1  UNL1        0.1932
     27 F         -25.8600   -0.6810   25.7950 F       1  UNL1       -0.1992
     28 C         -27.6992    0.0687   29.3528 C.3     1  UNL1        0.1082
     29 F         -23.1030    2.1828   25.3674 F       1  UNL1       -0.2018
     30 C         -28.1348    4.0470   31.2892 C.2     1  UNL1        0.0352
     31 O         -27.8097    6.2993   30.7868 O.2     1  UNL1       -0.4726
     32 C         -23.1145    0.5612   29.1160 C.2     1  UNL1        0.0170
     33 C         -22.0547    1.5169   27.2656 C.2     1  UNL1        0.1675
     34 C         -23.1580    1.6394   26.5696 C.2     1  UNL1        0.1686
     35 C         -24.4169    1.2853   27.1667 C.2     1  UNL1        0.0456
     36 O         -29.4152    1.6217   28.8073 O.2     1  UNL1       -0.2733
     37 C         -24.3265    0.6367   28.4426 C.2     1  UNL1        0.0504
     38 N         -25.2722    0.0510   29.2285 N.pl3   1  UNL1       -0.3035
     39 F         -20.8652    1.8645   26.7978 F       1  UNL1       -0.2018
     40 C         -21.9088    1.0750   28.5524 C.2     1  UNL1        0.0332
     41 N         -27.5805    2.5823   29.5433 N.am    1  UNL1       -0.2024
     42 C         -27.8140    6.1005   29.4545 C.3     1  UNL1        0.2077
     43 C         -28.2585    1.4429   29.2002 C.2     1  UNL1        0.2434
     44 C         -28.0098    3.8221   29.9199 C.3     1  UNL1        0.1240
     45 C         -27.9913    5.3454   31.7037 C.2     1  UNL1        0.1693
     46 C         -28.1687    4.8399   28.9934 C.3     1  UNL1        0.0736
     47 C         -26.4808   -0.4637   28.5909 C.3     1  UNL1        0.1007
@<TRIPOS>BOND
     1     1    38    1
     2     2     7    1
     3     2     1    1
     4     3     2    2
     5     4     3    1
     6     4     5    2
     7     5     6    1
     8     6     7    2
     9     8     1    1
    10     8     9    1
    11     8    12    1
    12     9    10    1
    13    10    11    1
    14    12    11    1
    15    13    35    1
    16    14    13    1
    17    14    15    1
    18    15    18    2
    19    16    17    1
    20    16    15    1
    21    19    14    2
    22    20    21    2
    23    20    19    1
    24    21    26    1
    25    22    21    1
    26    23    22    1
    27    24    23    1
    28    24    25    1
    29    26    27    1
    30    26    13    2
    31    29    34    1
    32    30    45    2
    33    31    45    1
    34    33    40    2
    35    34    35    2
    36    34    33    1
    37    35    37    1
    38    36    43    2
    39    37    32    2
    40    37    38    1
    41    39    33    1
    42    40    32    1
    43    42    31    1
    44    43    28    1
    45    43    41    1
    46    44    41    1
    47    44    30    1
    48    46    42    1
    49    46    44    1
    50    47    38    1
    51    47    28    1
