@<TRIPOS>MOLECULE
outputs/IAG933/test6/raw/output_3463_IAG933_linker_design_.xyz
 46 50 0 0 0
SMALL
GASTEIGER

@<TRIPOS>ATOM
      1 C         -24.8550   -1.0120   30.1430 C.3     1  UNL1        0.0407
      2 C         -24.9730   -2.5050   29.7880 C.2     1  UNL1       -0.0211
      3 C         -23.9060   -3.1730   29.1460 C.2     1  UNL1       -0.0042
      4 C         -23.9890   -4.5490   28.8530 C.2     1  UNL1       -0.0003
      5 C         -25.1370   -5.2800   29.2050 C.2     1  UNL1       -0.0000
      6 C         -26.2320   -4.6110   29.7840 C.2     1  UNL1       -0.0003
      7 C         -26.1550   -3.2320   30.0650 C.2     1  UNL1       -0.0042
      8 C         -25.3870   -0.6790   31.5710 C.3     1  UNL1        0.0769
      9 C         -25.1890    0.7730   32.0280 C.3     1  UNL1        0.0192
     10 C         -25.3360    0.6840   33.5440 C.3     1  UNL1        0.0202
     11 C         -24.8290   -0.7150   33.9050 C.3     1  UNL1        0.0887
     12 N         -24.7580   -1.4810   32.6460 N.3     1  UNL1       -0.2191
     13 C         -25.6880    1.6140   26.4610 C.2     1  UNL1        0.0182
     14 C         -26.2500    2.9200   26.3950 C.2     1  UNL1        0.0727
     15 C         -25.6420    4.0930   27.1230 C.2     1  UNL1        0.2661
     16 N         -25.6140    5.2520   26.4490 N.am    1  UNL1       -0.1997
     17 C         -25.0260    6.4790   26.9630 C.3     1  UNL1        0.1388
     18 O         -25.1430    3.9660   28.2430 O.2     1  UNL1       -0.2683
     19 C         -27.4380    3.0910   25.6450 C.2     1  UNL1        0.1064
     20 N         -28.0750    2.0890   25.0030 N.2     1  UNL1       -0.2081
     21 C         -27.5430    0.8490   25.0790 C.2     1  UNL1        0.2530
     22 O         -28.1930   -0.2080   24.4770 O.2     1  UNL1       -0.4558
     23 C         -29.4600    0.0050   23.8660 C.3     1  UNL1        0.2426
     24 C         -30.0650   -1.3770   23.5730 C.3     1  UNL1        0.2292
     25 O         -30.7290   -1.8780   24.7210 O.3     1  UNL1       -0.2162
     26 C         -26.3540    0.5760   25.7770 C.2     1  UNL1        0.1892
     27 F         -25.8600   -0.6810   25.7950 F       1  UNL1       -0.1996
     28 C         -28.9054    1.6297   28.9090 C.3     1  UNL1        0.0324
     29 C         -24.3585    1.3954   27.0240 C.3     1  UNL1        0.0564
     30 C         -26.7820   -0.4263   28.5145 C.3     1  UNL1        0.0028
     31 C         -33.8455    4.0840   31.5353 C.3     1  UNL1        0.0906
     32 S         -31.0583    3.8776   28.5820 S.3     1  UNL1       -0.1004
     33 N         -32.7652    3.5495   30.6829 N.3     1  UNL1       -0.2581
     34 C         -24.2111    0.3195   28.1772 C.3     1  UNL1        0.1203
     35 C         -22.0218    1.5794   26.0317 C.2     1  UNL1       -0.0278
     36 C         -23.4688    1.5061   25.7898 C.3     1  UNL1        0.0326
     37 C         -28.1423   -0.6484   28.1965 C.3     1  UNL1        0.0005
     38 C         -29.2163    0.0904   29.0086 C.3     1  UNL1        0.0052
     39 C         -30.2769    2.3685   29.2520 C.2     1  UNL1        0.0014
     40 C         -31.0644    1.7442   30.0405 C.2     1  UNL1       -0.0069
     41 C         -21.4726    1.2726   27.3024 C.2     1  UNL1        0.0011
     42 C         -25.4211    0.0764   29.1469 C.3     1  UNL1        0.0330
     43 C         -32.0527    4.4269   29.8606 C.3     1  UNL1        0.1357
     44 O         -22.9585    0.1662   28.9485 O.3     1  UNL1       -0.3511
     45 C         -32.3847    2.1343   30.6366 C.3     1  UNL1        0.0997
     46 C         -21.8748    0.9609   28.4803 C.3     1  UNL1        0.1679
@<TRIPOS>BOND
     1     1    42    1
     2     2     7    1
     3     2     1    1
     4     3     2    2
     5     4     3    1
     6     4     5    2
     7     5     6    1
     8     6     7    2
     9     8     1    1
    10     8     9    1
    11     8    12    1
    12     9    10    1
    13    10    11    1
    14    12    11    1
    15    14    13    1
    16    14    15    1
    17    15    18    2
    18    16    17    1
    19    16    15    1
    20    19    14    2
    21    20    21    2
    22    20    19    1
    23    21    26    1
    24    22    21    1
    25    23    22    1
    26    24    23    1
    27    24    25    1
    28    26    27    1
    29    26    13    2
    30    28    38    1
    31    28    39    1
    32    29    13    1
    33    29    34    1
    34    32    39    1
    35    32    43    1
    36    33    31    1
    37    34    44    1
    38    34    42    1
    39    35    41    2
    40    36    35    1
    41    36    29    1
    42    37    30    1
    43    37    38    1
    44    39    40    2
    45    40    45    1
    46    41    46    1
    47    42    30    1
    48    43    33    1
    49    45    33    1
    50    46    44    1
