@<TRIPOS>MOLECULE
outputs/IAG933/test6/raw/output_3464_IAG933_linker_design_.xyz
 44 49 0 0 0
SMALL
GASTEIGER

@<TRIPOS>ATOM
      1 C         -24.8550   -1.0120   30.1430 C.3     1  UNL1        0.0582
      2 C         -24.9730   -2.5050   29.7880 C.2     1  UNL1       -0.0195
      3 C         -23.9060   -3.1730   29.1460 C.2     1  UNL1       -0.0042
      4 C         -23.9890   -4.5490   28.8530 C.2     1  UNL1       -0.0003
      5 C         -25.1370   -5.2800   29.2050 C.2     1  UNL1       -0.0000
      6 C         -26.2320   -4.6110   29.7840 C.2     1  UNL1       -0.0003
      7 C         -26.1550   -3.2320   30.0650 C.2     1  UNL1       -0.0042
      8 C         -25.3870   -0.6790   31.5710 C.3     1  UNL1        0.0785
      9 C         -25.1890    0.7730   32.0280 C.3     1  UNL1        0.0201
     10 C         -25.3360    0.6840   33.5440 C.3     1  UNL1        0.0203
     11 C         -24.8290   -0.7150   33.9050 C.3     1  UNL1        0.0887
     12 N         -24.7580   -1.4810   32.6460 N.3     1  UNL1       -0.2191
     13 C         -25.6880    1.6140   26.4610 C.2     1  UNL1        0.0555
     14 C         -26.2500    2.9200   26.3950 C.2     1  UNL1        0.0779
     15 C         -25.6420    4.0930   27.1230 C.2     1  UNL1        0.2665
     16 N         -25.6140    5.2520   26.4490 N.am    1  UNL1       -0.1997
     17 C         -25.0260    6.4790   26.9630 C.3     1  UNL1        0.1388
     18 O         -25.1430    3.9660   28.2430 O.2     1  UNL1       -0.2683
     19 C         -27.4380    3.0910   25.6450 C.2     1  UNL1        0.1068
     20 N         -28.0750    2.0890   25.0030 N.2     1  UNL1       -0.2081
     21 C         -27.5430    0.8490   25.0790 C.2     1  UNL1        0.2533
     22 O         -28.1930   -0.2080   24.4770 O.2     1  UNL1       -0.4558
     23 C         -29.4600    0.0050   23.8660 C.3     1  UNL1        0.2426
     24 C         -30.0650   -1.3770   23.5730 C.3     1  UNL1        0.2292
     25 O         -30.7290   -1.8780   24.7210 O.3     1  UNL1       -0.2162
     26 C         -26.3540    0.5760   25.7770 C.2     1  UNL1        0.1944
     27 F         -25.8600   -0.6810   25.7950 F       1  UNL1       -0.1992
     28 C         -24.6128    1.1709   27.1843 C.2     1  UNL1        0.0974
     29 C         -20.7899   -0.1763   28.6427 C.3     1  UNL1        0.1158
     30 O         -24.3082    4.9277   32.0831 O.co2   1  UNL1       -0.2457
     31 C         -24.0946    2.6951   31.1828 C.3     1  UNL1        0.1158
     32 O         -19.9315    0.7689   28.0510 O.3     1  UNL1       -0.3558
     33 C         -22.1773    0.2936   28.6517 C.3     1  UNL1        0.0392
     34 C         -22.2616    2.2296   25.1151 C.3     1  UNL1        0.2520
     35 C         -20.8291    1.5821   27.6149 C.3     1  UNL1        0.1496
     36 C         -23.3025    1.5672   26.9757 C.2     1  UNL1        0.1330
     37 O         -23.0257    2.5265   26.1450 O.2     1  UNL1       -0.4743
     38 C         -22.1024    1.2230   27.7284 C.3     1  UNL1        0.0901
     39 C         -24.4674    0.3286   29.4122 C.3     1  UNL1        0.0984
     40 N         -24.7888    0.1890   28.0942 N.pl3   1  UNL1       -0.2362
     41 C         -24.9366    1.4342   30.6597 C.3     1  UNL1        0.0329
     42 O         -26.1271    4.0681   31.2740 O.co2   1  UNL1       -0.2457
     43 C         -21.9202   -0.7080   29.1304 C.3     1  UNL1        0.0325
     44 C         -25.0159    3.9193   31.5704 C.2     1  UNL1        0.3649
@<TRIPOS>BOND
     1     1     2    1
     2     1     8    1
     3     2     7    1
     4     3     2    2
     5     4     3    1
     6     4     5    2
     7     5     6    1
     8     6     7    2
     9     8     9    1
    10     8    12    1
    11     9    10    1
    12    10    11    1
    13    12    11    1
    14    13    28    1
    15    14    13    1
    16    14    15    1
    17    15    18    2
    18    16    17    1
    19    16    15    1
    20    19    14    2
    21    20    21    2
    22    20    19    1
    23    21    26    1
    24    22    21    1
    25    23    22    1
    26    24    23    1
    27    24    25    1
    28    26    27    1
    29    26    13    2
    30    28    40    1
    31    29    33    1
    32    29    43    1
    33    31    44    1
    34    32    29    1
    35    33    43    1
    36    34    37    1
    37    35    38    1
    38    35    32    1
    39    36    28    2
    40    37    36    1
    41    38    36    1
    42    38    33    1
    43    39    40    1
    44    39     1    1
    45    39    41    1
    46    41    31    1
    47    41     9    1
    48    42    44   ar
    49    44    30   ar
