@<TRIPOS>MOLECULE
No_3466-gen_results/8p0m/2024-11-27-11-27-31/
 26 27 0 0 0
SMALL
GASTEIGER

@<TRIPOS>ATOM
      1 C         -28.0162   -0.8135   28.8779 C.ar    1  UNL1        0.0103
      2 C         -28.4690   -0.7850   29.8287 C.ar    1  UNL1        0.0756
      3 C         -27.1356    0.2359   28.5352 C.ar    1  UNL1        0.0716
      4 C         -26.8745    1.2825   29.3982 C.ar    1  UNL1        0.0039
      5 C         -28.3613    0.1987   30.9244 C.ar    1  UNL1        0.0064
      6 C         -27.5277    1.2234   30.6356 C.ar    1  UNL1        0.0002
      7 C         -26.3879    0.2914   27.2334 C.3     1  UNL1        0.4186
      8 F         -25.7787   -0.5228   27.0339 F       1  UNL1       -0.1659
      9 F         -27.4096    0.4971   26.2409 F       1  UNL1       -0.1659
     10 F         -25.6634    1.5011   26.9967 F       1  UNL1       -0.1659
     11 C         -29.3955   -2.0219   30.3178 C.2     1  UNL1        0.3415
     12 O         -29.7730   -2.0119   31.5043 O.2     1  UNL1       -0.2449
     13 O         -29.2255   -3.1352   29.7992 O.3     1  UNL1       -0.4417
     14 C         -27.2769    2.3370   31.6018 C.ar    1  UNL1        0.0000
     15 C         -27.5201    2.4644   32.5862 C.ar    1  UNL1        0.0009
     16 C         -27.1923    3.6343   33.5117 C.ar    1  UNL1        0.0114
     17 C         -26.4453    4.6661   32.9509 C.ar    1  UNL1        0.0577
     18 C         -26.0577    4.5295   31.5975 C.ar    1  UNL1        0.0114
     19 C         -26.3871    3.4214   30.8830 C.ar    1  UNL1        0.0009
     20 CL        -25.9927    6.0163   33.8963 Cl      1  UNL1       -0.0822
     21 C         -30.0535   -4.2011   30.1229 C.3     1  UNL1        0.2273
     22 C         -29.8025   -4.8077   31.2402 C.3     1  UNL1        0.2301
     23 O         -28.7920   -4.8128   31.6632 O.3     1  UNL1       -0.2160
     24 C         -29.7866   -5.2209   28.9432 C.2     1  UNL1        0.0648
     25 C         -30.9886   -5.3203   28.1017 C.2     1  UNL1        0.2334
     26 O         -31.8543   -4.5356   28.1585 O.2     1  UNL1       -0.2834
@<TRIPOS>BOND
     1     3     7    1
     2     7     8    1
     3     7     9    1
     4     7    10    1
     5     2    11    1
     6    11    12    2
     7    11    13    1
     8     6    14    1
     9    17    20    1
    10    13    21    1
    11    21    22    1
    12    22    23    1
    13    21    24    1
    14    24    25    2
    15    25    26    1
    16    14    15   ar
    17    15    16   ar
    18    16    17   ar
    19    17    18   ar
    20    18    19   ar
    21    19    14   ar
    22     1     2   ar
    23     2     5   ar
    24     5     6   ar
    25     6     4   ar
    26     4     3   ar
    27     3     1   ar
