@<TRIPOS>MOLECULE
outputs/IAG933/test6/raw/output_3467_IAG933_linker_design_.xyz
 42 46 0 0 0
SMALL
GASTEIGER

@<TRIPOS>ATOM
      1 C         -24.8550   -1.0120   30.1430 C.3     1  UNL1        0.1174
      2 C         -24.9730   -2.5050   29.7880 C.2     1  UNL1       -0.0028
      3 C         -23.9060   -3.1730   29.1460 C.2     1  UNL1       -0.0026
      4 C         -23.9890   -4.5490   28.8530 C.2     1  UNL1       -0.0003
      5 C         -25.1370   -5.2800   29.2050 C.2     1  UNL1       -0.0000
      6 C         -26.2320   -4.6110   29.7840 C.2     1  UNL1       -0.0003
      7 C         -26.1550   -3.2320   30.0650 C.2     1  UNL1       -0.0026
      8 C         -25.3870   -0.6790   31.5710 C.3     1  UNL1        0.0952
      9 C         -25.1890    0.7730   32.0280 C.3     1  UNL1        0.0209
     10 C         -25.3360    0.6840   33.5440 C.3     1  UNL1        0.0203
     11 C         -24.8290   -0.7150   33.9050 C.3     1  UNL1        0.0888
     12 N         -24.7580   -1.4810   32.6460 N.3     1  UNL1       -0.2174
     13 C         -25.6880    1.6140   26.4610 C.2     1  UNL1        0.0892
     14 C         -26.2500    2.9200   26.3950 C.2     1  UNL1        0.0900
     15 C         -25.6420    4.0930   27.1230 C.2     1  UNL1        0.2676
     16 N         -25.6140    5.2520   26.4490 N.am    1  UNL1       -0.1997
     17 C         -25.0260    6.4790   26.9630 C.3     1  UNL1        0.1388
     18 O         -25.1430    3.9660   28.2430 O.2     1  UNL1       -0.2683
     19 C         -27.4380    3.0910   25.6450 C.2     1  UNL1        0.1080
     20 N         -28.0750    2.0890   25.0030 N.2     1  UNL1       -0.2080
     21 C         -27.5430    0.8490   25.0790 C.2     1  UNL1        0.2546
     22 O         -28.1930   -0.2080   24.4770 O.2     1  UNL1       -0.4558
     23 C         -29.4600    0.0050   23.8660 C.3     1  UNL1        0.2426
     24 C         -30.0650   -1.3770   23.5730 C.3     1  UNL1        0.2292
     25 O         -30.7290   -1.8780   24.7210 O.3     1  UNL1       -0.2162
     26 C         -26.3540    0.5760   25.7770 C.2     1  UNL1        0.2063
     27 F         -25.8600   -0.6810   25.7950 F       1  UNL1       -0.1979
     28 N         -24.6032    1.2684   27.1560 N.pl3   1  UNL1       -0.2649
     29 C         -24.6481    0.4593   28.3288 C.3     1  UNL1        0.2819
     30 C         -28.2877    0.5737   29.5268 C.3     1  UNL1        0.0768
     31 C         -31.1881    0.8840   30.5362 C.3     1  UNL1        0.0000
     32 C         -27.0490   -0.3418   28.9756 C.2     1  UNL1        0.2282
     33 O         -27.3339   -1.1799   28.2103 O.2     1  UNL1       -0.2748
     34 C         -28.7303    0.6943   30.9867 C.3     1  UNL1        0.0091
     35 N         -25.5569   -0.2070   29.1453 N.am    1  UNL1       -0.2375
     36 C         -21.0818    1.7339   27.7532 C.3     1  UNL1        0.0340
     37 C         -23.2932    1.7331   26.6915 C.3     1  UNL1        0.1241
     38 C         -30.8003    0.1527   29.2215 C.3     1  UNL1        0.0005
     39 O         -23.3669    0.3867   28.6992 O.3     1  UNL1       -0.3227
     40 C         -22.4253    0.9641   27.6890 C.3     1  UNL1        0.1385
     41 C         -29.4887    0.6327   28.5420 C.3     1  UNL1        0.0091
     42 C         -29.9779    1.4982   31.1866 C.3     1  UNL1        0.0005
@<TRIPOS>BOND
     1     1    35    1
     2     2     7    1
     3     2     1    1
     4     3     2    2
     5     4     3    1
     6     4     5    2
     7     5     6    1
     8     6     7    2
     9     8     1    1
    10     8     9    1
    11     8    12    1
    12     9    10    1
    13    10    11    1
    14    12    11    1
    15    13    28    1
    16    14    13    1
    17    14    15    1
    18    15    18    2
    19    16    17    1
    20    16    15    1
    21    19    14    2
    22    20    21    2
    23    20    19    1
    24    21    26    1
    25    22    21    1
    26    23    22    1
    27    24    23    1
    28    24    25    1
    29    26    27    1
    30    26    13    2
    31    28    29    1
    32    29    39    1
    33    29    35    1
    34    30    34    1
    35    31    42    1
    36    32    35   am
    37    32    30    1
    38    33    32    2
    39    34    42    1
    40    37    28    1
    41    37    40    1
    42    38    31    1
    43    40    36    1
    44    40    39    1
    45    41    38    1
    46    41    30    1
