@<TRIPOS>MOLECULE
outputs/IAG933/test6/raw/output_3468_IAG933_linker_design_.xyz
 41 45 0 0 0
SMALL
GASTEIGER

@<TRIPOS>ATOM
      1 C         -24.8550   -1.0120   30.1430 C.3     1  UNL1        0.1186
      2 C         -24.9730   -2.5050   29.7880 C.2     1  UNL1       -0.0028
      3 C         -23.9060   -3.1730   29.1460 C.2     1  UNL1       -0.0026
      4 C         -23.9890   -4.5490   28.8530 C.2     1  UNL1       -0.0003
      5 C         -25.1370   -5.2800   29.2050 C.2     1  UNL1       -0.0000
      6 C         -26.2320   -4.6110   29.7840 C.2     1  UNL1       -0.0003
      7 C         -26.1550   -3.2320   30.0650 C.2     1  UNL1       -0.0026
      8 C         -25.3870   -0.6790   31.5710 C.3     1  UNL1        0.0953
      9 C         -25.1890    0.7730   32.0280 C.3     1  UNL1        0.0209
     10 C         -25.3360    0.6840   33.5440 C.3     1  UNL1        0.0203
     11 C         -24.8290   -0.7150   33.9050 C.3     1  UNL1        0.0888
     12 N         -24.7580   -1.4810   32.6460 N.3     1  UNL1       -0.2174
     13 C         -25.6880    1.6140   26.4610 C.2     1  UNL1        0.0907
     14 C         -26.2500    2.9200   26.3950 C.2     1  UNL1        0.0900
     15 C         -25.6420    4.0930   27.1230 C.2     1  UNL1        0.2676
     16 N         -25.6140    5.2520   26.4490 N.am    1  UNL1       -0.1997
     17 C         -25.0260    6.4790   26.9630 C.3     1  UNL1        0.1388
     18 O         -25.1430    3.9660   28.2430 O.2     1  UNL1       -0.2683
     19 C         -27.4380    3.0910   25.6450 C.2     1  UNL1        0.1080
     20 N         -28.0750    2.0890   25.0030 N.2     1  UNL1       -0.2080
     21 C         -27.5430    0.8490   25.0790 C.2     1  UNL1        0.2546
     22 O         -28.1930   -0.2080   24.4770 O.2     1  UNL1       -0.4558
     23 C         -29.4600    0.0050   23.8660 C.3     1  UNL1        0.2426
     24 C         -30.0650   -1.3770   23.5730 C.3     1  UNL1        0.2292
     25 O         -30.7290   -1.8780   24.7210 O.3     1  UNL1       -0.2162
     26 C         -26.3540    0.5760   25.7770 C.2     1  UNL1        0.2064
     27 F         -25.8600   -0.6810   25.7950 F       1  UNL1       -0.1979
     28 O         -22.9107    2.4444   25.9027 O.2     1  UNL1       -0.2363
     29 C         -22.4257    1.7603   26.8505 C.2     1  UNL1        0.4157
     30 N         -21.1570    1.5088   27.1303 N.am    1  UNL1        0.0309
     31 O         -26.7251    1.5166   29.3494 O.3     1  UNL1       -0.4304
     32 O         -27.3352   -0.5721   28.6244 O.2     1  UNL1       -0.2261
     33 C         -20.0840   -0.0029   28.5212 C.3     1  UNL1        0.1315
     34 C         -21.1300    0.6853   28.2130 C.2     1  UNL1        0.3337
     35 C         -26.5806    0.2835   29.0464 C.2     1  UNL1        0.4065
     36 C         -27.6625    2.1832   30.1903 C.3     1  UNL1        0.2573
     37 N         -22.2614    0.4814   28.7863 N.pl3   1  UNL1       -0.0098
     38 N         -24.6094    1.3842   27.3466 N.pl3   1  UNL1       -0.2405
     39 C         -24.4211    0.8008   28.2880 C.3     1  UNL1        0.2329
     40 N         -25.2703   -0.0051   29.1415 N.am    1  UNL1       -0.2219
     41 C         -23.3387    1.0790   27.8656 C.3     1  UNL1        0.3566
@<TRIPOS>BOND
     1     1    40    1
     2     2     7    1
     3     2     1    1
     4     3     2    2
     5     4     3    1
     6     4     5    2
     7     5     6    1
     8     6     7    2
     9     8     1    1
    10     8     9    1
    11     8    12    1
    12     9    10    1
    13    10    11    1
    14    12    11    1
    15    13    38    1
    16    14    13    1
    17    14    15    1
    18    15    18    2
    19    16    17    1
    20    16    15    1
    21    19    14    2
    22    20    21    2
    23    20    19    1
    24    21    26    1
    25    22    21    1
    26    23    22    1
    27    24    23    1
    28    24    25    1
    29    26    27    1
    30    26    13    2
    31    28    29    2
    32    29    30    1
    33    30    34    2
    34    31    36    1
    35    32    35    2
    36    34    33    1
    37    34    37    1
    38    35    40   am
    39    35    31    1
    40    38    41    1
    41    38    39    1
    42    39    40    1
    43    41    29    1
    44    41    39    1
    45    41    37    1
