@<TRIPOS>MOLECULE
outputs/IAG933/test6/raw/output_3469_IAG933_linker_design_.xyz
 44 49 0 0 0
SMALL
GASTEIGER

@<TRIPOS>ATOM
      1 C         -24.8550   -1.0120   30.1430 C.3     1  UNL1        0.2040
      2 C         -24.9730   -2.5050   29.7880 C.2     1  UNL1        0.0186
      3 C         -23.9060   -3.1730   29.1460 C.2     1  UNL1       -0.0008
      4 C         -23.9890   -4.5490   28.8530 C.2     1  UNL1       -0.0002
      5 C         -25.1370   -5.2800   29.2050 C.2     1  UNL1       -0.0000
      6 C         -26.2320   -4.6110   29.7840 C.2     1  UNL1       -0.0002
      7 C         -26.1550   -3.2320   30.0650 C.2     1  UNL1       -0.0008
      8 C         -25.3870   -0.6790   31.5710 C.3     1  UNL1        0.1185
      9 C         -25.1890    0.7730   32.0280 C.3     1  UNL1        0.0403
     10 C         -25.3360    0.6840   33.5440 C.3     1  UNL1        0.0220
     11 C         -24.8290   -0.7150   33.9050 C.3     1  UNL1        0.0889
     12 N         -24.7580   -1.4810   32.6460 N.3     1  UNL1       -0.2154
     13 C         -25.6880    1.6140   26.4610 C.2     1  UNL1        0.0418
     14 C         -26.2500    2.9200   26.3950 C.2     1  UNL1        0.0767
     15 C         -25.6420    4.0930   27.1230 C.2     1  UNL1        0.2664
     16 N         -25.6140    5.2520   26.4490 N.am    1  UNL1       -0.1997
     17 C         -25.0260    6.4790   26.9630 C.3     1  UNL1        0.1388
     18 O         -25.1430    3.9660   28.2430 O.2     1  UNL1       -0.2683
     19 C         -27.4380    3.0910   25.6450 C.2     1  UNL1        0.1067
     20 N         -28.0750    2.0890   25.0030 N.2     1  UNL1       -0.2081
     21 C         -27.5430    0.8490   25.0790 C.2     1  UNL1        0.2533
     22 O         -28.1930   -0.2080   24.4770 O.2     1  UNL1       -0.4558
     23 C         -29.4600    0.0050   23.8660 C.3     1  UNL1        0.2426
     24 C         -30.0650   -1.3770   23.5730 C.3     1  UNL1        0.2292
     25 O         -30.7290   -1.8780   24.7210 O.3     1  UNL1       -0.2162
     26 C         -26.3540    0.5760   25.7770 C.2     1  UNL1        0.1932
     27 F         -25.8600   -0.6810   25.7950 F       1  UNL1       -0.1992
     28 C         -26.1333    4.4127   30.6526 C.3     1  UNL1        0.2201
     29 C         -21.8970    1.4366   28.9216 C.2     1  UNL1        0.0028
     30 C         -21.9880    1.8134   26.3521 C.2     1  UNL1        0.0115
     31 C         -23.3218    1.5973   25.9489 C.2     1  UNL1        0.0606
     32 C         -24.8566    2.3560   31.6083 C.3     1  UNL1        0.0834
     33 C         -25.0143    6.0250   32.7767 C.3     1  UNL1        0.0495
     34 C         -21.3934    1.7955   27.6240 C.2     1  UNL1        0.0010
     35 C         -24.4521    4.6061   32.6111 C.3     1  UNL1        0.0772
     36 C         -24.3774    1.3901   26.9222 C.2     1  UNL1        0.0471
     37 O         -26.5671    5.7235   31.0294 O.3     1  UNL1       -0.3373
     38 C         -23.6237    2.1203   30.5737 C.2     1  UNL1       -0.0074
     39 O         -25.0140   -0.0861   29.0513 O.2     1  UNL1       -0.4733
     40 C         -26.5357    5.9666   32.4278 C.3     1  UNL1        0.1453
     41 C         -23.3288    1.4375   29.2341 C.2     1  UNL1        0.0311
     42 C         -24.2426    0.9907   28.3713 C.2     1  UNL1        0.1393
     43 N         -25.2093    3.8267   31.6391 N.3     1  UNL1       -0.2451
     44 CL        -23.5407    1.5476   24.1859 Cl      1  UNL1       -0.0821
@<TRIPOS>BOND
     1     1     2    1
     2     1     8    1
     3     2     7    1
     4     3     2    2
     5     4     3    1
     6     4     5    2
     7     5     6    1
     8     6     7    2
     9     8     9    1
    10     8    12    1
    11     9    10    1
    12    10    11    1
    13    12    11    1
    14    13    36    1
    15    14    13    1
    16    14    15    1
    17    15    18    2
    18    16    17    1
    19    16    15    1
    20    19    14    2
    21    20    21    2
    22    20    19    1
    23    21    26    1
    24    22    21    1
    25    23    22    1
    26    24    23    1
    27    24    25    1
    28    26    27    1
    29    26    13    2
    30    28    37    1
    31    29    41    1
    32    30    34    1
    33    31    30    2
    34    31    36    1
    35    32    38    1
    36    32    43    1
    37    32     9    1
    38    34    29    2
    39    35    33    1
    40    36    42    2
    41    37    40    1
    42    39     1    1
    43    40    33    1
    44    41    38    2
    45    42    39    1
    46    42    41    1
    47    43    28    1
    48    43    35    1
    49    44    31    1
