@<TRIPOS>MOLECULE
outputs/IAG933/test6/raw/output_3470_IAG933_linker_design_.xyz
 42 45 0 0 0
SMALL
GASTEIGER

@<TRIPOS>ATOM
      1 C         -24.8550   -1.0120   30.1430 C.3     1  UNL1        0.1077
      2 C         -24.9730   -2.5050   29.7880 C.2     1  UNL1       -0.0056
      3 C         -23.9060   -3.1730   29.1460 C.2     1  UNL1       -0.0029
      4 C         -23.9890   -4.5490   28.8530 C.2     1  UNL1       -0.0003
      5 C         -25.1370   -5.2800   29.2050 C.2     1  UNL1       -0.0000
      6 C         -26.2320   -4.6110   29.7840 C.2     1  UNL1       -0.0003
      7 C         -26.1550   -3.2320   30.0650 C.2     1  UNL1       -0.0029
      8 C         -25.3870   -0.6790   31.5710 C.3     1  UNL1        0.0924
      9 C         -25.1890    0.7730   32.0280 C.3     1  UNL1        0.0206
     10 C         -25.3360    0.6840   33.5440 C.3     1  UNL1        0.0203
     11 C         -24.8290   -0.7150   33.9050 C.3     1  UNL1        0.0888
     12 N         -24.7580   -1.4810   32.6460 N.3     1  UNL1       -0.2177
     13 C         -25.6880    1.6140   26.4610 C.2     1  UNL1        0.0407
     14 C         -26.2500    2.9200   26.3950 C.2     1  UNL1        0.0748
     15 C         -25.6420    4.0930   27.1230 C.2     1  UNL1        0.2268
     16 N         -25.6140    5.2520   26.4490 N.2     1  UNL1       -0.2353
     17 C         -25.0260    6.4790   26.9630 C.3     1  UNL1        0.1550
     18 O         -25.1430    3.9660   28.2430 O.2     1  UNL1       -0.4367
     19 C         -27.4380    3.0910   25.6450 C.2     1  UNL1        0.1068
     20 N         -28.0750    2.0890   25.0030 N.2     1  UNL1       -0.2081
     21 C         -27.5430    0.8490   25.0790 C.2     1  UNL1        0.2533
     22 O         -28.1930   -0.2080   24.4770 O.2     1  UNL1       -0.4558
     23 C         -29.4600    0.0050   23.8660 C.3     1  UNL1        0.2426
     24 C         -30.0650   -1.3770   23.5730 C.3     1  UNL1        0.2292
     25 O         -30.7290   -1.8780   24.7210 O.3     1  UNL1       -0.2162
     26 C         -26.3540    0.5760   25.7770 C.2     1  UNL1        0.1931
     27 F         -25.8600   -0.6810   25.7950 F       1  UNL1       -0.1992
     28 C         -26.2662    3.0615   31.2372 C.2     1  UNL1       -0.0012
     29 S         -22.6707    0.8831   28.4666 S.O2    1  UNL1        0.0080
     30 C         -28.1368    1.6340   29.6629 C.3     1  UNL1        0.0787
     31 C         -21.5963    1.3534   27.1965 C.3     1  UNL1        0.1778
     32 O         -22.9761    2.1135   29.2379 O.2     1  UNL1       -0.1716
     33 C         -26.5535    3.5088   30.0486 C.2     1  UNL1        0.0133
     34 C         -25.8263    3.9544   32.1482 C.2     1  UNL1       -0.0001
     35 C         -25.6009    5.4511   30.3427 C.2     1  UNL1        0.0372
     36 C         -25.7165    5.2612   31.7106 C.2     1  UNL1        0.0031
     37 O         -21.9503   -0.0066   29.4067 O.2     1  UNL1       -0.1716
     38 C         -25.8050    4.4007   29.5038 C.2     1  UNL1        0.1432
     39 C         -27.9932    3.0227   29.4404 C.3     1  UNL1        0.0424
     40 N         -25.0119   -0.1982   28.9132 N.3     1  UNL1       -0.2025
     41 S         -26.7378    0.4684   28.8002 S.3     1  UNL1       -0.0640
     42 C         -23.9711    0.0678   27.9805 C.3     1  UNL1        0.2361
@<TRIPOS>BOND
     1     1    40    1
     2     2     7    1
     3     2     1    1
     4     3     2    2
     5     4     3    1
     6     4     5    2
     7     5     6    1
     8     6     7    2
     9     8     1    1
    10     8     9    1
    11     8    12    1
    12     9    10    1
    13    10    11    1
    14    12    11    1
    15    14    13    1
    16    14    15    1
    17    15    18    1
    18    16    17    1
    19    16    15    2
    20    18    38    1
    21    19    14    2
    22    20    21    2
    23    20    19    1
    24    21    26    1
    25    22    21    1
    26    23    22    1
    27    24    23    1
    28    24    25    1
    29    26    27    1
    30    26    13    2
    31    28    34    1
    32    29    32    2
    33    29    37    2
    34    31    29    1
    35    33    28    2
    36    35    36    1
    37    36    34    2
    38    38    33    1
    39    38    35    2
    40    39    30    1
    41    39    33    1
    42    41    40    1
    43    41    30    1
    44    42    29    1
    45    42    40    1
