@<TRIPOS>MOLECULE
outputs/IAG933/test6/raw/output_3472_IAG933_linker_design_.xyz
 48 51 0 0 0
SMALL
GASTEIGER

@<TRIPOS>ATOM
      1 C         -24.8550   -1.0120   30.1430 C.3     1  UNL1        0.0437
      2 C         -24.9730   -2.5050   29.7880 C.2     1  UNL1       -0.0208
      3 C         -23.9060   -3.1730   29.1460 C.2     1  UNL1       -0.0042
      4 C         -23.9890   -4.5490   28.8530 C.2     1  UNL1       -0.0003
      5 C         -25.1370   -5.2800   29.2050 C.2     1  UNL1       -0.0000
      6 C         -26.2320   -4.6110   29.7840 C.2     1  UNL1       -0.0003
      7 C         -26.1550   -3.2320   30.0650 C.2     1  UNL1       -0.0042
      8 C         -25.3870   -0.6790   31.5710 C.3     1  UNL1        0.0776
      9 C         -25.1890    0.7730   32.0280 C.3     1  UNL1        0.0265
     10 C         -25.3360    0.6840   33.5440 C.3     1  UNL1        0.0207
     11 C         -24.8290   -0.7150   33.9050 C.3     1  UNL1        0.0887
     12 N         -24.7580   -1.4810   32.6460 N.3     1  UNL1       -0.2191
     13 C         -25.6880    1.6140   26.4610 C.2     1  UNL1        0.1113
     14 C         -26.2500    2.9200   26.3950 C.2     1  UNL1        0.0919
     15 C         -25.6420    4.0930   27.1230 C.2     1  UNL1        0.2677
     16 N         -25.6140    5.2520   26.4490 N.am    1  UNL1       -0.1997
     17 C         -25.0260    6.4790   26.9630 C.3     1  UNL1        0.1388
     18 O         -25.1430    3.9660   28.2430 O.2     1  UNL1       -0.2683
     19 C         -27.4380    3.0910   25.6450 C.2     1  UNL1        0.1080
     20 N         -28.0750    2.0890   25.0030 N.2     1  UNL1       -0.2080
     21 C         -27.5430    0.8490   25.0790 C.2     1  UNL1        0.2546
     22 O         -28.1930   -0.2080   24.4770 O.2     1  UNL1       -0.4558
     23 C         -29.4600    0.0050   23.8660 C.3     1  UNL1        0.2426
     24 C         -30.0650   -1.3770   23.5730 C.3     1  UNL1        0.2292
     25 O         -30.7290   -1.8780   24.7210 O.3     1  UNL1       -0.2162
     26 C         -26.3540    0.5760   25.7770 C.2     1  UNL1        0.2083
     27 F         -25.8600   -0.6810   25.7950 F       1  UNL1       -0.1978
     28 O         -23.0673    2.6869   25.5642 O.2     1  UNL1       -0.2724
     29 O         -22.2860    0.1249   29.1820 O.2     1  UNL1       -0.2728
     30 C         -25.9084    3.0971   32.0231 C.2     1  UNL1        0.1564
     31 C         -23.0388    1.9341   26.5876 C.2     1  UNL1        0.2550
     32 C         -26.8131    7.2631   31.8299 C.2     1  UNL1       -0.0006
     33 C         -24.8150    7.8769   33.0357 C.2     1  UNL1        0.0070
     34 N         -24.3673    1.2374   27.1175 N.am    1  UNL1       -0.1761
     35 C         -24.4629    8.9081   34.0631 C.3     1  UNL1        0.1687
     36 C         -26.5316    5.9134   32.1257 C.2     1  UNL1       -0.0039
     37 C         -23.9381    2.2595   30.5062 C.3     1  UNL1        0.1225
     38 C         -21.7243    1.7631   27.4416 C.3     1  UNL1        0.1736
     39 N         -23.2442    2.1727   29.2145 N.am    1  UNL1       -0.2046
     40 C         -25.3087    5.5294   32.6776 C.2     1  UNL1       -0.0150
     41 O         -27.1481    3.1876   32.2006 O.2     1  UNL1       -0.2957
     42 C         -25.3262    2.0176   31.1646 C.3     1  UNL1        0.0810
     43 C         -25.8834    8.2277   32.1900 C.2     1  UNL1       -0.0019
     44 C         -22.3886    1.2727   28.7364 C.2     1  UNL1        0.2507
     45 C         -24.4355    6.5097   33.1590 C.2     1  UNL1       -0.0057
     46 O         -23.3206    9.3242   33.4928 O.3     1  UNL1       -0.3463
     47 C         -22.4927    8.5068   34.2094 C.3     1  UNL1        0.1746
     48 C         -24.9794    4.0405   32.7615 C.3     1  UNL1        0.0908
@<TRIPOS>BOND
     1     2     7    1
     2     2     1    1
     3     3     2    2
     4     4     3    1
     5     4     5    2
     6     5     6    1
     7     6     7    2
     8     8     1    1
     9     8     9    1
    10     8    12    1
    11     9    42    1
    12     9    10    1
    13    10    11    1
    14    12    11    1
    15    13    34    1
    16    14    13    1
    17    14    15    1
    18    15    18    2
    19    16    17    1
    20    16    15    1
    21    19    14    2
    22    20    21    2
    23    20    19    1
    24    21    26    1
    25    22    21    1
    26    23    22    1
    27    24    23    1
    28    24    25    1
    29    26    27    1
    30    26    13    2
    31    28    31    2
    32    30    41    2
    33    30    48    1
    34    31    34    1
    35    31    38    1
    36    32    36    2
    37    32    43    1
    38    33    45    1
    39    33    35    1
    40    36    40    1
    41    38    44    1
    42    39    37    1
    43    40    48    1
    44    40    45    2
    45    42    37    1
    46    42    30    1
    47    43    33    2
    48    44    29    2
    49    44    39    1
    50    46    35    1
    51    46    47    1
