@<TRIPOS>MOLECULE
outputs/IAG933/test6/raw/output_3476_IAG933_linker_design_.xyz
 44 48 0 0 0
SMALL
GASTEIGER

@<TRIPOS>ATOM
      1 C         -24.8550   -1.0120   30.1430 C.3     1  UNL1        0.0963
      2 C         -24.9730   -2.5050   29.7880 C.2     1  UNL1       -0.0064
      3 C         -23.9060   -3.1730   29.1460 C.2     1  UNL1       -0.0029
      4 C         -23.9890   -4.5490   28.8530 C.2     1  UNL1       -0.0003
      5 C         -25.1370   -5.2800   29.2050 C.2     1  UNL1       -0.0000
      6 C         -26.2320   -4.6110   29.7840 C.2     1  UNL1       -0.0003
      7 C         -26.1550   -3.2320   30.0650 C.2     1  UNL1       -0.0029
      8 C         -25.3870   -0.6790   31.5710 C.3     1  UNL1        0.0916
      9 C         -25.1890    0.7730   32.0280 C.3     1  UNL1        0.0206
     10 C         -25.3360    0.6840   33.5440 C.3     1  UNL1        0.0203
     11 C         -24.8290   -0.7150   33.9050 C.3     1  UNL1        0.0888
     12 N         -24.7580   -1.4810   32.6460 N.3     1  UNL1       -0.2178
     13 C         -25.6880    1.6140   26.4610 C.3     1  UNL1        0.0878
     14 C         -26.2500    2.9200   26.3950 C.2     1  UNL1        0.0562
     15 C         -25.6420    4.0930   27.1230 C.2     1  UNL1        0.2625
     16 N         -25.6140    5.2520   26.4490 N.am    1  UNL1       -0.2000
     17 C         -25.0260    6.4790   26.9630 C.3     1  UNL1        0.1388
     18 O         -25.1430    3.9660   28.2430 O.2     1  UNL1       -0.2687
     19 C         -27.4380    3.0910   25.6450 C.2     1  UNL1        0.1022
     20 N         -28.0750    2.0890   25.0030 N.2     1  UNL1       -0.2119
     21 C         -27.5430    0.8490   25.0790 C.2     1  UNL1        0.2341
     22 O         -28.1930   -0.2080   24.4770 O.2     1  UNL1       -0.4585
     23 C         -29.4600    0.0050   23.8660 C.3     1  UNL1        0.2423
     24 C         -30.0650   -1.3770   23.5730 C.3     1  UNL1        0.2292
     25 O         -30.7290   -1.8780   24.7210 O.3     1  UNL1       -0.2162
     26 C         -26.3540    0.5760   25.7770 C.3     1  UNL1        0.2414
     27 F         -25.8600   -0.6810   25.7950 F       1  UNL1       -0.2268
     28 C         -32.5135    1.0410   28.4665 C.2     1  UNL1       -0.0000
     29 N         -21.1700    1.3548   27.3557 N.am    1  UNL1       -0.0273
     30 N         -25.1173    0.1091   28.8958 N.3     1  UNL1       -0.2674
     31 C         -30.1586    1.1477   29.0331 C.2     1  UNL1       -0.0043
     32 O         -22.9010    2.1410   26.2027 O.3     1  UNL1       -0.1893
     33 C         -26.5815   -0.1742   28.3868 C.3     1  UNL1        0.0728
     34 C         -28.8657   -1.0284   29.0812 C.3     1  UNL1        0.0278
     35 C         -24.7540    1.3345   27.7298 C.3     1  UNL1        0.1050
     36 C         -22.2500    0.7860   27.9499 C.2     1  UNL1        0.3017
     37 C         -32.2129   -0.0218   27.5923 C.2     1  UNL1       -0.0003
     38 O         -22.2971    0.0343   29.0161 O.2     1  UNL1       -0.2681
     39 C         -29.9486   -0.1125   28.4796 C.2     1  UNL1       -0.0221
     40 O         -21.6027    2.1474   26.2685 O.3     1  UNL1       -0.0934
     41 C         -31.4584    1.6677   29.1490 C.2     1  UNL1       -0.0003
     42 C         -30.9313   -0.5884   27.6112 C.2     1  UNL1       -0.0043
     43 C         -27.4803   -0.4433   29.5348 C.3     1  UNL1        0.0220
     44 C         -23.2556    1.3507   27.2311 C.3     1  UNL1        0.2484
@<TRIPOS>BOND
     1     1    30    1
     2     2     7    1
     3     2     1    1
     4     3     2    2
     5     4     3    1
     6     4     5    2
     7     5     6    1
     8     6     7    2
     9     8     1    1
    10     8     9    1
    11     8    12    1
    12     9    10    1
    13    10    11    1
    14    12    11    1
    15    13    35    1
    16    14    13    1
    17    14    15    1
    18    15    18    2
    19    16    17    1
    20    16    15    1
    21    19    14    2
    22    20    21    2
    23    20    19    1
    24    21    26    1
    25    22    21    1
    26    23    22    1
    27    24    23    1
    28    24    25    1
    29    26    27    1
    30    26    13    1
    31    28    41    1
    32    29    36    1
    33    31    41    2
    34    32    40    1
    35    32    44    1
    36    33    30    1
    37    33    43    1
    38    34    43    1
    39    35    30    1
    40    36    38    2
    41    37    42    1
    42    37    28    2
    43    39    31    1
    44    39    34    1
    45    40    29    1
    46    42    39    2
    47    44    35    1
    48    44    36    1
