@<TRIPOS>MOLECULE
outputs/IAG933/test6/raw/output_3477_IAG933_linker_design_.xyz
 41 44 0 0 0
SMALL
GASTEIGER

@<TRIPOS>ATOM
      1 C         -24.8550   -1.0120   30.1430 C.3     1  UNL1        0.1152
      2 C         -24.9730   -2.5050   29.7880 C.2     1  UNL1       -0.0029
      3 C         -23.9060   -3.1730   29.1460 C.2     1  UNL1       -0.0026
      4 C         -23.9890   -4.5490   28.8530 C.2     1  UNL1       -0.0003
      5 C         -25.1370   -5.2800   29.2050 C.2     1  UNL1       -0.0000
      6 C         -26.2320   -4.6110   29.7840 C.2     1  UNL1       -0.0003
      7 C         -26.1550   -3.2320   30.0650 C.2     1  UNL1       -0.0026
      8 C         -25.3870   -0.6790   31.5710 C.3     1  UNL1        0.0952
      9 C         -25.1890    0.7730   32.0280 C.3     1  UNL1        0.0209
     10 C         -25.3360    0.6840   33.5440 C.3     1  UNL1        0.0203
     11 C         -24.8290   -0.7150   33.9050 C.3     1  UNL1        0.0888
     12 N         -24.7580   -1.4810   32.6460 N.3     1  UNL1       -0.2174
     13 C         -25.6880    1.6140   26.4610 C.2     1  UNL1        0.0175
     14 C         -26.2500    2.9200   26.3950 C.2     1  UNL1        0.0726
     15 C         -25.6420    4.0930   27.1230 C.2     1  UNL1        0.2661
     16 N         -25.6140    5.2520   26.4490 N.am    1  UNL1       -0.1997
     17 C         -25.0260    6.4790   26.9630 C.3     1  UNL1        0.1388
     18 O         -25.1430    3.9660   28.2430 O.2     1  UNL1       -0.2683
     19 C         -27.4380    3.0910   25.6450 C.2     1  UNL1        0.1064
     20 N         -28.0750    2.0890   25.0030 N.2     1  UNL1       -0.2081
     21 C         -27.5430    0.8490   25.0790 C.2     1  UNL1        0.2530
     22 O         -28.1930   -0.2080   24.4770 O.2     1  UNL1       -0.4558
     23 C         -29.4600    0.0050   23.8660 C.3     1  UNL1        0.2426
     24 C         -30.0650   -1.3770   23.5730 C.3     1  UNL1        0.2292
     25 O         -30.7290   -1.8780   24.7210 O.3     1  UNL1       -0.2162
     26 C         -26.3540    0.5760   25.7770 C.2     1  UNL1        0.1892
     27 F         -25.8600   -0.6810   25.7950 F       1  UNL1       -0.1996
     28 N         -27.5569   -0.5098   28.4720 N.am    1  UNL1       -0.1622
     29 N         -25.1909   -0.0091   29.1241 N.am    1  UNL1       -0.2604
     30 C         -22.6515    0.5382   28.6566 C.3     1  UNL1        0.0202
     31 C         -31.5778    0.7599   29.0101 C.2     1  UNL1        0.0001
     32 C         -24.1344    0.9835   28.5391 C.3     1  UNL1        0.0816
     33 C         -21.6728    1.3474   27.7462 C.3     1  UNL1        0.0018
     34 C         -26.5700    0.2801   28.9538 C.2     1  UNL1        0.3277
     35 C         -29.2878    1.2609   28.4117 C.2     1  UNL1        0.0166
     36 C         -28.8744   -0.0834   28.6246 C.2     1  UNL1        0.0749
     37 C         -31.1910   -0.5746   29.2191 C.2     1  UNL1        0.0013
     38 C         -29.8757   -0.9921   29.0028 C.2     1  UNL1        0.0166
     39 O         -26.8433    1.3576   29.5466 O.2     1  UNL1       -0.2504
     40 C         -24.2994    1.3844   27.0506 C.3     1  UNL1        0.0488
     41 C         -30.6118    1.6862   28.5951 C.2     1  UNL1        0.0013
@<TRIPOS>BOND
     1     1    29    1
     2     2     7    1
     3     2     1    1
     4     3     2    2
     5     4     3    1
     6     4     5    2
     7     5     6    1
     8     6     7    2
     9     8     1    1
    10     8     9    1
    11     8    12    1
    12     9    10    1
    13    10    11    1
    14    12    11    1
    15    13    40    1
    16    14    13    1
    17    14    15    1
    18    15    18    2
    19    16    17    1
    20    16    15    1
    21    19    14    2
    22    20    21    2
    23    20    19    1
    24    21    26    1
    25    22    21    1
    26    23    22    1
    27    24    23    1
    28    24    25    1
    29    26    27    1
    30    26    13    2
    31    28    36    1
    32    28    34    1
    33    31    37    1
    34    32    40    1
    35    32    30    1
    36    32    29    1
    37    33    30    1
    38    34    29   am
    39    34    39    2
    40    35    41    1
    41    35    36    2
    42    36    38    1
    43    38    37    2
    44    41    31    2
