@<TRIPOS>MOLECULE
No_3478-gen_results/8p0m/2024-11-27-11-27-31/
 10 10 0 0 0
SMALL
GASTEIGER

@<TRIPOS>ATOM
      1 BR        -28.1146   -0.6256   29.0813 Br      1  UNL1       -0.0769
      2 C         -26.9268    0.4545   28.6846 C.3     1  UNL1        0.0792
      3 C         -25.8457    0.7043   29.3312 C.ar    1  UNL1       -0.0119
      4 C         -25.6532    0.3574   30.5121 C.ar    1  UNL1       -0.0034
      5 C         -24.4676    0.7780   31.2460 C.ar    1  UNL1       -0.0003
      6 C         -23.4749    1.4217   30.5580 C.ar    1  UNL1       -0.0000
      7 C         -23.5853    1.7502   29.2564 C.ar    1  UNL1       -0.0003
      8 C         -24.7668    1.3750   28.6418 C.ar    1  UNL1       -0.0034
      9 C         -27.1583    1.0532   27.2892 C.3     1  UNL1        0.0158
     10 C         -27.9882    1.7682   27.0289 C.3     1  UNL1        0.0013
@<TRIPOS>BOND
     1     1     2    1
     2     2     3    1
     3     2     9    1
     4     9    10    1
     5     3     4   ar
     6     4     5   ar
     7     5     6   ar
     8     6     7   ar
     9     7     8   ar
    10     8     3   ar
