@<TRIPOS>MOLECULE
outputs/IAG933/test6/raw/output_3479_IAG933_linker_design_.xyz
 42 46 0 0 0
SMALL
GASTEIGER

@<TRIPOS>ATOM
      1 C         -24.8550   -1.0120   30.1430 C.3     1  UNL1        0.1211
      2 C         -24.9730   -2.5050   29.7880 C.2     1  UNL1       -0.0025
      3 C         -23.9060   -3.1730   29.1460 C.2     1  UNL1       -0.0026
      4 C         -23.9890   -4.5490   28.8530 C.2     1  UNL1       -0.0003
      5 C         -25.1370   -5.2800   29.2050 C.2     1  UNL1       -0.0000
      6 C         -26.2320   -4.6110   29.7840 C.2     1  UNL1       -0.0003
      7 C         -26.1550   -3.2320   30.0650 C.2     1  UNL1       -0.0026
      8 C         -25.3870   -0.6790   31.5710 C.3     1  UNL1        0.0956
      9 C         -25.1890    0.7730   32.0280 C.3     1  UNL1        0.0209
     10 C         -25.3360    0.6840   33.5440 C.3     1  UNL1        0.0203
     11 C         -24.8290   -0.7150   33.9050 C.3     1  UNL1        0.0888
     12 N         -24.7580   -1.4810   32.6460 N.3     1  UNL1       -0.2174
     13 C         -25.6880    1.6140   26.4610 C.2     1  UNL1        0.0390
     14 C         -26.2500    2.9200   26.3950 C.2     1  UNL1        0.0766
     15 C         -25.6420    4.0930   27.1230 C.2     1  UNL1        0.2664
     16 N         -25.6140    5.2520   26.4490 N.am    1  UNL1       -0.1997
     17 C         -25.0260    6.4790   26.9630 C.3     1  UNL1        0.1388
     18 O         -25.1430    3.9660   28.2430 O.2     1  UNL1       -0.2683
     19 C         -27.4380    3.0910   25.6450 C.2     1  UNL1        0.1067
     20 N         -28.0750    2.0890   25.0030 N.2     1  UNL1       -0.2081
     21 C         -27.5430    0.8490   25.0790 C.2     1  UNL1        0.2533
     22 O         -28.1930   -0.2080   24.4770 O.2     1  UNL1       -0.4558
     23 C         -29.4600    0.0050   23.8660 C.3     1  UNL1        0.2426
     24 C         -30.0650   -1.3770   23.5730 C.3     1  UNL1        0.2292
     25 O         -30.7290   -1.8780   24.7210 O.3     1  UNL1       -0.2162
     26 C         -26.3540    0.5760   25.7770 C.2     1  UNL1        0.1931
     27 F         -25.8600   -0.6810   25.7950 F       1  UNL1       -0.1992
     28 C         -22.0901   -0.1990   29.7303 C.3     1  UNL1        0.1782
     29 O         -22.6582   -0.7951   28.6662 O.3     1  UNL1       -0.3447
     30 C         -22.2902    1.1549   27.6480 C.3     1  UNL1        0.2197
     31 C         -24.3219    0.5583   28.2776 C.2     1  UNL1        0.0644
     32 N         -25.2509    0.0937   29.2159 N.am    1  UNL1       -0.2198
     33 C         -26.6769    0.3570   28.9932 C.2     1  UNL1        0.4510
     34 F         -22.9230    2.1491   24.4280 F       1  UNL1       -0.1723
     35 C         -23.0329    1.5321   26.6460 C.2     1  UNL1        0.0696
     36 C         -24.3642    1.2166   27.0438 C.2     1  UNL1        0.0177
     37 F         -20.9940    1.4258   27.9443 F       1  UNL1       -0.2292
     38 C         -22.9489    0.3671   28.5431 C.3     1  UNL1        0.1849
     39 O         -27.4626   -0.3947   28.5252 O.co2   1  UNL1       -0.2220
     40 O         -26.8681    1.6419   29.1237 O.co2   1  UNL1       -0.2220
     41 C         -22.4140    1.9818   25.5167 C.2     1  UNL1        0.2774
     42 F         -21.2109    2.1665   25.4712 F       1  UNL1       -0.1723
@<TRIPOS>BOND
     1     1    32    1
     2     2     7    1
     3     2     1    1
     4     3     2    2
     5     4     3    1
     6     4     5    2
     7     5     6    1
     8     6     7    2
     9     8     1    1
    10     8     9    1
    11     8    12    1
    12     9    10    1
    13    10    11    1
    14    12    11    1
    15    13    36    1
    16    14    13    1
    17    14    15    1
    18    15    18    2
    19    16    17    1
    20    16    15    1
    21    19    14    2
    22    20    21    2
    23    20    19    1
    24    21    26    1
    25    22    21    1
    26    23    22    1
    27    24    23    1
    28    24    25    1
    29    26    27    1
    30    26    13    2
    31    29    28    1
    32    30    37    1
    33    30    38    1
    34    31    38    1
    35    31    32    1
    36    33    40   ar
    37    33    32   am
    38    34    41    1
    39    35    36    1
    40    35    30    1
    41    36    31    2
    42    38    29    1
    43    38    28    1
    44    39    33   ar
    45    41    35    2
    46    42    41    1
