@<TRIPOS>MOLECULE
outputs/IAG933/test6/raw/output_348_IAG933_linker_design_.xyz
 46 50 0 0 0
SMALL
GASTEIGER

@<TRIPOS>ATOM
      1 C         -24.8550   -1.0120   30.1430 C.3     1  UNL1        0.0658
      2 C         -24.9730   -2.5050   29.7880 C.2     1  UNL1       -0.0188
      3 C         -23.9060   -3.1730   29.1460 C.2     1  UNL1       -0.0042
      4 C         -23.9890   -4.5490   28.8530 C.2     1  UNL1       -0.0003
      5 C         -25.1370   -5.2800   29.2050 C.2     1  UNL1       -0.0000
      6 C         -26.2320   -4.6110   29.7840 C.2     1  UNL1       -0.0003
      7 C         -26.1550   -3.2320   30.0650 C.2     1  UNL1       -0.0042
      8 C         -25.3870   -0.6790   31.5710 C.3     1  UNL1        0.0792
      9 C         -25.1890    0.7730   32.0280 C.3     1  UNL1        0.0193
     10 C         -25.3360    0.6840   33.5440 C.3     1  UNL1        0.0202
     11 C         -24.8290   -0.7150   33.9050 C.3     1  UNL1        0.0887
     12 N         -24.7580   -1.4810   32.6460 N.3     1  UNL1       -0.2190
     13 C         -25.6880    1.6140   26.4610 C.3     1  UNL1        0.0919
     14 C         -26.2500    2.9200   26.3950 C.2     1  UNL1        0.0589
     15 C         -25.6420    4.0930   27.1230 C.2     1  UNL1        0.2628
     16 N         -25.6140    5.2520   26.4490 N.am    1  UNL1       -0.2000
     17 C         -25.0260    6.4790   26.9630 C.3     1  UNL1        0.1388
     18 O         -25.1430    3.9660   28.2430 O.2     1  UNL1       -0.2686
     19 C         -27.4380    3.0910   25.6450 C.2     1  UNL1        0.1025
     20 N         -28.0750    2.0890   25.0030 N.2     1  UNL1       -0.2118
     21 C         -27.5430    0.8490   25.0790 C.2     1  UNL1        0.2344
     22 O         -28.1930   -0.2080   24.4770 O.2     1  UNL1       -0.4585
     23 C         -29.4600    0.0050   23.8660 C.3     1  UNL1        0.2423
     24 C         -30.0650   -1.3770   23.5730 C.3     1  UNL1        0.2292
     25 O         -30.7290   -1.8780   24.7210 O.3     1  UNL1       -0.2162
     26 C         -26.3540    0.5760   25.7770 C.3     1  UNL1        0.2440
     27 F         -25.8600   -0.6810   25.7950 F       1  UNL1       -0.2265
     28 C         -23.2364    2.1666   25.5704 C.2     1  UNL1        0.0166
     29 C         -28.3576   -1.0926   29.1105 C.3     1  UNL1        0.1011
     30 O         -21.2427    1.8422   27.0309 O.2     1  UNL1       -0.4679
     31 C         -28.6301    1.1454   31.2690 C.2     1  UNL1        0.0028
     32 C         -29.6246   -0.4876   29.6755 C.2     1  UNL1        0.1756
     33 C         -30.2735    3.2198   30.3420 C.2     1  UNL1        0.0001
     34 C         -28.4088    2.4454   31.6661 C.2     1  UNL1        0.0001
     35 C         -29.2514    3.4832   31.2466 C.2     1  UNL1        0.0000
     36 C         -23.5024    1.3553   27.8287 C.2     1  UNL1        0.0135
     37 O         -26.2088   -0.6746   28.4100 O.3     1  UNL1       -0.3551
     38 C         -25.1878   -0.0468   28.9759 C.3     1  UNL1        0.1250
     39 C         -21.8375    2.2359   25.8384 C.3     1  UNL1        0.2316
     40 C         -24.0894    1.6629   26.5779 C.2     1  UNL1       -0.0166
     41 C         -30.4138    1.9073   29.8627 C.2     1  UNL1        0.0028
     42 C         -29.5759    0.8694   30.2929 C.2     1  UNL1        0.0348
     43 C         -24.3217    0.9931   28.9438 C.3     1  UNL1        0.0591
     44 O         -30.6664   -1.1207   29.6986 O.2     1  UNL1       -0.2913
     45 C         -22.0431    1.3714   28.0070 C.2     1  UNL1        0.1681
     46 C         -27.5092   -0.0093   28.3991 C.3     1  UNL1        0.1502
@<TRIPOS>BOND
     1     1    38    1
     2     2     7    1
     3     2     1    1
     4     3     2    2
     5     4     3    1
     6     4     5    2
     7     5     6    1
     8     6     7    2
     9     8     1    1
    10     8     9    1
    11     8    12    1
    12     9    10    1
    13    10    11    1
    14    12    11    1
    15    13    40    1
    16    14    13    1
    17    14    15    1
    18    15    18    2
    19    16    17    1
    20    16    15    1
    21    19    14    2
    22    20    21    2
    23    20    19    1
    24    21    26    1
    25    22    21    1
    26    23    22    1
    27    24    23    1
    28    24    25    1
    29    26    27    1
    30    26    13    1
    31    28    39    1
    32    28    40    2
    33    29    32    1
    34    30    45    1
    35    31    34    1
    36    32    44    2
    37    32    42    1
    38    33    35    1
    39    35    34    2
    40    36    45    2
    41    36    43    1
    42    37    38    1
    43    38    43    1
    44    39    30    1
    45    40    36    1
    46    41    42    1
    47    41    33    2
    48    42    31    2
    49    46    37    1
    50    46    29    1
