@<TRIPOS>MOLECULE
outputs/IAG933/test6/raw/output_3481_IAG933_linker_design_.xyz
 41 44 0 0 0
SMALL
GASTEIGER

@<TRIPOS>ATOM
      1 C         -24.8550   -1.0120   30.1430 C.3     1  UNL1        0.1226
      2 C         -24.9730   -2.5050   29.7880 C.2     1  UNL1       -0.0024
      3 C         -23.9060   -3.1730   29.1460 C.2     1  UNL1       -0.0026
      4 C         -23.9890   -4.5490   28.8530 C.2     1  UNL1       -0.0003
      5 C         -25.1370   -5.2800   29.2050 C.2     1  UNL1       -0.0000
      6 C         -26.2320   -4.6110   29.7840 C.2     1  UNL1       -0.0003
      7 C         -26.1550   -3.2320   30.0650 C.2     1  UNL1       -0.0026
      8 C         -25.3870   -0.6790   31.5710 C.3     1  UNL1        0.0956
      9 C         -25.1890    0.7730   32.0280 C.3     1  UNL1        0.0209
     10 C         -25.3360    0.6840   33.5440 C.3     1  UNL1        0.0203
     11 C         -24.8290   -0.7150   33.9050 C.3     1  UNL1        0.0888
     12 N         -24.7580   -1.4810   32.6460 N.3     1  UNL1       -0.2174
     13 C         -25.6880    1.6140   26.4610 C.3     1  UNL1        0.1513
     14 C         -26.2500    2.9200   26.3950 C.2     1  UNL1        0.0735
     15 C         -25.6420    4.0930   27.1230 C.2     1  UNL1        0.2640
     16 N         -25.6140    5.2520   26.4490 N.am    1  UNL1       -0.1999
     17 C         -25.0260    6.4790   26.9630 C.3     1  UNL1        0.1388
     18 O         -25.1430    3.9660   28.2430 O.2     1  UNL1       -0.2686
     19 C         -27.4380    3.0910   25.6450 C.2     1  UNL1        0.1038
     20 N         -28.0750    2.0890   25.0030 N.2     1  UNL1       -0.2118
     21 C         -27.5430    0.8490   25.0790 C.2     1  UNL1        0.2359
     22 O         -28.1930   -0.2080   24.4770 O.2     1  UNL1       -0.4585
     23 C         -29.4600    0.0050   23.8660 C.3     1  UNL1        0.2423
     24 C         -30.0650   -1.3770   23.5730 C.3     1  UNL1        0.2292
     25 O         -30.7290   -1.8780   24.7210 O.3     1  UNL1       -0.2162
     26 C         -26.3540    0.5760   25.7770 C.3     1  UNL1        0.2585
     27 F         -25.8600   -0.6810   25.7950 F       1  UNL1       -0.2250
     28 C         -23.0066    1.6431   26.2052 C.2     1  UNL1        0.1560
     29 C         -24.7731    1.7390   29.9055 C.2     1  UNL1        0.3105
     30 C         -21.7054    2.1873   26.3247 C.2     1  UNL1        0.0311
     31 O         -25.5065    2.6900   29.9664 O.2     1  UNL1       -0.2644
     32 C         -21.4324    1.1291   28.5028 C.2     1  UNL1        0.0311
     33 O         -26.9296    0.0088   28.3225 O.2     1  UNL1       -0.2516
     34 C         -25.7545    0.4519   28.5494 C.2     1  UNL1        0.3177
     35 N         -25.1006    0.3324   29.5749 N.am    1  UNL1       -0.2029
     36 F         -22.6293   -0.7904   28.7938 F       1  UNL1       -0.2028
     37 C         -23.5810    1.0132   27.3658 C.2     1  UNL1        0.1106
     38 C         -20.9787    2.0022   27.5003 C.2     1  UNL1        0.0047
     39 F         -23.6605    1.7087   25.0274 F       1  UNL1       -0.2028
     40 C         -22.5874    0.4007   28.3138 C.2     1  UNL1        0.1560
     41 N         -25.0120    1.0859   27.5183 N.am    1  UNL1       -0.2329
@<TRIPOS>BOND
     1     1    35    1
     2     2     7    1
     3     2     1    1
     4     3     2    2
     5     4     3    1
     6     4     5    2
     7     5     6    1
     8     6     7    2
     9     8     1    1
    10     8     9    1
    11     8    12    1
    12     9    10    1
    13    10    11    1
    14    12    11    1
    15    13    41    1
    16    14    13    1
    17    14    15    1
    18    15    18    2
    19    16    17    1
    20    16    15    1
    21    19    14    2
    22    20    21    2
    23    20    19    1
    24    21    26    1
    25    22    21    1
    26    23    22    1
    27    24    23    1
    28    24    25    1
    29    26    27    1
    30    26    13    1
    31    28    30    2
    32    28    37    1
    33    29    31    2
    34    30    38    1
    35    33    34    2
    36    34    35   am
    37    35    29   am
    38    37    41    1
    39    37    40    2
    40    38    32    2
    41    39    28    1
    42    40    32    1
    43    40    36    1
    44    41    34   am
