@<TRIPOS>MOLECULE
outputs/IAG933/test6/raw/output_3482_IAG933_linker_design_.xyz
 44 48 0 0 0
SMALL
GASTEIGER

@<TRIPOS>ATOM
      1 C         -24.8550   -1.0120   30.1430 C.3     1  UNL1        0.0896
      2 C         -24.9730   -2.5050   29.7880 C.2     1  UNL1       -0.0168
      3 C         -23.9060   -3.1730   29.1460 C.2     1  UNL1       -0.0041
      4 C         -23.9890   -4.5490   28.8530 C.2     1  UNL1       -0.0003
      5 C         -25.1370   -5.2800   29.2050 C.2     1  UNL1       -0.0000
      6 C         -26.2320   -4.6110   29.7840 C.2     1  UNL1       -0.0003
      7 C         -26.1550   -3.2320   30.0650 C.2     1  UNL1       -0.0041
      8 C         -25.3870   -0.6790   31.5710 C.3     1  UNL1        0.0812
      9 C         -25.1890    0.7730   32.0280 C.3     1  UNL1        0.0193
     10 C         -25.3360    0.6840   33.5440 C.3     1  UNL1        0.0202
     11 C         -24.8290   -0.7150   33.9050 C.3     1  UNL1        0.0887
     12 N         -24.7580   -1.4810   32.6460 N.3     1  UNL1       -0.2190
     13 C         -25.6880    1.6140   26.4610 C.2     1  UNL1        0.0401
     14 C         -26.2500    2.9200   26.3950 C.2     1  UNL1        0.0766
     15 C         -25.6420    4.0930   27.1230 C.2     1  UNL1        0.2664
     16 N         -25.6140    5.2520   26.4490 N.am    1  UNL1       -0.1997
     17 C         -25.0260    6.4790   26.9630 C.3     1  UNL1        0.1388
     18 O         -25.1430    3.9660   28.2430 O.2     1  UNL1       -0.2683
     19 C         -27.4380    3.0910   25.6450 C.2     1  UNL1        0.1067
     20 N         -28.0750    2.0890   25.0030 N.2     1  UNL1       -0.2081
     21 C         -27.5430    0.8490   25.0790 C.2     1  UNL1        0.2533
     22 O         -28.1930   -0.2080   24.4770 O.2     1  UNL1       -0.4558
     23 C         -29.4600    0.0050   23.8660 C.3     1  UNL1        0.2426
     24 C         -30.0650   -1.3770   23.5730 C.3     1  UNL1        0.2292
     25 O         -30.7290   -1.8780   24.7210 O.3     1  UNL1       -0.2162
     26 C         -26.3540    0.5760   25.7770 C.2     1  UNL1        0.1931
     27 F         -25.8600   -0.6810   25.7950 F       1  UNL1       -0.1992
     28 C         -29.1077    2.0683   29.0518 C.2     1  UNL1        0.0984
     29 C         -27.8114    2.4952   29.3777 C.2     1  UNL1        0.4188
     30 C         -23.9693    0.8488   28.2786 C.2     1  UNL1        0.0267
     31 C         -28.2402   -0.0211   28.1303 C.2     1  UNL1        0.0935
     32 C         -23.3064    2.1064   26.2692 C.2     1  UNL1        0.1672
     33 F         -23.4257    2.8524   25.1936 F       1  UNL1       -0.2018
     34 N         -25.9832   -0.3680   28.3728 N.pl3   1  UNL1       -0.0305
     35 C         -21.7096    1.3764   27.8405 C.2     1  UNL1        0.0318
     36 F         -21.1180    1.9684   25.5926 F       1  UNL1       -0.2018
     37 C         -24.3060    1.5226   27.0618 C.2     1  UNL1        0.0321
     38 N         -26.7942    1.6482   29.1221 N.2     1  UNL1        0.0117
     39 C         -24.8604    0.0190   29.1429 C.3     1  UNL1        0.2325
     40 C         -22.6702    0.9342   28.7218 C.2     1  UNL1        0.0022
     41 C         -22.0530    1.8512   26.5870 C.2     1  UNL1        0.1674
     42 N         -27.5877    3.8057   30.0289 N.pl3   1  UNL1        0.2164
     43 C         -26.9744    0.4253   28.5365 C.2     1  UNL1        0.3657
     44 C         -29.3112    0.8431   28.4091 C.2     1  UNL1        0.0157
@<TRIPOS>BOND
     1     1    39    1
     2     2     7    1
     3     2     1    1
     4     3     2    2
     5     4     3    1
     6     4     5    2
     7     5     6    1
     8     6     7    2
     9     8     1    1
    10     8     9    1
    11     8    12    1
    12     9    10    1
    13    10    11    1
    14    12    11    1
    15    13    37    1
    16    14    13    1
    17    14    15    1
    18    15    18    2
    19    16    17    1
    20    16    15    1
    21    19    14    2
    22    20    21    2
    23    20    19    1
    24    21    26    1
    25    22    21    1
    26    23    22    1
    27    24    23    1
    28    24    25    1
    29    26    27    1
    30    26    13    2
    31    28    29    2
    32    29    42    1
    33    30    40    1
    34    30    39    1
    35    31    44    2
    36    31    43    1
    37    32    41    2
    38    32    37    1
    39    33    32    1
    40    34    43    1
    41    35    40    2
    42    36    41    1
    43    37    30    2
    44    38    29    1
    45    39    34    1
    46    41    35    1
    47    43    38    2
    48    44    28    1
