@<TRIPOS>MOLECULE
outputs/IAG933/test6/raw/output_3483_IAG933_linker_design_.xyz
 44 48 0 0 0
SMALL
GASTEIGER

@<TRIPOS>ATOM
      1 C         -24.8550   -1.0120   30.1430 C.3     1  UNL1        0.0867
      2 C         -24.9730   -2.5050   29.7880 C.2     1  UNL1       -0.0170
      3 C         -23.9060   -3.1730   29.1460 C.2     1  UNL1       -0.0041
      4 C         -23.9890   -4.5490   28.8530 C.2     1  UNL1       -0.0003
      5 C         -25.1370   -5.2800   29.2050 C.2     1  UNL1       -0.0000
      6 C         -26.2320   -4.6110   29.7840 C.2     1  UNL1       -0.0003
      7 C         -26.1550   -3.2320   30.0650 C.2     1  UNL1       -0.0041
      8 C         -25.3870   -0.6790   31.5710 C.3     1  UNL1        0.0809
      9 C         -25.1890    0.7730   32.0280 C.3     1  UNL1        0.0193
     10 C         -25.3360    0.6840   33.5440 C.3     1  UNL1        0.0202
     11 C         -24.8290   -0.7150   33.9050 C.3     1  UNL1        0.0887
     12 N         -24.7580   -1.4810   32.6460 N.3     1  UNL1       -0.2190
     13 C         -25.6880    1.6140   26.4610 C.2     1  UNL1        0.0428
     14 C         -26.2500    2.9200   26.3950 C.2     1  UNL1        0.0767
     15 C         -25.6420    4.0930   27.1230 C.2     1  UNL1        0.2664
     16 N         -25.6140    5.2520   26.4490 N.am    1  UNL1       -0.1997
     17 C         -25.0260    6.4790   26.9630 C.3     1  UNL1        0.1388
     18 O         -25.1430    3.9660   28.2430 O.2     1  UNL1       -0.2683
     19 C         -27.4380    3.0910   25.6450 C.2     1  UNL1        0.1067
     20 N         -28.0750    2.0890   25.0030 N.2     1  UNL1       -0.2081
     21 C         -27.5430    0.8490   25.0790 C.2     1  UNL1        0.2533
     22 O         -28.1930   -0.2080   24.4770 O.2     1  UNL1       -0.4558
     23 C         -29.4600    0.0050   23.8660 C.3     1  UNL1        0.2426
     24 C         -30.0650   -1.3770   23.5730 C.3     1  UNL1        0.2292
     25 O         -30.7290   -1.8780   24.7210 O.3     1  UNL1       -0.2162
     26 C         -26.3540    0.5760   25.7770 C.2     1  UNL1        0.1932
     27 F         -25.8600   -0.6810   25.7950 F       1  UNL1       -0.1992
     28 N         -25.2612   -0.1205   28.0350 N.pl3   1  UNL1       -0.1771
     29 O         -27.1693   -1.0725   28.7560 O.3     1  UNL1       -0.3274
     30 C         -22.3338    2.0715   25.7804 C.2     1  UNL1        0.3932
     31 O         -21.1517    1.9003   25.5991 O.co2   1  UNL1       -0.2403
     32 C         -26.0595   -0.2634   29.1978 C.3     1  UNL1        0.2172
     33 F         -20.9091    0.9622   27.8151 F       1  UNL1       -0.1626
     34 C         -28.9541    0.3148   27.9478 C.3     1  UNL1        0.0419
     35 S         -28.5160    0.6061   30.6150 S.3     1  UNL1       -0.1119
     36 C         -29.4995    1.8735   29.7778 C.3     1  UNL1        0.0600
     37 C         -23.0775    1.5391   26.7492 C.ar    1  UNL1        0.1476
     38 C         -22.3047    0.8266   27.7992 C.ar    1  UNL1        0.2953
     39 C         -24.3595    0.2493   28.0417 C.ar    1  UNL1        0.2198
     40 O         -23.0589    0.0381   28.4683 O.2     1  UNL1       -0.4134
     41 C         -30.0483    1.2064   28.5173 C.3     1  UNL1        0.0151
     42 C         -28.4233   -0.4692   29.1321 C.3     1  UNL1        0.1644
     43 C         -24.4183    1.2640   27.0603 C.ar    1  UNL1        0.0651
     44 O         -23.0020    2.8067   25.0634 O.co2   1  UNL1       -0.2403
@<TRIPOS>BOND
     1     1    32    1
     2     2     7    1
     3     2     1    1
     4     3     2    2
     5     4     3    1
     6     4     5    2
     7     5     6    1
     8     6     7    2
     9     8     1    1
    10     8     9    1
    11     8    12    1
    12     9    10    1
    13    10    11    1
    14    12    11    1
    15    13    43    1
    16    14    13    1
    17    14    15    1
    18    15    18    2
    19    16    17    1
    20    16    15    1
    21    19    14    2
    22    20    21    2
    23    20    19    1
    24    21    26    1
    25    22    21    1
    26    23    22    1
    27    24    23    1
    28    24    25    1
    29    26    27    1
    30    26    13    2
    31    28    39    1
    32    29    32    1
    33    30    37    1
    34    31    30   ar
    35    32    28    1
    36    34    41    1
    37    34    42    1
    38    36    35    1
    39    37    43   ar
    40    37    38   ar
    41    38    33    1
    42    38    40   ar
    43    39    40   ar
    44    41    36    1
    45    42    29    1
    46    42    35    1
    47    43    39   ar
    48    44    30   ar
