@<TRIPOS>MOLECULE
outputs/IAG933/test6/raw/output_3485_IAG933_linker_design_.xyz
 44 48 0 0 0
SMALL
GASTEIGER

@<TRIPOS>ATOM
      1 C         -24.8550   -1.0120   30.1430 C.3     1  UNL1        0.0963
      2 C         -24.9730   -2.5050   29.7880 C.2     1  UNL1       -0.0064
      3 C         -23.9060   -3.1730   29.1460 C.2     1  UNL1       -0.0029
      4 C         -23.9890   -4.5490   28.8530 C.2     1  UNL1       -0.0003
      5 C         -25.1370   -5.2800   29.2050 C.2     1  UNL1       -0.0000
      6 C         -26.2320   -4.6110   29.7840 C.2     1  UNL1       -0.0003
      7 C         -26.1550   -3.2320   30.0650 C.2     1  UNL1       -0.0029
      8 C         -25.3870   -0.6790   31.5710 C.3     1  UNL1        0.0916
      9 C         -25.1890    0.7730   32.0280 C.3     1  UNL1        0.0206
     10 C         -25.3360    0.6840   33.5440 C.3     1  UNL1        0.0203
     11 C         -24.8290   -0.7150   33.9050 C.3     1  UNL1        0.0888
     12 N         -24.7580   -1.4810   32.6460 N.3     1  UNL1       -0.2178
     13 C         -25.6880    1.6140   26.4610 C.3     1  UNL1        0.0998
     14 C         -26.2500    2.9200   26.3950 C.2     1  UNL1        0.0552
     15 C         -25.6420    4.0930   27.1230 C.2     1  UNL1        0.2224
     16 N         -25.6140    5.2520   26.4490 N.2     1  UNL1       -0.2358
     17 C         -25.0260    6.4790   26.9630 C.3     1  UNL1        0.1550
     18 O         -25.1430    3.9660   28.2430 O.2     1  UNL1       -0.4140
     19 C         -27.4380    3.0910   25.6450 C.2     1  UNL1        0.1023
     20 N         -28.0750    2.0890   25.0030 N.2     1  UNL1       -0.2119
     21 C         -27.5430    0.8490   25.0790 C.2     1  UNL1        0.2342
     22 O         -28.1930   -0.2080   24.4770 O.2     1  UNL1       -0.4585
     23 C         -29.4600    0.0050   23.8660 C.3     1  UNL1        0.2423
     24 C         -30.0650   -1.3770   23.5730 C.3     1  UNL1        0.2292
     25 O         -30.7290   -1.8780   24.7210 O.3     1  UNL1       -0.2162
     26 C         -26.3540    0.5760   25.7770 C.3     1  UNL1        0.2424
     27 F         -25.8600   -0.6810   25.7950 F       1  UNL1       -0.2268
     28 O         -24.1463    2.1608   29.2352 O.3     1  UNL1       -0.2961
     29 O         -27.8367    3.5351   29.7092 O.3     1  UNL1       -0.2160
     30 O         -23.4657    0.8150   25.7998 O.3     1  UNL1       -0.3264
     31 C         -25.1891    3.2653   29.3723 C.3     1  UNL1        0.4339
     32 C         -21.4292    1.4849   27.0209 C.3     1  UNL1        0.0708
     33 C         -22.7300    0.1360   29.4629 C.3     1  UNL1        0.0750
     34 C         -26.3250    3.8156   31.2926 C.3     1  UNL1        0.2449
     35 C         -25.2786   -0.0348   28.2741 C.3     1  UNL1        0.0899
     36 F         -22.4133    2.8619   25.4028 F       1  UNL1       -0.2040
     37 C         -22.2399    1.4597   25.8000 C.3     1  UNL1        0.2785
     38 C         -24.4310    1.4260   26.8259 C.3     1  UNL1        0.1525
     39 C         -23.5768    1.8163   27.9686 C.3     1  UNL1        0.1502
     40 N         -24.1569   -0.2320   29.2203 N.3     1  UNL1       -0.2679
     41 C         -22.3313    0.9751   28.1685 C.3     1  UNL1        0.0512
     42 C         -27.6330    4.3978   30.7958 C.3     1  UNL1        0.2315
     43 N         -26.0036    4.0934   32.6886 N.3     1  UNL1       -0.0971
     44 O         -25.1640    3.9924   30.5006 O.3     1  UNL1       -0.2774
@<TRIPOS>BOND
     1     1    40    1
     2     2     7    1
     3     2     1    1
     4     3     2    2
     5     4     3    1
     6     4     5    2
     7     5     6    1
     8     6     7    2
     9     8     1    1
    10     8     9    1
    11     8    12    1
    12     9    10    1
    13    10    11    1
    14    12    11    1
    15    13    14    1
    16    13    38    1
    17    14    15    1
    18    15    18    1
    19    16    17    1
    20    16    15    2
    21    18    31    1
    22    19    14    2
    23    20    21    2
    24    20    19    1
    25    21    26    1
    26    22    21    1
    27    23    22    1
    28    24    23    1
    29    24    25    1
    30    26    27    1
    31    26    13    1
    32    28    31    1
    33    29    42    1
    34    30    37    1
    35    31    44    1
    36    32    41    1
    37    34    43    1
    38    35    40    1
    39    37    36    1
    40    37    32    1
    41    38    30    1
    42    38    39    1
    43    39    41    1
    44    39    28    1
    45    40    33    1
    46    41    33    1
    47    42    34    1
    48    44    34    1
