@<TRIPOS>MOLECULE
No_3492-gen_results/8p0m/2024-11-27-11-27-31/
 14 16 0 0 0
SMALL
GASTEIGER

@<TRIPOS>ATOM
      1 C         -28.0162   -0.8135   28.8779 C.ar    1  UNL1        0.0000
      2 C         -27.0636   -0.1189   28.6079 C.ar    1  UNL1        0.0000
      3 C         -25.7923   -0.4302   29.0761 C.ar    1  UNL1        0.0001
      4 C         -24.5456    0.3494   28.8225 C.ar    1  UNL1        0.0030
      5 C         -24.6586    1.4196   27.8878 C.ar    1  UNL1        0.0192
      6 C         -25.9471    1.6811   27.3792 C.ar    1  UNL1        0.0015
      7 C         -27.0439    0.9739   27.6871 C.ar    1  UNL1        0.0000
      8 C         -28.0241   -1.6475   30.1262 C.ar    1  UNL1        0.0000
      9 C         -26.7278   -2.0846   30.5807 C.ar    1  UNL1        0.0000
     10 C         -25.5915   -1.4064   30.1489 C.ar    1  UNL1        0.0000
     11 C         -23.4497    2.1789   27.5290 C.ar    1  UNL1        0.0988
     12 N         -22.2631    1.7552   27.9330 N.ar    1  UNL1       -0.2423
     13 C         -22.1341    0.7201   28.7997 C.ar    1  UNL1        0.0989
     14 C         -23.2386   -0.0598   29.2048 C.ar    1  UNL1        0.0207
@<TRIPOS>BOND
     1     3     4   ar
     2     5     6   ar
     3     6     7   ar
     4     7     2   ar
     5     4     5   ar
     6     5    11   ar
     7    11    12   ar
     8    12    13   ar
     9    13    14   ar
    10    14     4   ar
    11     1     2   ar
    12     2     3   ar
    13     3    10   ar
    14    10     9   ar
    15     9     8   ar
    16     8     1   ar
