@<TRIPOS>MOLECULE
outputs/IAG933/test6/raw/output_3493_IAG933_linker_design_.xyz
 47 51 0 0 0
SMALL
GASTEIGER

@<TRIPOS>ATOM
      1 C         -24.8550   -1.0120   30.1430 C.3     1  UNL1        0.0626
      2 C         -24.9730   -2.5050   29.7880 C.2     1  UNL1       -0.0191
      3 C         -23.9060   -3.1730   29.1460 C.2     1  UNL1       -0.0042
      4 C         -23.9890   -4.5490   28.8530 C.2     1  UNL1       -0.0003
      5 C         -25.1370   -5.2800   29.2050 C.2     1  UNL1       -0.0000
      6 C         -26.2320   -4.6110   29.7840 C.2     1  UNL1       -0.0003
      7 C         -26.1550   -3.2320   30.0650 C.2     1  UNL1       -0.0042
      8 C         -25.3870   -0.6790   31.5710 C.3     1  UNL1        0.0788
      9 C         -25.1890    0.7730   32.0280 C.3     1  UNL1        0.0193
     10 C         -25.3360    0.6840   33.5440 C.3     1  UNL1        0.0202
     11 C         -24.8290   -0.7150   33.9050 C.3     1  UNL1        0.0887
     12 N         -24.7580   -1.4810   32.6460 N.3     1  UNL1       -0.2191
     13 C         -25.6880    1.6140   26.4610 C.2     1  UNL1        0.0400
     14 C         -26.2500    2.9200   26.3950 C.2     1  UNL1        0.0766
     15 C         -25.6420    4.0930   27.1230 C.2     1  UNL1        0.2664
     16 N         -25.6140    5.2520   26.4490 N.am    1  UNL1       -0.1997
     17 C         -25.0260    6.4790   26.9630 C.3     1  UNL1        0.1388
     18 O         -25.1430    3.9660   28.2430 O.2     1  UNL1       -0.2683
     19 C         -27.4380    3.0910   25.6450 C.2     1  UNL1        0.1067
     20 N         -28.0750    2.0890   25.0030 N.2     1  UNL1       -0.2081
     21 C         -27.5430    0.8490   25.0790 C.2     1  UNL1        0.2533
     22 O         -28.1930   -0.2080   24.4770 O.2     1  UNL1       -0.4558
     23 C         -29.4600    0.0050   23.8660 C.3     1  UNL1        0.2426
     24 C         -30.0650   -1.3770   23.5730 C.3     1  UNL1        0.2292
     25 O         -30.7290   -1.8780   24.7210 O.3     1  UNL1       -0.2162
     26 C         -26.3540    0.5760   25.7770 C.2     1  UNL1        0.1931
     27 F         -25.8600   -0.6810   25.7950 F       1  UNL1       -0.1992
     28 N         -26.7650    0.6300   28.8548 N.am    1  UNL1       -0.2019
     29 C         -29.4744    5.6320   28.9469 C.2     1  UNL1        0.1401
     30 C         -24.4035    0.5184   28.4534 C.2     1  UNL1        0.0371
     31 F         -20.7483    2.0725   27.2809 F       1  UNL1       -0.1806
     32 C         -24.3885    1.2753   27.2340 C.2     1  UNL1        0.0329
     33 C         -21.9368    1.5119   27.6082 C.3     1  UNL1        0.3788
     34 F         -22.7866    2.4052   25.6781 F       1  UNL1       -0.2021
     35 C         -28.2435    5.1986   29.3039 C.2     1  UNL1        0.0293
     36 C         -25.5800   -0.1379   29.0994 C.3     1  UNL1        0.1258
     37 C         -28.6847    1.6151   30.1323 C.3     1  UNL1        0.1131
     38 C         -23.1611    0.3142   29.0998 C.2     1  UNL1        0.1731
     39 C         -28.0409    0.6040   29.1854 C.2     1  UNL1        0.2461
     40 O         -28.7670   -0.3006   28.7592 O.2     1  UNL1       -0.2730
     41 O         -21.9271    0.6856   28.6847 O.2     1  UNL1       -0.4416
     42 C         -23.0705    1.7373   26.8042 C.2     1  UNL1        0.1918
     43 C         -30.3021    3.3870   28.8473 C.2     1  UNL1       -0.0015
     44 C         -30.4900    4.7385   28.5725 C.2     1  UNL1        0.0293
     45 C         -29.0725    2.9556   29.4470 C.2     1  UNL1       -0.0129
     46 C         -28.0438    3.8614   29.4961 C.2     1  UNL1       -0.0015
     47 F         -29.7203    6.9608   29.1335 F       1  UNL1       -0.2042
@<TRIPOS>BOND
     1     1    36    1
     2     2     7    1
     3     2     1    1
     4     3     2    2
     5     4     3    1
     6     4     5    2
     7     5     6    1
     8     6     7    2
     9     8     1    1
    10     8     9    1
    11     8    12    1
    12     9    10    1
    13    10    11    1
    14    12    11    1
    15    13    32    1
    16    14    13    1
    17    14    15    1
    18    15    18    2
    19    16    17    1
    20    16    15    1
    21    19    14    2
    22    20    21    2
    23    20    19    1
    24    21    26    1
    25    22    21    1
    26    23    22    1
    27    24    23    1
    28    24    25    1
    29    26    27    1
    30    26    13    2
    31    28    39    1
    32    29    47    1
    33    29    35    1
    34    30    36    1
    35    30    38    2
    36    32    30    1
    37    33    31    1
    38    33    41    1
    39    34    42    1
    40    35    46    2
    41    36    28    1
    42    39    37    1
    43    40    39    2
    44    41    38    1
    45    42    32    2
    46    42    33    1
    47    43    45    2
    48    44    43    1
    49    44    29    2
    50    45    46    1
    51    45    37    1
