@<TRIPOS>MOLECULE
outputs/IAG933/test6/raw/output_3494_IAG933_linker_design_.xyz
 44 47 0 0 0
SMALL
GASTEIGER

@<TRIPOS>ATOM
      1 C         -24.8550   -1.0120   30.1430 C.3     1  UNL1        0.0438
      2 C         -24.9730   -2.5050   29.7880 C.2     1  UNL1       -0.0208
      3 C         -23.9060   -3.1730   29.1460 C.2     1  UNL1       -0.0042
      4 C         -23.9890   -4.5490   28.8530 C.2     1  UNL1       -0.0003
      5 C         -25.1370   -5.2800   29.2050 C.2     1  UNL1       -0.0000
      6 C         -26.2320   -4.6110   29.7840 C.2     1  UNL1       -0.0003
      7 C         -26.1550   -3.2320   30.0650 C.2     1  UNL1       -0.0042
      8 C         -25.3870   -0.6790   31.5710 C.3     1  UNL1        0.0789
      9 C         -25.1890    0.7730   32.0280 C.3     1  UNL1        0.0427
     10 C         -25.3360    0.6840   33.5440 C.3     1  UNL1        0.0221
     11 C         -24.8290   -0.7150   33.9050 C.3     1  UNL1        0.0888
     12 N         -24.7580   -1.4810   32.6460 N.3     1  UNL1       -0.2191
     13 C         -25.6880    1.6140   26.4610 C.2     1  UNL1        0.0159
     14 C         -26.2500    2.9200   26.3950 C.2     1  UNL1        0.0726
     15 C         -25.6420    4.0930   27.1230 C.2     1  UNL1        0.2661
     16 N         -25.6140    5.2520   26.4490 N.am    1  UNL1       -0.1997
     17 C         -25.0260    6.4790   26.9630 C.3     1  UNL1        0.1388
     18 O         -25.1430    3.9660   28.2430 O.2     1  UNL1       -0.2683
     19 C         -27.4380    3.0910   25.6450 C.2     1  UNL1        0.1064
     20 N         -28.0750    2.0890   25.0030 N.2     1  UNL1       -0.2081
     21 C         -27.5430    0.8490   25.0790 C.2     1  UNL1        0.2530
     22 O         -28.1930   -0.2080   24.4770 O.2     1  UNL1       -0.4558
     23 C         -29.4600    0.0050   23.8660 C.3     1  UNL1        0.2426
     24 C         -30.0650   -1.3770   23.5730 C.3     1  UNL1        0.2292
     25 O         -30.7290   -1.8780   24.7210 O.3     1  UNL1       -0.2162
     26 C         -26.3540    0.5760   25.7770 C.2     1  UNL1        0.1891
     27 F         -25.8600   -0.6810   25.7950 F       1  UNL1       -0.1996
     28 N         -24.0118    2.0795   30.2101 N.3     1  UNL1       -0.2102
     29 C         -23.5484    7.2266   33.6550 C.2     1  UNL1        0.0013
     30 C         -23.3356    1.6674   28.9445 C.3     1  UNL1        0.0192
     31 C         -27.0075    4.9200   34.1485 C.3     1  UNL1        0.0324
     32 C         -23.0943    1.2179   29.7721 C.3     1  UNL1        0.0892
     33 C         -24.8352    1.9400   31.3175 C.3     1  UNL1        0.1521
     34 N         -24.6216    3.9611   32.4703 N.am    1  UNL1       -0.1784
     35 C         -21.4830    1.6042   27.1441 C.3     1  UNL1        0.0004
     36 C         -25.5517    6.7524   34.9223 C.2     1  UNL1       -0.0030
     37 C         -24.5319    7.5381   34.7279 C.2     1  UNL1       -0.0002
     38 C         -23.0807    1.8542   27.2499 C.3     1  UNL1        0.0059
     39 C         -24.4132    1.0875   26.7988 C.3     1  UNL1        0.0290
     40 C         -25.5041    3.2200   31.8710 C.2     1  UNL1        0.2614
     41 C         -23.6461    6.0825   32.9427 C.2     1  UNL1        0.0163
     42 C         -25.6772    5.5589   34.1050 C.2     1  UNL1       -0.0065
     43 O         -26.7122    3.3648   31.7814 O.2     1  UNL1       -0.2715
     44 C         -24.7250    5.1064   33.1491 C.2     1  UNL1        0.0694
@<TRIPOS>BOND
     1     2     7    1
     2     2     1    1
     3     3     2    2
     4     4     3    1
     5     4     5    2
     6     5     6    1
     7     6     7    2
     8     8     1    1
     9     8     9    1
    10     8    12    1
    11     9    33    1
    12     9    10    1
    13    10    11    1
    14    12    11    1
    15    13    39    1
    16    14    13    1
    17    14    15    1
    18    15    18    2
    19    16    17    1
    20    16    15    1
    21    19    14    2
    22    20    21    2
    23    20    19    1
    24    21    26    1
    25    22    21    1
    26    23    22    1
    27    24    23    1
    28    24    25    1
    29    26    27    1
    30    26    13    2
    31    29    37    1
    32    30    32    1
    33    32    28    1
    34    33    28    1
    35    33    40    1
    36    34    44    1
    37    37    36    2
    38    38    35    1
    39    38    30    1
    40    39    38    1
    41    40    34    1
    42    41    44    1
    43    41    29    2
    44    42    31    1
    45    42    36    1
    46    43    40    2
    47    44    42    2
