@<TRIPOS>MOLECULE
outputs/IAG933/test6/raw/output_3495_IAG933_linker_design_.xyz
 38 41 0 0 0
SMALL
GASTEIGER

@<TRIPOS>ATOM
      1 C         -24.8550   -1.0120   30.1430 C.3     1  UNL1        0.1163
      2 C         -24.9730   -2.5050   29.7880 C.2     1  UNL1       -0.0125
      3 C         -23.9060   -3.1730   29.1460 C.2     1  UNL1       -0.0038
      4 C         -23.9890   -4.5490   28.8530 C.2     1  UNL1       -0.0003
      5 C         -25.1370   -5.2800   29.2050 C.2     1  UNL1       -0.0000
      6 C         -26.2320   -4.6110   29.7840 C.2     1  UNL1       -0.0003
      7 C         -26.1550   -3.2320   30.0650 C.2     1  UNL1       -0.0038
      8 C         -25.3870   -0.6790   31.5710 C.3     1  UNL1        0.0855
      9 C         -25.1890    0.7730   32.0280 C.3     1  UNL1        0.0197
     10 C         -25.3360    0.6840   33.5440 C.3     1  UNL1        0.0203
     11 C         -24.8290   -0.7150   33.9050 C.3     1  UNL1        0.0887
     12 N         -24.7580   -1.4810   32.6460 N.3     1  UNL1       -0.2186
     13 C         -25.6880    1.6140   26.4610 C.3     1  UNL1        0.1426
     14 C         -26.2500    2.9200   26.3950 C.2     1  UNL1        0.0709
     15 C         -25.6420    4.0930   27.1230 C.2     1  UNL1        0.2638
     16 N         -25.6140    5.2520   26.4490 N.am    1  UNL1       -0.2000
     17 C         -25.0260    6.4790   26.9630 C.3     1  UNL1        0.1388
     18 O         -25.1430    3.9660   28.2430 O.2     1  UNL1       -0.2686
     19 C         -27.4380    3.0910   25.6450 C.2     1  UNL1        0.1035
     20 N         -28.0750    2.0890   25.0030 N.2     1  UNL1       -0.2118
     21 C         -27.5430    0.8490   25.0790 C.2     1  UNL1        0.2356
     22 O         -28.1930   -0.2080   24.4770 O.2     1  UNL1       -0.4585
     23 C         -29.4600    0.0050   23.8660 C.3     1  UNL1        0.2423
     24 C         -30.0650   -1.3770   23.5730 C.3     1  UNL1        0.2292
     25 O         -30.7290   -1.8780   24.7210 O.3     1  UNL1       -0.2162
     26 C         -26.3540    0.5760   25.7770 C.3     1  UNL1        0.2559
     27 F         -25.8600   -0.6810   25.7950 F       1  UNL1       -0.2253
     28 C         -23.4606    1.1292   28.3402 C.3     1  UNL1        0.1494
     29 N         -24.4471    1.4045   26.8213 N.3     1  UNL1       -0.2068
     30 N         -21.9843   -0.3196   29.8172 N.3     1  UNL1       -0.1117
     31 F         -21.2870    2.4705   26.0871 F       1  UNL1       -0.2161
     32 C         -22.2213    0.5783   28.7121 C.3     1  UNL1        0.1878
     33 C         -25.2545    0.0507   29.1935 C.2     1  UNL1        0.2465
     34 O         -26.3171    0.0050   28.6312 O.2     1  UNL1       -0.2730
     35 C         -21.8178    1.7101   26.9463 C.3     1  UNL1        0.2539
     36 C         -23.3388    1.5216   27.2073 C.3     1  UNL1        0.1455
     37 N         -24.4982    1.1399   29.1786 N.am    1  UNL1       -0.2023
     38 N         -21.2078    1.0336   27.9051 N.3     1  UNL1       -0.1665
@<TRIPOS>BOND
     1     1    33    1
     2     2     7    1
     3     2     1    1
     4     3     2    2
     5     4     3    1
     6     4     5    2
     7     5     6    1
     8     6     7    2
     9     8     1    1
    10     8     9    1
    11     8    12    1
    12     9    10    1
    13    10    11    1
    14    12    11    1
    15    13    29    1
    16    14    13    1
    17    14    15    1
    18    15    18    2
    19    16    17    1
    20    16    15    1
    21    19    14    2
    22    20    21    2
    23    20    19    1
    24    21    26    1
    25    22    21    1
    26    23    22    1
    27    24    23    1
    28    24    25    1
    29    26    27    1
    30    26    13    1
    31    28    32    1
    32    28    37    1
    33    32    30    1
    34    34    33    2
    35    35    31    1
    36    35    36    1
    37    35    38    1
    38    36    29    1
    39    36    28    1
    40    37    33    1
    41    38    32    1
