@<TRIPOS>MOLECULE
outputs/IAG933/test6/raw/output_3502_IAG933_linker_design_.xyz
 40 44 0 0 0
SMALL
GASTEIGER

@<TRIPOS>ATOM
      1 C         -24.8550   -1.0120   30.1430 C.3     1  UNL1        0.1237
      2 C         -24.9730   -2.5050   29.7880 C.2     1  UNL1       -0.0004
      3 C         -23.9060   -3.1730   29.1460 C.2     1  UNL1       -0.0024
      4 C         -23.9890   -4.5490   28.8530 C.2     1  UNL1       -0.0003
      5 C         -25.1370   -5.2800   29.2050 C.2     1  UNL1       -0.0000
      6 C         -26.2320   -4.6110   29.7840 C.2     1  UNL1       -0.0003
      7 C         -26.1550   -3.2320   30.0650 C.2     1  UNL1       -0.0024
      8 C         -25.3870   -0.6790   31.5710 C.3     1  UNL1        0.0976
      9 C         -25.1890    0.7730   32.0280 C.3     1  UNL1        0.0211
     10 C         -25.3360    0.6840   33.5440 C.3     1  UNL1        0.0203
     11 C         -24.8290   -0.7150   33.9050 C.3     1  UNL1        0.0888
     12 N         -24.7580   -1.4810   32.6460 N.3     1  UNL1       -0.2172
     13 C         -25.6880    1.6140   26.4610 C.3     1  UNL1        0.0941
     14 C         -26.2500    2.9200   26.3950 C.2     1  UNL1        0.0589
     15 C         -25.6420    4.0930   27.1230 C.2     1  UNL1        0.2628
     16 N         -25.6140    5.2520   26.4490 N.am    1  UNL1       -0.2000
     17 C         -25.0260    6.4790   26.9630 C.3     1  UNL1        0.1388
     18 O         -25.1430    3.9660   28.2430 O.2     1  UNL1       -0.2686
     19 C         -27.4380    3.0910   25.6450 C.2     1  UNL1        0.1025
     20 N         -28.0750    2.0890   25.0030 N.2     1  UNL1       -0.2118
     21 C         -27.5430    0.8490   25.0790 C.2     1  UNL1        0.2344
     22 O         -28.1930   -0.2080   24.4770 O.2     1  UNL1       -0.4585
     23 C         -29.4600    0.0050   23.8660 C.3     1  UNL1        0.2423
     24 C         -30.0650   -1.3770   23.5730 C.3     1  UNL1        0.2292
     25 O         -30.7290   -1.8780   24.7210 O.3     1  UNL1       -0.2162
     26 C         -26.3540    0.5760   25.7770 C.3     1  UNL1        0.2441
     27 F         -25.8600   -0.6810   25.7950 F       1  UNL1       -0.2265
     28 N         -22.6975    2.2659   25.7894 N.pl3   1  UNL1        0.2159
     29 O         -27.5059   -1.0759   28.3826 O.2     1  UNL1       -0.2870
     30 C         -28.4517    1.0498   28.8938 C.3     1  UNL1        0.2520
     31 C         -23.4131    0.4720   28.8773 C.ar    1  UNL1        0.0984
     32 C         -23.7902    1.0801   27.7456 C.ar    1  UNL1        0.1041
     33 N         -24.8222   -0.0084   29.1926 N.ar    1  UNL1       -0.3214
     34 C         -25.1635    1.0984   27.6328 C.ar    1  UNL1        0.0123
     35 O         -29.7056    0.2614   28.8513 O.3     1  UNL1       -0.2114
     36 C         -25.7099    0.4078   28.5913 C.ar    1  UNL1        0.0944
     37 N         -21.5034    1.3755   27.7187 N.2     1  UNL1       -0.0515
     38 C         -27.2114    0.1198   28.6591 C.2     1  UNL1        0.2215
     39 C         -22.6468    1.6329   27.0314 C.2     1  UNL1        0.4118
     40 C         -21.8124    0.6683   28.8382 C.3     1  UNL1        0.3071
@<TRIPOS>BOND
     1     1     2    1
     2     2     7    1
     3     3     2    2
     4     4     3    1
     5     4     5    2
     6     5     6    1
     7     6     7    2
     8     8     1    1
     9     8     9    1
    10     8    12    1
    11     9    10    1
    12    10    11    1
    13    12    11    1
    14    13    34    1
    15    14    13    1
    16    14    15    1
    17    15    18    2
    18    16    17    1
    19    16    15    1
    20    19    14    2
    21    20    21    2
    22    20    19    1
    23    21    26    1
    24    22    21    1
    25    23    22    1
    26    24    23    1
    27    24    25    1
    28    26    27    1
    29    26    13    1
    30    28    39    1
    31    29    38    2
    32    31    33   ar
    33    32    31   ar
    34    33     1    1
    35    34    32   ar
    36    34    36   ar
    37    35    30    1
    38    36    38    1
    39    36    33   ar
    40    37    40    1
    41    38    30    1
    42    39    37    2
    43    39    32    1
    44    40    31    1
