@<TRIPOS>MOLECULE
outputs/IAG933/test6/raw/output_3504_IAG933_linker_design_.xyz
 42 46 0 0 0
SMALL
GASTEIGER

@<TRIPOS>ATOM
      1 C         -24.8550   -1.0120   30.1430 C.3     1  UNL1        0.0473
      2 C         -24.9730   -2.5050   29.7880 C.2     1  UNL1       -0.0207
      3 C         -23.9060   -3.1730   29.1460 C.2     1  UNL1       -0.0042
      4 C         -23.9890   -4.5490   28.8530 C.2     1  UNL1       -0.0003
      5 C         -25.1370   -5.2800   29.2050 C.2     1  UNL1       -0.0000
      6 C         -26.2320   -4.6110   29.7840 C.2     1  UNL1       -0.0003
      7 C         -26.1550   -3.2320   30.0650 C.2     1  UNL1       -0.0042
      8 C         -25.3870   -0.6790   31.5710 C.3     1  UNL1        0.0796
      9 C         -25.1890    0.7730   32.0280 C.3     1  UNL1        0.0450
     10 C         -25.3360    0.6840   33.5440 C.3     1  UNL1        0.0226
     11 C         -24.8290   -0.7150   33.9050 C.3     1  UNL1        0.0888
     12 N         -24.7580   -1.4810   32.6460 N.3     1  UNL1       -0.2190
     13 C         -25.6880    1.6140   26.4610 C.2     1  UNL1        0.0945
     14 C         -26.2500    2.9200   26.3950 C.2     1  UNL1        0.0903
     15 C         -25.6420    4.0930   27.1230 C.2     1  UNL1        0.2676
     16 N         -25.6140    5.2520   26.4490 N.am    1  UNL1       -0.1997
     17 C         -25.0260    6.4790   26.9630 C.3     1  UNL1        0.1388
     18 O         -25.1430    3.9660   28.2430 O.2     1  UNL1       -0.2683
     19 C         -27.4380    3.0910   25.6450 C.2     1  UNL1        0.1080
     20 N         -28.0750    2.0890   25.0030 N.2     1  UNL1       -0.2080
     21 C         -27.5430    0.8490   25.0790 C.2     1  UNL1        0.2546
     22 O         -28.1930   -0.2080   24.4770 O.2     1  UNL1       -0.4558
     23 C         -29.4600    0.0050   23.8660 C.3     1  UNL1        0.2426
     24 C         -30.0650   -1.3770   23.5730 C.3     1  UNL1        0.2292
     25 O         -30.7290   -1.8780   24.7210 O.3     1  UNL1       -0.2162
     26 C         -26.3540    0.5760   25.7770 C.2     1  UNL1        0.2067
     27 F         -25.8600   -0.6810   25.7950 F       1  UNL1       -0.1979
     28 C         -27.3358    3.5352   31.2186 C.3     1  UNL1        0.0346
     29 O         -25.3309   -0.9161   27.6318 O.2     1  UNL1       -0.2744
     30 N         -24.5429    1.1614   27.1397 N.am    1  UNL1       -0.2239
     31 O         -26.5984    1.6421   30.0865 O.3     1  UNL1       -0.3562
     32 C         -23.2981    1.6858   26.7751 C.3     1  UNL1        0.2934
     33 C         -22.9857    0.5271   29.6243 C.3     1  UNL1        0.0376
     34 C         -22.0731    1.7310   27.5433 C.2     1  UNL1        0.1656
     35 C         -21.8839    1.2704   28.7923 C.2     1  UNL1        0.0041
     36 C         -25.5979    1.7053   31.1342 C.3     1  UNL1        0.1166
     37 C         -24.8094    0.1291   27.9858 C.2     1  UNL1        0.2318
     38 F         -21.0158    2.0708   27.0838 F       1  UNL1       -0.2045
     39 C         -25.9824    3.1688   31.8038 C.3     1  UNL1        0.0322
     40 C         -24.1695    0.0003   29.3459 C.3     1  UNL1        0.0869
     41 C         -27.8016    2.1201   30.6317 C.3     1  UNL1        0.1421
     42 F         -23.2571    2.3116   25.6675 F       1  UNL1       -0.2067
@<TRIPOS>BOND
     1     1     2    1
     2     2     7    1
     3     3     2    2
     4     4     3    1
     5     4     5    2
     6     5     6    1
     7     6     7    2
     8     8     1    1
     9     8     9    1
    10     8    12    1
    11     9    10    1
    12    10    11    1
    13    12    11    1
    14    13    30    1
    15    14    13    1
    16    14    15    1
    17    15    18    2
    18    16    17    1
    19    16    15    1
    20    19    14    2
    21    20    21    2
    22    20    19    1
    23    21    26    1
    24    22    21    1
    25    23    22    1
    26    24    23    1
    27    24    25    1
    28    26    27    1
    29    26    13    2
    30    28    39    1
    31    29    37    2
    32    30    37   am
    33    31    41    1
    34    31    36    1
    35    32    42    1
    36    32    30    1
    37    32    34    1
    38    34    35    2
    39    35    33    1
    40    36    39    1
    41    36     9    1
    42    37    40    1
    43    38    34    1
    44    40    33    1
    45    40     1    1
    46    41    28    1
