@<TRIPOS>MOLECULE
No_3507-gen_results/8p0m/2024-11-27-11-27-31/
 11 11 0 0 0
SMALL
GASTEIGER

@<TRIPOS>ATOM
      1 C         -28.0162   -0.8135   28.8779 C.2     1  UNL1       -0.0142
      2 C         -27.0636   -0.1190   28.6079 C.2     1  UNL1       -0.0464
      3 C         -26.9716    0.7139   27.5060 C.3     1  UNL1        0.0261
      4 C         -25.8205    1.4909   27.1160 C.3     1  UNL1        0.0260
      5 C         -24.6562    1.4242   27.9180 C.2     1  UNL1       -0.0478
      6 C         -23.4598    2.1165   27.6160 C.2     1  UNL1       -0.0342
      7 C         -23.5068    2.7076   26.2939 C.3     1  UNL1        0.0300
      8 C         -25.7733   -0.1954   29.4398 C.3     1  UNL1        0.0261
      9 C         -24.6392    0.5412   29.1339 C.3     1  UNL1        0.0260
     10 C         -29.1966   -0.0570   29.3805 C.3     1  UNL1        0.1347
     11 N         -30.3046   -0.7739   29.7146 N.3     1  UNL1       -0.1262
@<TRIPOS>BOND
     1     1     2    2
     2     2     3    1
     3     3     4    1
     4     4     5    1
     5     5     6    2
     6     6     7    1
     7     2     8    1
     8     5     9    1
     9     8     9    1
    10     1    10    1
    11    10    11    1
