@<TRIPOS>MOLECULE
No_3508-gen_results/8p0m/2024-11-27-11-27-31/
 30 34 0 0 0
SMALL
GASTEIGER

@<TRIPOS>ATOM
      1 C         -28.0162   -0.8135   28.8779 C.ar    1  UNL1        0.0150
      2 C         -27.0636   -0.1189   28.6079 C.ar    1  UNL1        0.0013
      3 C         -25.7647   -0.3897   29.0360 C.ar    1  UNL1        0.0001
      4 C         -25.4887   -1.1536   29.7171 C.ar    1  UNL1        0.0013
      5 C         -27.7606   -1.9034   29.8572 C.ar    1  UNL1        0.0564
      6 C         -26.4781   -2.1057   30.2362 C.ar    1  UNL1        0.0150
      7 N         -28.7117   -2.7607   30.2899 N.am    1  UNL1       -0.2273
      8 C         -29.9110   -2.4398   30.4791 C.2     1  UNL1        0.3083
      9 O         -30.3496   -1.3840   30.4019 O.2     1  UNL1       -0.2645
     10 C         -30.7834   -3.6794   30.8896 C.2     1  UNL1        0.3037
     11 N         -30.3228   -4.6945   30.8881 N.am    1  UNL1       -0.2639
     12 C         -28.4212   -4.1874   30.5928 C.3     1  UNL1        0.2189
     13 C         -31.2317   -5.8480   31.2219 C.3     1  UNL1        0.1206
     14 C         -29.0548   -5.1246   30.8420 C.3     1  UNL1        0.1453
     15 C         -31.0426   -6.7913   32.1724 C.2     1  UNL1       -0.0002
     16 C         -30.4087   -6.2937   33.2288 C.2     1  UNL1        0.0505
     17 C         -30.3319   -4.8923   33.4936 C.ar    1  UNL1        0.0001
     18 C         -30.8369   -4.5901   34.6825 C.ar    1  UNL1       -0.0024
     19 C         -30.7309   -3.1992   35.0375 C.ar    1  UNL1       -0.0026
     20 C         -30.1503   -2.2004   34.2051 C.ar    1  UNL1       -0.0005
     21 C         -29.4258   -2.7040   33.1051 C.ar    1  UNL1       -0.0019
     22 C         -29.5598   -3.9725   32.7903 C.ar    1  UNL1        0.0072
     23 C         -28.1414   -4.5046   32.8034 C.3     1  UNL1        0.1706
     24 O         -27.3221   -4.1605   31.6799 O.3     1  UNL1       -0.3310
     25 O         -32.0564   -3.3065   30.9264 O.2     1  UNL1       -0.2649
     26 C         -29.7994   -7.2145   34.2396 C.2     1  UNL1        0.2490
     27 O         -29.6074   -8.3610   33.9886 O.2     1  UNL1       -0.2699
     28 N         -29.5414   -6.7988   35.5686 N.am    1  UNL1       -0.2702
     29 C         -29.0850   -7.1404   36.4473 C.3     1  UNL1        0.1155
     30 C         -30.0564   -5.2087   35.6731 C.3     1  UNL1        0.1205
@<TRIPOS>BOND
     1     5     7    1
     2     7     8   am
     3     8     9    2
     4     8    10    1
     5    10    11   am
     6     7    12    1
     7    11    13    1
     8    11    14    1
     9    12    14    1
    10    13    15    1
    11    15    16    2
    12    16    17    1
    13    22    23    1
    14    12    24    1
    15    23    24    1
    16    10    25    2
    17    16    26    1
    18    26    27    2
    19    26    28   am
    20    28    29    1
    21    18    30    1
    22    28    30    1
    23    17    18   ar
    24    18    19   ar
    25    19    20   ar
    26    20    21   ar
    27    21    22   ar
    28    22    17   ar
    29     1     2   ar
    30     2     3   ar
    31     3     4   ar
    32     4     6   ar
    33     6     5   ar
    34     5     1   ar
