@<TRIPOS>MOLECULE
No_3509-gen_results/8p0m/2024-11-27-11-27-31/
 16 17 0 0 0
SMALL
GASTEIGER

@<TRIPOS>ATOM
      1 C         -28.0162   -0.8135   28.8779 C.ar    1  UNL1       -0.0037
      2 C         -28.4690   -0.7850   29.8287 C.ar    1  UNL1       -0.0003
      3 C         -26.5455   -0.8762   28.8500 C.ar    1  UNL1       -0.0114
      4 C         -25.6825   -0.7773   27.6829 C.3     1  UNL1        0.0528
      5 C         -27.9181   -1.0034   31.1877 C.ar    1  UNL1        0.0002
      6 C         -26.5308   -1.0794   31.2463 C.ar    1  UNL1        0.0063
      7 C         -25.7798   -1.0462   30.0905 C.ar    1  UNL1        0.0761
      8 C         -25.2322    0.5793   27.3292 C.ar    1  UNL1       -0.0178
      9 C         -25.9027    1.5335   27.4253 C.ar    1  UNL1       -0.0039
     10 C         -25.3348    2.8671   27.0802 C.ar    1  UNL1       -0.0003
     11 C         -24.0033    2.9885   26.6466 C.ar    1  UNL1       -0.0000
     12 C         -23.2328    1.8380   26.6116 C.ar    1  UNL1       -0.0003
     13 C         -23.8065    0.5810   26.9916 C.ar    1  UNL1       -0.0039
     14 C         -24.3748   -1.1302   30.1718 C.2     1  UNL1        0.3875
     15 O         -23.7130   -1.9733   29.7549 O.co2   1  UNL1       -0.2406
     16 O         -23.8055   -0.3795   31.2117 O.co2   1  UNL1       -0.2406
@<TRIPOS>BOND
     1     3     4    1
     2     4     8    1
     3     7    14    1
     4    14    15   ar
     5    14    16   ar
     6     8     9   ar
     7     9    10   ar
     8    10    11   ar
     9    11    12   ar
    10    12    13   ar
    11    13     8   ar
    12     1     2   ar
    13     2     5   ar
    14     5     6   ar
    15     6     7   ar
    16     7     3   ar
    17     3     1   ar
