@<TRIPOS>MOLECULE
No_351-gen_results/8p0m/2024-11-27-11-27-31/
 18 19 0 0 0
SMALL
GASTEIGER

@<TRIPOS>ATOM
      1 C         -28.0162   -0.8135   28.8779 C.3     1  UNL1        0.1178
      2 C         -27.0636   -0.1189   28.6079 C.ar    1  UNL1       -0.0024
      3 C         -25.7923   -0.4302   29.0761 C.ar    1  UNL1       -0.0024
      4 C         -24.5456    0.3494   28.8225 C.ar    1  UNL1        0.0063
      5 C         -24.6586    1.4196   27.8878 C.ar    1  UNL1        0.0798
      6 C         -25.9471    1.6811   27.3792 C.ar    1  UNL1        0.0063
      7 C         -27.0439    0.9739   27.6871 C.ar    1  UNL1       -0.0024
      8 N         -29.1797   -0.1202   29.1288 N.pl3   1  UNL1       -0.3018
      9 C         -29.5842    0.1318   30.4036 C.3     1  UNL1        0.1125
     10 C         -30.0536    0.0965   28.0536 C.ar    1  UNL1        0.0481
     11 C         -23.4618    2.1735   27.6266 C.2     1  UNL1        0.3878
     12 O         -23.4788    3.1475   26.9110 O.co2   1  UNL1       -0.2406
     13 O         -22.2656    1.7112   27.9893 O.co2   1  UNL1       -0.2406
     14 C         -31.3887   -0.1987   28.2872 C.ar    1  UNL1        0.0145
     15 C         -32.2319    0.3362   27.4959 C.ar    1  UNL1        0.0013
     16 C         -31.8430    0.5286   26.2268 C.ar    1  UNL1        0.0001
     17 C         -30.4942    0.7953   25.8753 C.ar    1  UNL1        0.0013
     18 C         -29.6318    0.6218   26.8283 C.ar    1  UNL1        0.0145
@<TRIPOS>BOND
     1     1     2    1
     2     1     8    1
     3     8     9    1
     4     8    10    1
     5     5    11    1
     6    11    12   ar
     7    11    13   ar
     8     2     3   ar
     9     3     4   ar
    10     4     5   ar
    11     5     6   ar
    12     6     7   ar
    13     7     2   ar
    14    10    14   ar
    15    14    15   ar
    16    15    16   ar
    17    16    17   ar
    18    17    18   ar
    19    18    10   ar
