@<TRIPOS>MOLECULE
No_3510-gen_results/8p0m/2024-11-27-11-27-31/
 10 10 0 0 0
SMALL
GASTEIGER

@<TRIPOS>ATOM
      1 C         -28.0162   -0.8135   28.8779 C.ar    1  UNL1        0.0114
      2 C         -27.0636   -0.1189   28.6079 C.ar    1  UNL1        0.0005
      3 C         -25.7923   -0.4302   29.0761 C.ar    1  UNL1        0.0000
      4 C         -25.5756   -1.5654   29.9363 C.ar    1  UNL1        0.0009
      5 C         -26.7354   -2.3004   30.2173 C.ar    1  UNL1        0.0114
      6 C         -27.9184   -1.9537   29.7629 C.ar    1  UNL1        0.0577
      7 CL        -29.2678   -2.8890   30.2152 Cl      1  UNL1       -0.0822
      8 C         -27.1068    1.1096   27.7591 C.2     1  UNL1       -0.0045
      9 C         -26.2403    1.3313   26.8308 C.2     1  UNL1       -0.0258
     10 C         -25.1051    0.4831   26.6996 C.3     1  UNL1        0.0307
@<TRIPOS>BOND
     1     6     7    1
     2     2     8    1
     3     8     9    2
     4     9    10    1
     5     1     2   ar
     6     2     3   ar
     7     3     4   ar
     8     4     5   ar
     9     5     6   ar
    10     6     1   ar
