@<TRIPOS>MOLECULE
No_3511-gen_results/8p0m/2024-11-27-11-27-31/
 35 38 0 0 0
SMALL
GASTEIGER

@<TRIPOS>ATOM
      1 C         -28.0162   -0.8135   28.8779 C.ar    1  UNL1        0.0759
      2 C         -27.0636   -0.1189   28.6079 C.ar    1  UNL1        0.0112
      3 C         -26.9716    0.7139   27.5060 C.ar    1  UNL1        0.0569
      4 C         -28.1053    0.7744   26.6421 C.ar    1  UNL1        0.0093
      5 C         -29.2008    0.1044   27.0527 C.ar    1  UNL1        0.0554
      6 C         -28.0219   -1.5899   30.0879 C.2     1  UNL1        0.3412
      7 C         -29.1640   -0.6394   28.1484 C.ar    1  UNL1        0.0110
      8 O         -27.1149   -2.3777   30.3500 O.3     1  UNL1       -0.4451
      9 O         -28.8356   -1.3561   31.0564 O.2     1  UNL1       -0.2449
     10 C         -30.2819    0.2758   25.9958 C.2     1  UNL1        0.2648
     11 N         -31.3643   -0.3344   26.2616 N.am    1  UNL1       -0.1998
     12 O         -30.1969    0.9153   24.9701 O.2     1  UNL1       -0.2684
     13 C         -32.5064   -0.3702   25.3220 C.3     1  UNL1        0.1388
     14 C         -25.6769    1.4209   27.1291 C.2     1  UNL1        0.2647
     15 N         -24.5783    0.9374   27.4716 N.ar    1  UNL1       -0.2717
     16 C         -24.0302    0.0093   27.7956 C.ar    1  UNL1        0.0830
     17 C         -22.7473   -0.0724   28.4266 C.ar    1  UNL1        0.0206
     18 C         -22.2503    1.2460   28.0802 C.ar    1  UNL1        0.0206
     19 C         -23.4746    2.0120   27.6407 C.ar    1  UNL1        0.0830
     20 O         -25.8687    2.4061   26.3356 O.2     1  UNL1       -0.2666
     21 C         -27.3870   -3.7639   30.2247 C.3     1  UNL1        0.2134
     22 C         -27.8343   -4.2370   28.9506 C.3     1  UNL1        0.0738
     23 C         -29.0819   -5.1216   29.3089 C.ar    1  UNL1       -0.0187
     24 C         -30.2211   -4.9478   28.4844 C.ar    1  UNL1       -0.0081
     25 C         -31.2959   -5.8972   28.6892 C.ar    1  UNL1       -0.0181
     26 C         -31.2737   -6.7016   29.7826 C.ar    1  UNL1       -0.0040
     27 C         -30.2411   -6.7162   30.6903 C.ar    1  UNL1       -0.0006
     28 C         -29.1444   -5.8775   30.5007 C.ar    1  UNL1       -0.0042
     29 C         -32.3878   -5.8574   27.7217 C.3     1  UNL1        0.0526
     30 C         -33.1619   -4.7896   27.5136 C.ar    1  UNL1       -0.0178
     31 C         -33.3111   -3.9114   28.3607 C.ar    1  UNL1       -0.0039
     32 C         -34.1455   -2.6765   28.1423 C.ar    1  UNL1       -0.0003
     33 C         -34.7568   -2.5993   26.9308 C.ar    1  UNL1       -0.0000
     34 C         -34.5830   -3.5688   25.9555 C.ar    1  UNL1       -0.0003
     35 C         -33.7577   -4.6757   26.2269 C.ar    1  UNL1       -0.0039
@<TRIPOS>BOND
     1     1     6    1
     2     6     8    1
     3     6     9    2
     4     5    10    1
     5    10    11   am
     6    10    12    2
     7    11    13    1
     8     3    14    1
     9    14    15   am
    10    15    16   ar
    11    16    17   ar
    12    17    18   ar
    13    15    19   ar
    14    18    19   ar
    15    14    20    2
    16     8    21    1
    17    21    22    1
    18    22    23    1
    19    25    29    1
    20    29    30    1
    21    23    24   ar
    22    24    25   ar
    23    25    26   ar
    24    26    27   ar
    25    27    28   ar
    26    28    23   ar
    27     1     2   ar
    28     2     3   ar
    29     3     4   ar
    30     4     5   ar
    31     5     7   ar
    32     7     1   ar
    33    30    31   ar
    34    31    32   ar
    35    32    33   ar
    36    33    34   ar
    37    34    35   ar
    38    35    30   ar
