@<TRIPOS>MOLECULE
No_3513-gen_results/8p0m/2024-11-27-11-27-31/
 25 29 0 0 0
SMALL
GASTEIGER

@<TRIPOS>ATOM
      1 C         -28.0162   -0.8135   28.8779 C.ar    1  UNL1        0.0325
      2 C         -27.0636   -0.1189   28.6079 C.ar    1  UNL1        0.0375
      3 C         -25.7647   -0.3897   29.0360 C.ar    1  UNL1        0.0027
      4 C         -25.5296   -1.5302   29.9014 C.ar    1  UNL1        0.0024
      5 C         -26.6577   -2.2915   30.2035 C.ar    1  UNL1        0.0296
      6 C         -27.8548   -1.9555   29.7630 C.ar    1  UNL1        0.1402
      7 C         -24.5441    0.4126   28.7379 C.ar    1  UNL1       -0.0003
      8 C         -24.4731    1.2065   27.7114 C.ar    1  UNL1        0.0220
      9 C         -23.2632    1.9110   27.3928 C.ar    1  UNL1        0.1352
     10 C         -22.0960    1.7116   28.0459 C.ar    1  UNL1        0.0366
     11 C         -23.3012    0.1559   29.4817 C.ar    1  UNL1       -0.0001
     12 C         -22.1018    0.8312   29.1085 C.ar    1  UNL1        0.0031
     13 F         -28.9034   -2.7179   30.0874 F       1  UNL1       -0.2042
     14 O         -23.3166    2.7900   26.3345 O.3     1  UNL1       -0.4757
     15 C         -24.5558    2.7960   25.7238 C.3     1  UNL1        0.2065
     16 C         -25.5266    1.5370   26.8927 C.3     1  UNL1        0.0993
     17 C         -25.2687    1.8396   25.4866 C.3     1  UNL1        0.0629
     18 C         -26.5470    0.3139   26.8734 C.2     1  UNL1        0.1800
     19 C         -26.3727    2.7211   27.5930 C.ar    1  UNL1       -0.0119
     20 C         -25.9432    3.2899   28.4677 C.ar    1  UNL1       -0.0036
     21 C         -26.6361    4.4594   29.1765 C.ar    1  UNL1       -0.0003
     22 C         -27.7343    4.8268   28.7119 C.ar    1  UNL1       -0.0000
     23 C         -28.3219    4.1296   27.6108 C.ar    1  UNL1       -0.0003
     24 C         -27.6393    3.0980   27.0172 C.ar    1  UNL1       -0.0036
     25 O         -27.1555   -0.1608   26.0151 O.2     1  UNL1       -0.2907
@<TRIPOS>BOND
     1     3     7    1
     2     6    13    1
     3     9    14    1
     4    14    15    1
     5     8    16    1
     6    15    17    1
     7    16    17    1
     8     2    18    1
     9    16    18    1
    10    16    19    1
    11    18    25    2
    12     1     2   ar
    13     2     3   ar
    14     3     4   ar
    15     4     5   ar
    16     5     6   ar
    17     6     1   ar
    18     7    11   ar
    19    11    12   ar
    20    12    10   ar
    21    10     9   ar
    22     9     8   ar
    23     8     7   ar
    24    19    20   ar
    25    20    21   ar
    26    21    22   ar
    27    22    23   ar
    28    23    24   ar
    29    24    19   ar
