@<TRIPOS>MOLECULE
outputs/IAG933/test6/raw/output_3514_IAG933_linker_design_.xyz
 43 47 0 0 0
SMALL
GASTEIGER

@<TRIPOS>ATOM
      1 C         -24.8550   -1.0120   30.1430 C.3     1  UNL1        0.0438
      2 C         -24.9730   -2.5050   29.7880 C.2     1  UNL1       -0.0208
      3 C         -23.9060   -3.1730   29.1460 C.2     1  UNL1       -0.0042
      4 C         -23.9890   -4.5490   28.8530 C.2     1  UNL1       -0.0003
      5 C         -25.1370   -5.2800   29.2050 C.2     1  UNL1       -0.0000
      6 C         -26.2320   -4.6110   29.7840 C.2     1  UNL1       -0.0003
      7 C         -26.1550   -3.2320   30.0650 C.2     1  UNL1       -0.0042
      8 C         -25.3870   -0.6790   31.5710 C.3     1  UNL1        0.0798
      9 C         -25.1890    0.7730   32.0280 C.3     1  UNL1        0.0492
     10 C         -25.3360    0.6840   33.5440 C.3     1  UNL1        0.0230
     11 C         -24.8290   -0.7150   33.9050 C.3     1  UNL1        0.0888
     12 N         -24.7580   -1.4810   32.6460 N.3     1  UNL1       -0.2190
     13 C         -25.6880    1.6140   26.4610 C.3     1  UNL1        0.0887
     14 C         -26.2500    2.9200   26.3950 C.2     1  UNL1        0.0586
     15 C         -25.6420    4.0930   27.1230 C.2     1  UNL1        0.2627
     16 N         -25.6140    5.2520   26.4490 N.am    1  UNL1       -0.2000
     17 C         -25.0260    6.4790   26.9630 C.3     1  UNL1        0.1388
     18 O         -25.1430    3.9660   28.2430 O.2     1  UNL1       -0.2686
     19 C         -27.4380    3.0910   25.6450 C.2     1  UNL1        0.1025
     20 N         -28.0750    2.0890   25.0030 N.2     1  UNL1       -0.2118
     21 C         -27.5430    0.8490   25.0790 C.2     1  UNL1        0.2344
     22 O         -28.1930   -0.2080   24.4770 O.2     1  UNL1       -0.4585
     23 C         -29.4600    0.0050   23.8660 C.3     1  UNL1        0.2423
     24 C         -30.0650   -1.3770   23.5730 C.3     1  UNL1        0.2292
     25 O         -30.7290   -1.8780   24.7210 O.3     1  UNL1       -0.2162
     26 C         -26.3540    0.5760   25.7770 C.3     1  UNL1        0.2437
     27 F         -25.8600   -0.6810   25.7950 F       1  UNL1       -0.2265
     28 C         -24.1122    1.4976   29.6578 C.3     1  UNL1        0.1432
     29 C         -24.8828    5.5847   33.1552 C.2     1  UNL1        0.0006
     30 C         -25.4900    2.1677   31.2800 C.3     1  UNL1        0.1387
     31 C         -21.7837    1.5846   27.0922 C.2     1  UNL1       -0.0223
     32 C         -24.2672    1.5406   26.7059 C.2     1  UNL1       -0.0333
     33 C         -24.7741    4.2061   32.9560 C.2     1  UNL1       -0.0019
     34 C         -22.1036    2.0446   25.8744 C.2     1  UNL1       -0.0049
     35 C         -26.6648    5.5738   31.5157 C.2     1  UNL1        0.0574
     36 CL        -27.6762    6.3538   30.3677 Cl      1  UNL1       -0.0823
     37 C         -23.5251    1.8705   25.7531 C.2     1  UNL1       -0.0081
     38 C         -22.7801    1.3145   27.9145 C.3     1  UNL1        0.0431
     39 C         -25.6495    3.5367   32.0368 C.2     1  UNL1        0.0054
     40 C         -22.7283    1.4135   29.2556 C.3     1  UNL1        0.0405
     41 C         -25.8357    6.2788   32.4027 C.2     1  UNL1        0.0114
     42 O         -24.4349    2.4483   30.4188 O.3     1  UNL1       -0.3518
     43 C         -26.6885    4.1858   31.4629 C.2     1  UNL1        0.0095
@<TRIPOS>BOND
     1     2     7    1
     2     2     1    1
     3     3     2    2
     4     4     3    1
     5     4     5    2
     6     5     6    1
     7     6     7    2
     8     8     1    1
     9     8     9    1
    10     8    12    1
    11     9    30    1
    12     9    10    1
    13    10    11    1
    14    12    11    1
    15    13    32    1
    16    14    13    1
    17    14    15    1
    18    15    18    2
    19    16    17    1
    20    16    15    1
    21    19    14    2
    22    20    21    2
    23    20    19    1
    24    21    26    1
    25    22    21    1
    26    23    22    1
    27    24    23    1
    28    24    25    1
    29    26    27    1
    30    26    13    1
    31    28    42    1
    32    30    42    1
    33    30    39    1
    34    31    38    1
    35    32    38    1
    36    33    29    1
    37    34    31    2
    38    35    41    1
    39    36    35    1
    40    37    34    1
    41    37    32    2
    42    38    40    1
    43    39    33    2
    44    40    28    1
    45    41    29    2
    46    43    35    2
    47    43    39    1
