@<TRIPOS>MOLECULE
No_3515-gen_results/8p0m/2024-11-27-11-27-31/
 15 16 0 0 0
SMALL
GASTEIGER

@<TRIPOS>ATOM
      1 C         -28.0162   -0.8135   28.8779 C.ar    1  UNL1       -0.0040
      2 C         -28.4690   -0.7850   29.8287 C.ar    1  UNL1       -0.0003
      3 C         -28.1816    0.4277   28.1134 C.ar    1  UNL1       -0.0184
      4 C         -28.9841    1.4155   28.5154 C.ar    1  UNL1       -0.0040
      5 C         -29.3802    0.1384   30.4612 C.ar    1  UNL1       -0.0000
      6 C         -29.5415    1.2736   29.7242 C.ar    1  UNL1       -0.0003
      7 C         -27.4586    0.4934   26.7701 C.3     1  UNL1        0.0446
      8 C         -26.0264    0.3840   26.7617 C.ar    1  UNL1       -0.0184
      9 C         -25.2257    1.3507   27.3721 C.ar    1  UNL1       -0.0040
     10 C         -24.3523    1.2062   28.1853 C.ar    1  UNL1       -0.0003
     11 C         -24.1496   -0.0466   28.8743 C.ar    1  UNL1       -0.0000
     12 C         -24.7267   -1.1375   28.2154 C.ar    1  UNL1       -0.0003
     13 C         -25.5866   -0.9341   27.1046 C.ar    1  UNL1       -0.0040
     14 C         -28.0413    0.6471   25.5210 C.3     1  UNL1        0.0087
     15 C         -29.1005   -0.1102   25.1852 C.3     1  UNL1        0.0007
@<TRIPOS>BOND
     1     3     7    1
     2     7     8    1
     3     7    14    1
     4    14    15    1
     5     8     9   ar
     6     9    10   ar
     7    10    11   ar
     8    11    12   ar
     9    12    13   ar
    10    13     8   ar
    11     1     2   ar
    12     2     5   ar
    13     5     6   ar
    14     6     4   ar
    15     4     3   ar
    16     3     1   ar
