@<TRIPOS>MOLECULE
No_352-gen_results/8p0m/2024-11-27-11-27-31/
 23 24 0 0 0
SMALL
GASTEIGER

@<TRIPOS>ATOM
      1 O         -28.1229   -1.3353   28.4874 O.2     1  UNL1       -0.2748
      2 C         -27.4806   -0.4044   28.7094 C.2     1  UNL1        0.2288
      3 N         -26.4599   -0.1104   28.0051 N.am    1  UNL1       -0.2800
      4 C         -26.1476   -0.4948   26.8760 C.3     1  UNL1        0.0980
      5 C         -27.9570    0.7379   29.5934 C.3     1  UNL1        0.1203
      6 C         -27.5675    1.7035   29.9102 C.3     1  UNL1        0.0146
      7 C         -26.2248    1.9983   29.2481 C.3     1  UNL1        0.0212
      8 C         -25.6111    1.2200   28.2575 C.3     1  UNL1        0.0856
      9 C         -24.4766    1.5413   27.5947 C.3     1  UNL1        0.0896
     10 C         -23.2709    1.4050   28.2911 C.2     1  UNL1        0.1187
     11 C         -22.1968    0.9793   27.9062 C.2     1  UNL1       -0.0003
     12 C         -21.0702    0.8432   28.7845 C.3     1  UNL1        0.0328
     13 C         -24.5059    1.7796   26.2048 C.2     1  UNL1       -0.0226
     14 C         -24.9026    0.8127   25.2403 C.2     1  UNL1       -0.0285
     15 C         -25.9257   -0.0832   25.4746 C.3     1  UNL1        0.0472
     16 F         -23.4548    1.6306   29.6309 F       1  UNL1       -0.2088
     17 C         -29.2833    0.2409   30.3225 C.3     1  UNL1        0.2145
     18 O         -30.2566    0.3345   29.7293 O.2     1  UNL1       -0.4719
     19 C         -30.6670    1.4014   29.3366 C.2     1  UNL1        0.1722
     20 C         -30.9011    1.5806   28.1090 C.2     1  UNL1        0.0397
     21 C         -31.3309    0.5700   27.3280 C.2     1  UNL1       -0.0013
     22 C         -31.1444    0.4540   26.2625 C.2     1  UNL1       -0.0257
     23 C         -30.5986    1.5474   25.4047 C.3     1  UNL1        0.0307
@<TRIPOS>BOND
     1     1     2    2
     2     2     3   am
     3     3     4    1
     4     2     5    1
     5     5     6    1
     6     6     7    1
     7     3     8    1
     8     8     9    1
     9     9    10    1
    10    10    11    2
    11    11    12    1
    12     9    13    1
    13    13    14    2
    14     4    15    1
    15    14    15    1
    16    10    16    1
    17     5    17    1
    18    17    18    1
    19    18    19    1
    20    19    20    2
    21    20    21    1
    22    21    22    2
    23    22    23    1
    24     7     8    1
