@<TRIPOS>MOLECULE
No_3521-gen_results/8p0m/2024-11-27-11-27-31/
 22 23 0 0 0
SMALL
GASTEIGER

@<TRIPOS>ATOM
      1 C         -28.0162   -0.8135   28.8779 C.ar    1  UNL1        0.0063
      2 C         -28.4690   -0.7850   29.8287 C.ar    1  UNL1        0.0798
      3 C         -26.5042   -0.7777   28.8766 C.ar    1  UNL1       -0.0040
      4 C         -25.8103   -0.8531   30.1028 C.ar    1  UNL1       -0.0195
      5 C         -27.9906   -0.8916   31.2257 C.ar    1  UNL1        0.0063
      6 C         -26.6042   -0.8676   31.2652 C.ar    1  UNL1       -0.0040
      7 C         -24.4452   -0.9530   30.3506 C.3     1  UNL1        0.0605
      8 C         -23.6345    0.2297   30.2843 C.3     1  UNL1        0.1069
      9 C         -22.3635    0.2642   29.7722 C.3     1  UNL1        0.0304
     10 C         -21.8447   -0.9497   29.3014 C.3     1  UNL1        0.0909
     11 C         -23.7085   -1.9252   29.3672 C.3     1  UNL1        0.1680
     12 N         -22.4278   -1.9666   29.1633 N.3     1  UNL1       -0.2006
     13 C         -24.0706   -1.6177   31.7766 C.3     1  UNL1        0.0078
     14 N         -24.4556   -2.9477   28.8905 N.3     1  UNL1       -0.1134
     15 C         -30.0948   -0.8096   29.8393 C.2     1  UNL1        0.3878
     16 O         -30.7253   -0.0698   30.7141 O.co2   1  UNL1       -0.2406
     17 O         -30.6652   -1.1254   28.8034 O.co2   1  UNL1       -0.2406
     18 C         -24.1422    1.5045   31.0068 C.2     1  UNL1        0.3169
     19 O         -24.4488    1.6427   32.0757 O.2     1  UNL1       -0.2501
     20 O         -24.3914    2.5469   30.0923 O.3     1  UNL1       -0.4485
     21 C         -25.4258    3.3575   30.2724 C.3     1  UNL1        0.2086
     22 C         -25.8023    3.6202   31.3219 C.3     1  UNL1        0.0513
@<TRIPOS>BOND
     1     4     7    1
     2     7     8    1
     3     9    10    1
     4     7    11    1
     5    11    12    1
     6     7    13    1
     7    11    14    1
     8     2    15    1
     9    15    16   ar
    10    15    17   ar
    11     8    18    1
    12    18    19    2
    13    18    20    1
    14    20    21    1
    15    21    22    1
    16     8     9    1
    17    10    12    1
    18     1     2   ar
    19     2     5   ar
    20     5     6   ar
    21     6     4   ar
    22     4     3   ar
    23     3     1   ar
