@<TRIPOS>MOLECULE
outputs/IAG933/test6/raw/output_3525_IAG933_linker_design_.xyz
 46 50 0 0 0
SMALL
GASTEIGER

@<TRIPOS>ATOM
      1 C         -24.8550   -1.0120   30.1430 C.3     1  UNL1        0.0582
      2 C         -24.9730   -2.5050   29.7880 C.2     1  UNL1       -0.0195
      3 C         -23.9060   -3.1730   29.1460 C.2     1  UNL1       -0.0042
      4 C         -23.9890   -4.5490   28.8530 C.2     1  UNL1       -0.0003
      5 C         -25.1370   -5.2800   29.2050 C.2     1  UNL1       -0.0000
      6 C         -26.2320   -4.6110   29.7840 C.2     1  UNL1       -0.0003
      7 C         -26.1550   -3.2320   30.0650 C.2     1  UNL1       -0.0042
      8 C         -25.3870   -0.6790   31.5710 C.3     1  UNL1        0.0785
      9 C         -25.1890    0.7730   32.0280 C.3     1  UNL1        0.0192
     10 C         -25.3360    0.6840   33.5440 C.3     1  UNL1        0.0202
     11 C         -24.8290   -0.7150   33.9050 C.3     1  UNL1        0.0887
     12 N         -24.7580   -1.4810   32.6460 N.3     1  UNL1       -0.2191
     13 C         -25.6880    1.6140   26.4610 C.3     1  UNL1        0.0927
     14 C         -26.2500    2.9200   26.3950 C.2     1  UNL1        0.0568
     15 C         -25.6420    4.0930   27.1230 C.2     1  UNL1        0.2625
     16 N         -25.6140    5.2520   26.4490 N.am    1  UNL1       -0.2000
     17 C         -25.0260    6.4790   26.9630 C.3     1  UNL1        0.1388
     18 O         -25.1430    3.9660   28.2430 O.2     1  UNL1       -0.2687
     19 C         -27.4380    3.0910   25.6450 C.2     1  UNL1        0.1022
     20 N         -28.0750    2.0890   25.0030 N.2     1  UNL1       -0.2119
     21 C         -27.5430    0.8490   25.0790 C.2     1  UNL1        0.2341
     22 O         -28.1930   -0.2080   24.4770 O.2     1  UNL1       -0.4585
     23 C         -29.4600    0.0050   23.8660 C.3     1  UNL1        0.2423
     24 C         -30.0650   -1.3770   23.5730 C.3     1  UNL1        0.2292
     25 O         -30.7290   -1.8780   24.7210 O.3     1  UNL1       -0.2162
     26 C         -26.3540    0.5760   25.7770 C.3     1  UNL1        0.2419
     27 F         -25.8600   -0.6810   25.7950 F       1  UNL1       -0.2268
     28 C         -24.7262    1.2539   27.5536 C.3     1  UNL1        0.1106
     29 CL        -22.9176    2.7924   25.1904 Cl      1  UNL1       -0.0427
     30 C         -21.1754    1.0635   28.1784 C.2     1  UNL1        0.1806
     31 C         -25.5630    6.3097   32.1294 C.3     1  UNL1        0.1231
     32 C         -24.3227    5.2932   33.9836 C.3     1  UNL1        0.1438
     33 N         -25.2269    1.2076   28.9304 N.am    1  UNL1       -0.2598
     34 C         -22.5502    1.8260   26.5331 C.2     1  UNL1        0.2008
     35 C         -25.6807   -0.1802   29.1466 C.3     1  UNL1        0.1009
     36 C         -22.5292    0.9040   28.6272 C.2     1  UNL1        0.0420
     37 C         -24.2403    6.3501   32.8950 C.3     1  UNL1        0.0536
     38 O         -25.1355    4.2687   33.4006 O.3     1  UNL1       -0.3529
     39 C         -26.0316    2.1709   29.6682 C.2     1  UNL1        0.3235
     40 C         -23.3478    1.3240   27.5589 C.2     1  UNL1        0.0451
     41 N         -25.6438    3.2378   30.6894 N.am    1  UNL1       -0.1858
     42 O         -27.1861    2.1126   29.5546 O.2     1  UNL1       -0.2508
     43 N         -25.3498    6.4968   30.6720 N.3     1  UNL1       -0.1302
     44 C         -26.1319    4.9021   32.5072 C.3     1  UNL1        0.1544
     45 O         -21.1512    1.5752   26.8729 O.2     1  UNL1       -0.4396
     46 C         -26.6302    4.0559   31.2875 C.3     1  UNL1        0.1477
@<TRIPOS>BOND
     1     1    35    1
     2     2     7    1
     3     2     1    1
     4     3     2    2
     5     4     3    1
     6     4     5    2
     7     5     6    1
     8     6     7    2
     9     8     1    1
    10     8     9    1
    11     8    12    1
    12     9    10    1
    13    10    11    1
    14    12    11    1
    15    13    28    1
    16    14    13    1
    17    14    15    1
    18    15    18    2
    19    16    17    1
    20    16    15    1
    21    19    14    2
    22    20    21    2
    23    20    19    1
    24    21    26    1
    25    22    21    1
    26    23    22    1
    27    24    23    1
    28    24    25    1
    29    26    27    1
    30    26    13    1
    31    28    40    1
    32    28    33    1
    33    29    34    1
    34    30    36    2
    35    31    43    1
    36    31    44    1
    37    31    37    1
    38    33    35    1
    39    33    39   am
    40    34    45    1
    41    34    40    2
    42    37    32    1
    43    38    32    1
    44    39    41    1
    45    40    36    1
    46    41    46    1
    47    42    39    2
    48    44    46    1
    49    44    38    1
    50    45    30    1
