@<TRIPOS>MOLECULE
No_3526-gen_results/8p0m/2024-11-27-11-27-31/
 9 9 0 0 0
SMALL
GASTEIGER

@<TRIPOS>ATOM
      1 C         -28.0162   -0.8135   28.8779 C.ar    1  UNL1        0.0165
      2 C         -27.0636   -0.1189   28.6079 C.ar    1  UNL1        0.0705
      3 C         -26.9287    1.1713   29.0083 C.ar    1  UNL1        0.0165
      4 C         -27.9560    1.7411   29.7840 C.ar    1  UNL1        0.0013
      5 C         -29.0569   -0.3271   29.7466 C.ar    1  UNL1        0.0013
      6 C         -28.9828    0.9722   30.1516 C.ar    1  UNL1        0.0001
      7 N         -25.9739   -0.5937   27.8380 N.pl3   1  UNL1       -0.2112
      8 C         -24.6428   -0.1048   28.0009 C.2     1  UNL1        0.0857
      9 C         -24.5091    1.2057   27.9289 C.2     1  UNL1        0.0192
@<TRIPOS>BOND
     1     2     7    1
     2     7     8    1
     3     8     9    2
     4     1     2   ar
     5     2     3   ar
     6     3     4   ar
     7     4     6   ar
     8     6     5   ar
     9     5     1   ar
