@<TRIPOS>MOLECULE
outputs/IAG933/test6/raw/output_3528_IAG933_linker_design_.xyz
 45 48 0 0 0
SMALL
GASTEIGER

@<TRIPOS>ATOM
      1 C         -24.8550   -1.0120   30.1430 C.3     1  UNL1        0.2040
      2 C         -24.9730   -2.5050   29.7880 C.2     1  UNL1        0.0186
      3 C         -23.9060   -3.1730   29.1460 C.2     1  UNL1       -0.0008
      4 C         -23.9890   -4.5490   28.8530 C.2     1  UNL1       -0.0002
      5 C         -25.1370   -5.2800   29.2050 C.2     1  UNL1       -0.0000
      6 C         -26.2320   -4.6110   29.7840 C.2     1  UNL1       -0.0002
      7 C         -26.1550   -3.2320   30.0650 C.2     1  UNL1       -0.0008
      8 C         -25.3870   -0.6790   31.5710 C.3     1  UNL1        0.1170
      9 C         -25.1890    0.7730   32.0280 C.3     1  UNL1        0.0229
     10 C         -25.3360    0.6840   33.5440 C.3     1  UNL1        0.0204
     11 C         -24.8290   -0.7150   33.9050 C.3     1  UNL1        0.0888
     12 N         -24.7580   -1.4810   32.6460 N.3     1  UNL1       -0.2154
     13 C         -25.6880    1.6140   26.4610 C.3     1  UNL1        0.1641
     14 C         -26.2500    2.9200   26.3950 C.2     1  UNL1        0.0748
     15 C         -25.6420    4.0930   27.1230 C.2     1  UNL1        0.2641
     16 N         -25.6140    5.2520   26.4490 N.am    1  UNL1       -0.1999
     17 C         -25.0260    6.4790   26.9630 C.3     1  UNL1        0.1388
     18 O         -25.1430    3.9660   28.2430 O.2     1  UNL1       -0.2686
     19 C         -27.4380    3.0910   25.6450 C.2     1  UNL1        0.1038
     20 N         -28.0750    2.0890   25.0030 N.2     1  UNL1       -0.2118
     21 C         -27.5430    0.8490   25.0790 C.2     1  UNL1        0.2359
     22 O         -28.1930   -0.2080   24.4770 O.2     1  UNL1       -0.4585
     23 C         -29.4600    0.0050   23.8660 C.3     1  UNL1        0.2423
     24 C         -30.0650   -1.3770   23.5730 C.3     1  UNL1        0.2292
     25 O         -30.7290   -1.8780   24.7210 O.3     1  UNL1       -0.2162
     26 C         -26.3540    0.5760   25.7770 C.3     1  UNL1        0.2598
     27 F         -25.8600   -0.6810   25.7950 F       1  UNL1       -0.2250
     28 C         -29.6965    1.7438   29.2835 C.3     1  UNL1        0.1189
     29 C         -21.5413    1.8207   27.0724 C.2     1  UNL1        0.0428
     30 O         -23.3833    2.1235   25.5906 O.2     1  UNL1       -0.2905
     31 C         -23.7136    1.0752   27.8386 C.2     1  UNL1        0.1393
     32 O         -27.3173    2.9971   29.7024 O.2     1  UNL1       -0.2490
     33 O         -23.6211   -0.4419   29.9115 O.2     1  UNL1       -0.4719
     34 C         -27.2200    1.8852   29.2851 C.2     1  UNL1        0.3432
     35 C         -21.6638    0.4394   29.0269 C.2     1  UNL1        0.0385
     36 C         -29.3028   -0.3187   27.4457 C.3     1  UNL1        0.0587
     37 N         -25.0703    1.1450   27.7286 N.pl3   1  UNL1       -0.2045
     38 O         -28.9974   -0.6652   29.9463 O.3     1  UNL1       -0.2006
     39 C         -20.9153    1.1503   28.1131 C.2     1  UNL1        0.0065
     40 C         -28.4762   -0.2147   28.7286 C.3     1  UNL1        0.2315
     41 C         -22.9033    1.6949   26.8532 C.2     1  UNL1        0.2066
     42 C         -23.0356    0.3545   28.9058 C.2     1  UNL1        0.1568
     43 F         -22.6143    2.8331   24.8671 F       1  UNL1        0.0138
     44 N         -25.8453    1.3444   29.0337 N.am    1  UNL1       -0.0919
     45 N         -28.3906    1.2267   28.9970 N.am    1  UNL1       -0.2352
@<TRIPOS>BOND
     1     1    33    1
     2     2     7    1
     3     2     1    1
     4     3     2    2
     5     4     3    1
     6     4     5    2
     7     5     6    1
     8     6     7    2
     9     8     1    1
    10     8     9    1
    11     8    12    1
    12     9    10    1
    13    10    11    1
    14    12    11    1
    15    13    37    1
    16    14    13    1
    17    14    15    1
    18    15    18    2
    19    16    17    1
    20    16    15    1
    21    19    14    2
    22    20    21    2
    23    20    19    1
    24    21    26    1
    25    22    21    1
    26    23    22    1
    27    24    23    1
    28    24    25    1
    29    26    27    1
    30    26    13    1
    31    29    39    1
    32    30    41    1
    33    31    42    2
    34    34    32    2
    35    37    31    1
    36    37    44    1
    37    39    35    2
    38    40    36    1
    39    40    45    1
    40    40    38    1
    41    41    29    2
    42    41    31    1
    43    42    35    1
    44    42    33    1
    45    43    30    1
    46    44    34    1
    47    45    28    1
    48    45    34   am
