@<TRIPOS>MOLECULE
No_3531-gen_results/8p0m/2024-11-27-11-27-31/
 32 36 0 0 0
SMALL
GASTEIGER

@<TRIPOS>ATOM
      1 C         -28.0162   -0.8135   28.8779 C.ar    1  UNL1        0.0787
      2 C         -28.4690   -0.7850   29.8287 C.ar    1  UNL1        0.1451
      3 C         -26.5042   -0.7777   28.8766 C.ar    1  UNL1        0.1951
      4 C         -25.8103   -0.8531   30.1028 C.ar    1  UNL1        0.0213
      5 C         -27.9906   -0.8916   31.2257 C.ar    1  UNL1        0.0369
      6 C         -26.6042   -0.8676   31.2652 C.ar    1  UNL1        0.0023
      7 O         -29.9385   -0.8194   29.8358 O.3     1  UNL1       -0.4459
      8 C         -30.5356   -0.1119   28.9448 C.3     1  UNL1        0.3512
      9 C         -31.4501   -0.5433   28.1111 C.ar    1  UNL1        0.0520
     10 C         -31.8722   -1.9167   28.3390 C.ar    1  UNL1        0.0020
     11 C         -32.7506   -2.5838   27.3852 C.ar    1  UNL1       -0.0001
     12 C         -33.1181   -1.8430   26.2089 C.ar    1  UNL1       -0.0000
     13 C         -32.6730   -0.5572   25.9871 C.ar    1  UNL1       -0.0001
     14 C         -31.7864    0.0770   26.9108 C.ar    1  UNL1        0.0020
     15 F         -30.2203    1.1570   28.9301 F       1  UNL1       -0.1833
     16 C         -24.3795   -0.8127   30.1166 C.3     1  UNL1        0.0558
     17 C         -23.6340   -0.4285   29.0450 C.ar    1  UNL1       -0.0180
     18 C         -22.1880   -0.3164   29.1903 C.ar    1  UNL1       -0.0039
     19 C         -21.4461    0.1884   28.1118 C.ar    1  UNL1       -0.0003
     20 C         -22.1031    1.1116   27.2521 C.ar    1  UNL1       -0.0000
     21 C         -23.5100    1.2629   27.2833 C.ar    1  UNL1       -0.0006
     22 C         -24.1562    2.1849   26.4791 C.ar    1  UNL1       -0.0000
     23 C         -24.1802    0.5785   28.1806 C.ar    1  UNL1       -0.0076
     24 C         -25.4708    2.1645   26.1927 C.ar    1  UNL1       -0.0003
     25 C         -26.2389    3.0033   25.6109 C.ar    1  UNL1       -0.0000
     26 C         -27.6443    2.8282   25.5188 C.ar    1  UNL1       -0.0000
     27 C         -28.1034    1.5957   25.9213 C.ar    1  UNL1       -0.0000
     28 C         -27.3247    0.5846   26.4206 C.ar    1  UNL1       -0.0003
     29 C         -25.9654    0.8522   26.5719 C.ar    1  UNL1       -0.0040
     30 C         -25.2718    0.0797   27.5989 C.ar    1  UNL1       -0.0221
     31 O         -26.1249   -2.0530   28.2006 O.3     1  UNL1       -0.2868
     32 C         -24.6402   -0.9683   26.6826 C.3     1  UNL1        0.0310
@<TRIPOS>BOND
     1     2     7    1
     2     7     8    1
     3     8    15    1
     4     4    16    1
     5     3    31    1
     6    30    32    1
     7    16    17    1
     8     8     9    1
     9    21    22   ar
    10    22    24   ar
    11    29    30   ar
    12    30    23   ar
    13    24    25   ar
    14    25    26   ar
    15    26    27   ar
    16    27    28   ar
    17    28    29   ar
    18    29    24   ar
    19    17    18   ar
    20    18    19   ar
    21    19    20   ar
    22    20    21   ar
    23    21    23   ar
    24    23    17   ar
    25     9    10   ar
    26    10    11   ar
    27    11    12   ar
    28    12    13   ar
    29    13    14   ar
    30    14     9   ar
    31     1     2   ar
    32     2     5   ar
    33     5     6   ar
    34     6     4   ar
    35     4     3   ar
    36     3     1   ar
