@<TRIPOS>MOLECULE
outputs/IAG933/test6/raw/output_3533_IAG933_linker_design_.xyz
 42 45 0 0 0
SMALL
GASTEIGER

@<TRIPOS>ATOM
      1 C         -24.8550   -1.0120   30.1430 C.3     1  UNL1        0.0599
      2 C         -24.9730   -2.5050   29.7880 C.2     1  UNL1       -0.0194
      3 C         -23.9060   -3.1730   29.1460 C.2     1  UNL1       -0.0042
      4 C         -23.9890   -4.5490   28.8530 C.2     1  UNL1       -0.0003
      5 C         -25.1370   -5.2800   29.2050 C.2     1  UNL1       -0.0000
      6 C         -26.2320   -4.6110   29.7840 C.2     1  UNL1       -0.0003
      7 C         -26.1550   -3.2320   30.0650 C.2     1  UNL1       -0.0042
      8 C         -25.3870   -0.6790   31.5710 C.3     1  UNL1        0.0785
      9 C         -25.1890    0.7730   32.0280 C.3     1  UNL1        0.0192
     10 C         -25.3360    0.6840   33.5440 C.3     1  UNL1        0.0202
     11 C         -24.8290   -0.7150   33.9050 C.3     1  UNL1        0.0887
     12 N         -24.7580   -1.4810   32.6460 N.3     1  UNL1       -0.2191
     13 C         -25.6880    1.6140   26.4610 C.2     1  UNL1        0.0881
     14 C         -26.2500    2.9200   26.3950 C.2     1  UNL1        0.0899
     15 C         -25.6420    4.0930   27.1230 C.2     1  UNL1        0.2676
     16 N         -25.6140    5.2520   26.4490 N.am    1  UNL1       -0.1997
     17 C         -25.0260    6.4790   26.9630 C.3     1  UNL1        0.1388
     18 O         -25.1430    3.9660   28.2430 O.2     1  UNL1       -0.2683
     19 C         -27.4380    3.0910   25.6450 C.2     1  UNL1        0.1080
     20 N         -28.0750    2.0890   25.0030 N.2     1  UNL1       -0.2080
     21 C         -27.5430    0.8490   25.0790 C.2     1  UNL1        0.2546
     22 O         -28.1930   -0.2080   24.4770 O.2     1  UNL1       -0.4558
     23 C         -29.4600    0.0050   23.8660 C.3     1  UNL1        0.2426
     24 C         -30.0650   -1.3770   23.5730 C.3     1  UNL1        0.2292
     25 O         -30.7290   -1.8780   24.7210 O.3     1  UNL1       -0.2162
     26 C         -26.3540    0.5760   25.7770 C.2     1  UNL1        0.2063
     27 F         -25.8600   -0.6810   25.7950 F       1  UNL1       -0.1979
     28 N         -25.9874    1.0427   29.0873 N.am    1  UNL1       -0.2051
     29 C         -20.4375    0.0466   28.3342 C.2     1  UNL1        0.0699
     30 C         -21.3422   -0.5223   29.1359 C.3     1  UNL1        0.0484
     31 N         -20.7275    0.9342   27.4245 N.2     1  UNL1       -0.2383
     32 N         -24.3464    1.3097   27.0614 N.pl3   1  UNL1       -0.2777
     33 C         -24.9170    0.0994   29.0936 C.3     1  UNL1        0.1187
     34 F         -21.8126    2.3669   26.0305 F       1  UNL1       -0.2054
     35 O         -23.2741    1.2238   24.9592 O.3     1  UNL1       -0.1953
     36 C         -21.9963    1.4666   26.9783 C.3     1  UNL1        0.3131
     37 O         -27.3822   -0.6765   28.5889 O.2     1  UNL1       -0.2733
     38 C         -28.2086    1.1709   29.9359 C.3     1  UNL1        0.0964
     39 C         -23.1245    1.6648   26.2910 C.3     1  UNL1        0.2847
     40 C         -27.1587    0.4068   29.1434 C.2     1  UNL1        0.2419
     41 C         -23.7992    0.4249   28.3648 C.3     1  UNL1        0.0958
     42 C         -22.6342   -0.1178   29.1270 C.3     1  UNL1        0.0279
@<TRIPOS>BOND
     1     1    33    1
     2     2     7    1
     3     2     1    1
     4     3     2    2
     5     4     3    1
     6     4     5    2
     7     5     6    1
     8     6     7    2
     9     8     1    1
    10     8     9    1
    11     8    12    1
    12     9    10    1
    13    10    11    1
    14    12    11    1
    15    13    32    1
    16    14    13    1
    17    14    15    1
    18    15    18    2
    19    16    17    1
    20    16    15    1
    21    19    14    2
    22    20    21    2
    23    20    19    1
    24    21    26    1
    25    22    21    1
    26    23    22    1
    27    24    23    1
    28    24    25    1
    29    26    27    1
    30    26    13    2
    31    28    40    1
    32    29    30    1
    33    31    29    2
    34    32    41    1
    35    33    28    1
    36    36    34    1
    37    36    31    1
    38    37    40    2
    39    39    35    1
    40    39    36    1
    41    39    32    1
    42    40    38    1
    43    41    33    1
    44    41    42    1
    45    42    30    1
