@<TRIPOS>MOLECULE
No_3535-gen_results/8p0m/2024-11-27-11-27-31/
 12 13 0 0 0
SMALL
GASTEIGER

@<TRIPOS>ATOM
      1 C         -28.0162   -0.8135   28.8779 C.ar    1  UNL1        0.0000
      2 C         -27.0636   -0.1189   28.6079 C.ar    1  UNL1        0.0000
      3 C         -26.8756    1.1325   28.9134 C.ar    1  UNL1        0.0000
      4 C         -27.9014    1.8066   29.6436 C.ar    1  UNL1        0.0000
      5 C         -28.9449    1.0388   30.0360 C.ar    1  UNL1        0.0000
      6 C         -29.0273   -0.2890   29.7051 C.ar    1  UNL1        0.0000
      7 C         -25.6959    1.9505   28.4764 C.ar    1  UNL1        0.0000
      8 C         -24.9391    2.5396   29.0692 C.ar    1  UNL1        0.0000
      9 C         -25.5172    1.9833   26.9994 C.ar    1  UNL1        0.0000
     10 C         -24.3598    2.5248   26.4704 C.ar    1  UNL1        0.0000
     11 C         -23.6935    3.2090   28.6757 C.ar    1  UNL1        0.0000
     12 C         -23.4316    3.1830   27.3231 C.ar    1  UNL1        0.0000
@<TRIPOS>BOND
     1     3     7    1
     2     1     2   ar
     3     2     3   ar
     4     3     4   ar
     5     4     5   ar
     6     5     6   ar
     7     6     1   ar
     8     7     8   ar
     9     8    11   ar
    10    11    12   ar
    11    12    10   ar
    12    10     9   ar
    13     9     7   ar
