@<TRIPOS>MOLECULE
No_3537-gen_results/8p0m/2024-11-27-11-27-31/
 12 12 0 0 0
SMALL
GASTEIGER

@<TRIPOS>ATOM
      1 C         -28.0162   -0.8135   28.8779 C.ar    1  UNL1       -0.0061
      2 C         -27.0636   -0.1189   28.6079 C.ar    1  UNL1       -0.0029
      3 C         -27.0010    0.6913   27.4910 C.ar    1  UNL1       -0.0002
      4 C         -28.1373    0.7363   26.6350 C.ar    1  UNL1        0.0016
      5 C         -29.2360    0.0765   27.0690 C.ar    1  UNL1        0.0207
      6 C         -29.2177   -0.6429   28.1747 C.ar    1  UNL1       -0.0013
      7 C         -28.0030   -1.6604   30.1266 C.3     1  UNL1        0.0992
      8 N         -27.0435   -2.4948   30.2691 N.3     1  UNL1       -0.2665
      9 C         -25.7647   -2.0663   30.2738 C.3     1  UNL1        0.0899
     10 C         -27.2602   -3.8864   30.0616 C.3     1  UNL1        0.0899
     11 C         -30.4434    0.1904   26.2123 C.2     1  UNL1        0.1221
     12 N         -30.4109    0.2022   24.9568 N.2     1  UNL1       -0.1464
@<TRIPOS>BOND
     1     1     7    1
     2     7     8    1
     3     8     9    1
     4     8    10    1
     5     5    11    1
     6    11    12    2
     7     1     2   ar
     8     2     3   ar
     9     3     4   ar
    10     4     5   ar
    11     5     6   ar
    12     6     1   ar
