@<TRIPOS>MOLECULE
No_3542-gen_results/8p0m/2024-11-27-11-27-31/
 15 16 0 0 0
SMALL
GASTEIGER

@<TRIPOS>ATOM
      1 C         -28.0162   -0.8135   28.8779 C.ar    1  UNL1        0.0000
      2 C         -28.4690   -0.7850   29.8287 C.ar    1  UNL1        0.0000
      3 C         -26.5455   -0.8762   28.8500 C.ar    1  UNL1        0.0000
      4 C         -25.8041   -1.0324   30.0571 C.ar    1  UNL1        0.0000
      5 C         -26.5373   -1.0386   31.2171 C.ar    1  UNL1        0.0000
      6 C         -27.8843   -0.9532   31.1862 C.ar    1  UNL1        0.0000
      7 C         -24.4101   -0.9712   29.8639 C.ar    1  UNL1        0.0003
      8 C         -23.6516   -1.6248   30.4524 C.ar    1  UNL1        0.0000
      9 C         -23.8639   -0.0759   28.8690 C.ar    1  UNL1        0.0080
     10 C         -22.4131    0.0597   28.8178 C.ar    1  UNL1        0.0975
     11 C         -22.1855   -1.5143   30.5146 C.ar    1  UNL1        0.0003
     12 C         -21.6411   -0.6816   29.5939 C.ar    1  UNL1        0.0080
     13 C         -21.8725    1.0635   27.8689 C.2     1  UNL1        0.4766
     14 N         -20.8471    1.8397   28.2677 N.pl3   1  UNL1        0.2047
     15 N         -22.5307    1.4583   26.7847 N.pl3   1  UNL1        0.2047
@<TRIPOS>BOND
     1     4     7    1
     2    10    13    1
     3    13    14    2
     4    13    15    1
     5     1     2   ar
     6     2     6   ar
     7     6     5   ar
     8     5     4   ar
     9     4     3   ar
    10     3     1   ar
    11     7     8   ar
    12     8    11   ar
    13    11    12   ar
    14    12    10   ar
    15    10     9   ar
    16     9     7   ar
