@<TRIPOS>MOLECULE
outputs/IAG933/test6/raw/output_3544_IAG933_linker_design_.xyz
 45 48 0 0 0
SMALL
GASTEIGER

@<TRIPOS>ATOM
      1 C         -24.8550   -1.0120   30.1430 C.3     1  UNL1        0.1334
      2 C         -24.9730   -2.5050   29.7880 C.2     1  UNL1       -0.0012
      3 C         -23.9060   -3.1730   29.1460 C.2     1  UNL1       -0.0026
      4 C         -23.9890   -4.5490   28.8530 C.2     1  UNL1       -0.0003
      5 C         -25.1370   -5.2800   29.2050 C.2     1  UNL1       -0.0000
      6 C         -26.2320   -4.6110   29.7840 C.2     1  UNL1       -0.0003
      7 C         -26.1550   -3.2320   30.0650 C.2     1  UNL1       -0.0026
      8 C         -25.3870   -0.6790   31.5710 C.3     1  UNL1        0.0969
      9 C         -25.1890    0.7730   32.0280 C.3     1  UNL1        0.0210
     10 C         -25.3360    0.6840   33.5440 C.3     1  UNL1        0.0203
     11 C         -24.8290   -0.7150   33.9050 C.3     1  UNL1        0.0888
     12 N         -24.7580   -1.4810   32.6460 N.3     1  UNL1       -0.2174
     13 C         -25.6880    1.6140   26.4610 C.2     1  UNL1        0.0286
     14 C         -26.2500    2.9200   26.3950 C.2     1  UNL1        0.0733
     15 C         -25.6420    4.0930   27.1230 C.2     1  UNL1        0.2661
     16 N         -25.6140    5.2520   26.4490 N.am    1  UNL1       -0.1997
     17 C         -25.0260    6.4790   26.9630 C.3     1  UNL1        0.1388
     18 O         -25.1430    3.9660   28.2430 O.2     1  UNL1       -0.2683
     19 C         -27.4380    3.0910   25.6450 C.2     1  UNL1        0.1064
     20 N         -28.0750    2.0890   25.0030 N.2     1  UNL1       -0.2081
     21 C         -27.5430    0.8490   25.0790 C.2     1  UNL1        0.2530
     22 O         -28.1930   -0.2080   24.4770 O.2     1  UNL1       -0.4558
     23 C         -29.4600    0.0050   23.8660 C.3     1  UNL1        0.2426
     24 C         -30.0650   -1.3770   23.5730 C.3     1  UNL1        0.2292
     25 O         -30.7290   -1.8780   24.7210 O.3     1  UNL1       -0.2162
     26 C         -26.3540    0.5760   25.7770 C.2     1  UNL1        0.1899
     27 F         -25.8600   -0.6810   25.7950 F       1  UNL1       -0.1996
     28 O         -22.5565    5.1636   32.6409 O.co2   1  UNL1       -0.2455
     29 C         -23.6952    4.9766   32.2323 C.2     1  UNL1        0.3687
     30 C         -20.8857    1.2784   27.0563 C.2     1  UNL1        0.0412
     31 O         -24.6642    5.1068   32.9349 O.co2   1  UNL1       -0.2455
     32 N         -24.4805    0.1625   29.3625 N.am    1  UNL1       -0.2007
     33 C         -21.9678    0.7188   29.1458 C.2     1  UNL1        0.0368
     34 C         -23.0521    1.5077   28.7826 C.2     1  UNL1        0.1383
     35 C         -22.0575    1.8251   26.6117 C.2     1  UNL1        0.1886
     36 C         -25.0259    0.2662   28.0722 C.2     1  UNL1        0.2497
     37 O         -25.5331   -0.8010   27.8197 O.2     1  UNL1       -0.2726
     38 C         -20.8710    0.6355   28.2565 C.2     1  UNL1        0.0063
     39 F         -23.0452    2.9958   25.0018 F       1  UNL1        0.0138
     40 C         -23.7843    4.6488   30.7720 C.3     1  UNL1        0.1612
     41 O         -21.9032    2.4356   25.3686 O.2     1  UNL1       -0.2922
     42 C         -23.6533    3.1461   30.7636 C.3     1  UNL1        0.2172
     43 C         -24.4803    1.2220   27.1208 C.3     1  UNL1        0.1311
     44 O         -23.8443    2.2182   29.7049 O.2     1  UNL1       -0.4750
     45 C         -23.2096    1.6279   27.4040 C.2     1  UNL1        0.0625
@<TRIPOS>BOND
     1     1    32    1
     2     2     7    1
     3     2     1    1
     4     3     2    2
     5     4     3    1
     6     4     5    2
     7     5     6    1
     8     6     7    2
     9     8     1    1
    10     8     9    1
    11     8    12    1
    12     9    10    1
    13    10    11    1
    14    12    11    1
    15    13    43    1
    16    14    13    1
    17    14    15    1
    18    15    18    2
    19    16    17    1
    20    16    15    1
    21    19    14    2
    22    20    21    2
    23    20    19    1
    24    21    26    1
    25    22    21    1
    26    23    22    1
    27    24    23    1
    28    24    25    1
    29    26    27    1
    30    26    13    2
    31    29    28   ar
    32    29    31   ar
    33    30    38    1
    34    34    33    1
    35    34    44    1
    36    35    30    2
    37    35    45    1
    38    36    32    1
    39    37    36    2
    40    38    33    2
    41    39    41    1
    42    40    29    1
    43    41    35    1
    44    42    40    1
    45    43    45    1
    46    43    36    1
    47    44    42    1
    48    45    34    2
