@<TRIPOS>MOLECULE
No_3546-gen_results/8p0m/2024-11-27-11-27-31/
 7 7 0 0 0
SMALL
GASTEIGER

@<TRIPOS>ATOM
      1 F         -28.0727   -1.2542   28.5316 F       1  UNL1       -0.2042
      2 C         -27.3591   -0.3792   28.7224 C.ar    1  UNL1        0.1401
      3 C         -26.3323   -0.6441   29.4520 C.ar    1  UNL1        0.0296
      4 C         -27.5334    0.8592   28.0521 C.ar    1  UNL1        0.0296
      5 C         -26.4657    1.8236   28.0839 C.ar    1  UNL1        0.0023
      6 C         -25.2045    0.4067   29.6244 C.ar    1  UNL1        0.0023
      7 C         -25.3642    1.6216   28.9343 C.ar    1  UNL1        0.0001
@<TRIPOS>BOND
     1     1     2    1
     2     2     3   ar
     3     3     6   ar
     4     6     7   ar
     5     7     5   ar
     6     5     4   ar
     7     4     2   ar
