@<TRIPOS>MOLECULE
outputs/IAG933/test6/raw/output_3547_IAG933_linker_design_.xyz
 45 48 0 0 0
SMALL
GASTEIGER

@<TRIPOS>ATOM
      1 C         -24.8550   -1.0120   30.1430 C.3     1  UNL1        0.1113
      2 C         -24.9730   -2.5050   29.7880 C.2     1  UNL1       -0.0051
      3 C         -23.9060   -3.1730   29.1460 C.2     1  UNL1       -0.0029
      4 C         -23.9890   -4.5490   28.8530 C.2     1  UNL1       -0.0003
      5 C         -25.1370   -5.2800   29.2050 C.2     1  UNL1       -0.0000
      6 C         -26.2320   -4.6110   29.7840 C.2     1  UNL1       -0.0003
      7 C         -26.1550   -3.2320   30.0650 C.2     1  UNL1       -0.0029
      8 C         -25.3870   -0.6790   31.5710 C.3     1  UNL1        0.0929
      9 C         -25.1890    0.7730   32.0280 C.3     1  UNL1        0.0206
     10 C         -25.3360    0.6840   33.5440 C.3     1  UNL1        0.0203
     11 C         -24.8290   -0.7150   33.9050 C.3     1  UNL1        0.0888
     12 N         -24.7580   -1.4810   32.6460 N.3     1  UNL1       -0.2177
     13 C         -25.6880    1.6140   26.4610 C.3     1  UNL1        0.0805
     14 C         -26.2500    2.9200   26.3950 C.2     1  UNL1        0.0553
     15 C         -25.6420    4.0930   27.1230 C.2     1  UNL1        0.2625
     16 N         -25.6140    5.2520   26.4490 N.am    1  UNL1       -0.2000
     17 C         -25.0260    6.4790   26.9630 C.3     1  UNL1        0.1388
     18 O         -25.1430    3.9660   28.2430 O.2     1  UNL1       -0.2687
     19 C         -27.4380    3.0910   25.6450 C.2     1  UNL1        0.1022
     20 N         -28.0750    2.0890   25.0030 N.2     1  UNL1       -0.2119
     21 C         -27.5430    0.8490   25.0790 C.2     1  UNL1        0.2341
     22 O         -28.1930   -0.2080   24.4770 O.2     1  UNL1       -0.4585
     23 C         -29.4600    0.0050   23.8660 C.3     1  UNL1        0.2423
     24 C         -30.0650   -1.3770   23.5730 C.3     1  UNL1        0.2292
     25 O         -30.7290   -1.8780   24.7210 O.3     1  UNL1       -0.2162
     26 C         -26.3540    0.5760   25.7770 C.3     1  UNL1        0.2405
     27 F         -25.8600   -0.6810   25.7950 F       1  UNL1       -0.2269
     28 C         -29.4629    1.9182   29.7251 C.3     1  UNL1        0.0821
     29 C         -32.0561    4.5200   30.1334 C.3     1  UNL1        0.0215
     30 C         -24.9704    1.2522   27.5249 C.3     1  UNL1        0.1071
     31 N         -30.1858    3.0833   30.0500 N.3     1  UNL1       -0.2479
     32 N         -22.7121    2.0142   26.8230 N.am    1  UNL1       -0.2760
     33 C         -25.7603    0.9181   28.5385 C.3     1  UNL1        0.1392
     34 O         -30.4540    3.1117   27.9803 O.3     1  UNL1       -0.2050
     35 O         -22.8831    0.4218   28.3528 O.2     1  UNL1       -0.2748
     36 C         -31.2375    4.9172   28.9125 C.3     1  UNL1        0.0515
     37 C         -23.0264    2.3862   25.4557 C.3     1  UNL1        0.1149
     38 C         -21.3213    1.8465   27.1558 C.3     1  UNL1        0.1149
     39 C         -27.3189    0.8957   28.9949 C.2     1  UNL1        0.1682
     40 O         -28.0240   -0.0756   28.8162 O.2     1  UNL1       -0.2945
     41 C         -30.3831    3.8080   28.6592 C.3     1  UNL1        0.2127
     42 C         -31.6397    2.9936   30.3142 C.3     1  UNL1        0.0745
     43 C         -23.4936    1.2258   27.5351 C.2     1  UNL1        0.2275
     44 N         -25.4252   -0.1984   29.3790 N.3     1  UNL1       -0.2071
     45 C         -27.9645    2.1413   29.4969 C.3     1  UNL1        0.0833
@<TRIPOS>BOND
     1     1    44    1
     2     2     7    1
     3     2     1    1
     4     3     2    2
     5     4     3    1
     6     4     5    2
     7     5     6    1
     8     6     7    2
     9     8     1    1
    10     8     9    1
    11     8    12    1
    12     9    10    1
    13    10    11    1
    14    12    11    1
    15    13    30    1
    16    14    13    1
    17    14    15    1
    18    15    18    2
    19    16    17    1
    20    16    15    1
    21    19    14    2
    22    20    21    2
    23    20    19    1
    24    21    26    1
    25    22    21    1
    26    23    22    1
    27    24    23    1
    28    24    25    1
    29    26    27    1
    30    26    13    1
    31    28    31    1
    32    29    42    1
    33    30    43    1
    34    30    33    1
    35    31    42    1
    36    32    38    1
    37    32    43   am
    38    33    39    1
    39    33    44    1
    40    36    29    1
    41    37    32    1
    42    39    45    1
    43    40    39    2
    44    41    34    1
    45    41    36    1
    46    41    31    1
    47    43    35    2
    48    45    28    1
