@<TRIPOS>MOLECULE
No_3551-gen_results/8p0m/2024-11-27-11-27-31/
 13 13 0 0 0
SMALL
GASTEIGER

@<TRIPOS>ATOM
      1 C         -28.0162   -0.8135   28.8779 C.ar    1  UNL1       -0.0026
      2 C         -28.4690   -0.7850   29.8287 C.ar    1  UNL1       -0.0003
      3 C         -28.1816    0.4277   28.1134 C.ar    1  UNL1       -0.0007
      4 C         -28.9841    1.4155   28.5154 C.ar    1  UNL1       -0.0026
      5 C         -29.3802    0.1384   30.4612 C.ar    1  UNL1       -0.0000
      6 C         -29.5415    1.2736   29.7242 C.ar    1  UNL1       -0.0003
      7 C         -27.4586    0.4934   26.7701 C.3     1  UNL1        0.1386
      8 N         -26.1290    0.3456   26.7317 N.pl3   1  UNL1       -0.2315
      9 C         -25.4038   -0.0103   27.7776 C.2     1  UNL1        0.0804
     10 C         -24.0267    0.4819   27.8585 C.2     1  UNL1        0.0171
     11 C         -23.1303    0.1836   28.9145 C.2     1  UNL1       -0.0032
     12 C         -21.8728    0.7974   28.9568 C.2     1  UNL1       -0.0257
     13 C         -21.4150    1.6119   27.9475 C.3     1  UNL1        0.0307
@<TRIPOS>BOND
     1     3     7    1
     2     7     8    1
     3     8     9    1
     4     9    10    2
     5    10    11    1
     6    11    12    2
     7    12    13    1
     8     1     2   ar
     9     2     5   ar
    10     5     6   ar
    11     6     4   ar
    12     4     3   ar
    13     3     1   ar
