@<TRIPOS>MOLECULE
No_3552-gen_results/8p0m/2024-11-27-11-27-31/
 30 33 0 0 0
SMALL
GASTEIGER

@<TRIPOS>ATOM
      1 C         -28.0162   -0.8135   28.8779 C.ar    1  UNL1        0.1100
      2 C         -27.0636   -0.1190   28.6079 C.ar    1  UNL1        0.1456
      3 C         -26.9716    0.7139   27.5060 C.ar    1  UNL1        0.0344
      4 C         -28.1053    0.7744   26.6421 C.ar    1  UNL1        0.0075
      5 C         -29.2008    0.1044   27.0527 C.ar    1  UNL1        0.0540
      6 C         -28.0219   -1.5899   30.0879 C.2     1  UNL1        0.3485
      7 C         -29.1640   -0.6394   28.1484 C.ar    1  UNL1        0.0140
      8 O         -27.1149   -2.3777   30.3500 O.3     1  UNL1       -0.4214
      9 O         -29.0705   -1.6301   30.8602 O.2     1  UNL1       -0.2444
     10 C         -30.4877    0.1435   26.3307 C.2     1  UNL1        0.2491
     11 N         -30.8795    1.1817   25.8481 N.am    1  UNL1       -0.2726
     12 O         -31.1905   -0.8780   26.1868 O.2     1  UNL1       -0.2699
     13 C         -30.2818    2.5492   26.0388 C.3     1  UNL1        0.1152
     14 C         -32.1568    1.2506   25.0384 C.3     1  UNL1        0.1152
     15 C         -25.7049    1.3958   27.0764 C.ar    1  UNL1        0.0029
     16 C         -25.5445    2.2762   26.2913 C.ar    1  UNL1        0.0001
     17 C         -24.1937    2.8003   26.0010 C.ar    1  UNL1       -0.0001
     18 C         -23.1048    2.2052   26.5772 C.ar    1  UNL1        0.0039
     19 C         -24.4531    0.7952   27.6368 C.ar    1  UNL1        0.0039
     20 C         -23.2766    1.2374   27.4748 C.ar    1  UNL1        0.0714
     21 C         -22.0798    0.6733   28.1648 C.3     1  UNL1        0.4186
     22 F         -21.9662    0.9349   29.2952 F       1  UNL1       -0.1659
     23 F         -20.9385    1.1866   27.5243 F       1  UNL1       -0.1659
     24 F         -22.0336   -0.6207   28.0278 F       1  UNL1       -0.1659
     25 C         -25.8117   -1.9455   30.2667 C.2     1  UNL1        0.1703
     26 C         -24.8023   -2.8395   30.9059 C.2     1  UNL1        0.0369
     27 C         -23.3997   -2.1977   30.5159 C.2     1  UNL1        0.0024
     28 C         -23.6819   -1.1240   29.7608 C.2     1  UNL1        0.0245
     29 C         -25.1291   -0.9609   29.6326 C.3     1  UNL1        0.2443
     30 O         -25.7591   -0.0769   28.8728 O.3     1  UNL1       -0.4669
@<TRIPOS>BOND
     1     1     6    1
     2     6     8    1
     3     6     9    2
     4     5    10    1
     5    10    11   am
     6    10    12    2
     7    11    13    1
     8    11    14    1
     9     3    15    1
    10    20    21    1
    11    21    22    1
    12    21    23    1
    13    21    24    1
    14     8    25    1
    15    25    26    2
    16    26    27    1
    17    27    28    2
    18    25    29    1
    19    28    29    1
    20     2    30    1
    21    29    30    1
    22    15    16   ar
    23    16    17   ar
    24    17    18   ar
    25    18    20   ar
    26    20    19   ar
    27    19    15   ar
    28     1     2   ar
    29     2     3   ar
    30     3     4   ar
    31     4     5   ar
    32     5     7   ar
    33     7     1   ar
