@<TRIPOS>MOLECULE
No_3554-gen_results/8p0m/2024-11-27-11-27-31/
 30 32 0 0 0
SMALL
GASTEIGER

@<TRIPOS>ATOM
      1 C         -28.0162   -0.8135   28.8779 C.ar    1  UNL1        0.0048
      2 C         -27.0636   -0.1189   28.6079 C.ar    1  UNL1        0.0067
      3 C         -25.7647   -0.3897   29.0360 C.ar    1  UNL1        0.0798
      4 C         -25.5296   -1.5302   29.9014 C.ar    1  UNL1        0.0067
      5 C         -26.6577   -2.2915   30.2035 C.ar    1  UNL1        0.0048
      6 C         -27.8548   -1.9555   29.7630 C.ar    1  UNL1        0.0550
      7 C         -24.5349    0.4128   28.7431 C.2     1  UNL1        0.3878
      8 O         -24.4907    1.1615   27.8504 O.co2   1  UNL1       -0.2406
      9 O         -23.6004    0.4793   29.7120 O.co2   1  UNL1       -0.2406
     10 C         -29.0096   -2.8111   30.1893 C.2     1  UNL1        0.2648
     11 N         -28.8504   -4.0941   30.5102 N.am    1  UNL1       -0.2017
     12 C         -29.8438   -5.0185   30.3462 C.3     1  UNL1        0.1155
     13 C         -30.2585   -5.7042   31.5005 C.3     1  UNL1        0.0235
     14 C         -31.5006   -5.3933   31.9057 C.3     1  UNL1        0.0051
     15 C         -31.5968   -4.2711   32.6187 C.3     1  UNL1        0.0150
     16 C         -32.1459   -6.6082   32.7334 C.3     1  UNL1        0.0330
     17 C         -32.9611   -3.8628   33.0116 C.3     1  UNL1        0.1150
     18 C         -33.6155   -4.8535   33.8533 C.3     1  UNL1        0.0477
     19 C         -33.6167   -6.1635   33.2028 C.3     1  UNL1        0.1529
     20 O         -30.1306   -2.2931   30.2542 O.2     1  UNL1       -0.2684
     21 C         -32.8960   -2.4681   33.7362 C.2     1  UNL1        0.3676
     22 O         -32.9209   -1.5239   32.9511 O.co2   1  UNL1       -0.2453
     23 O         -32.8725   -2.3703   34.9760 O.co2   1  UNL1       -0.2453
     24 C         -33.6814   -3.7065   31.6684 C.ar    1  UNL1       -0.0125
     25 C         -33.7266   -2.7010   31.0208 C.ar    1  UNL1       -0.0038
     26 C         -34.3863   -2.5681   29.6529 C.ar    1  UNL1       -0.0003
     27 C         -35.1135   -3.6498   29.3548 C.ar    1  UNL1       -0.0000
     28 C         -35.1096   -4.8104   30.1353 C.ar    1  UNL1       -0.0003
     29 C         -34.4250   -4.8215   31.2304 C.ar    1  UNL1       -0.0038
     30 O         -34.4833   -6.3564   32.3024 O.3     1  UNL1       -0.2231
@<TRIPOS>BOND
     1     3     7    1
     2     7     8   ar
     3     7     9   ar
     4     6    10    1
     5    10    11   am
     6    11    12    1
     7    12    13    1
     8    13    14    1
     9    14    16    1
    10    15    17    1
    11    17    18    1
    12    16    19    1
    13    18    19    1
    14    10    20    2
    15    17    21    1
    16    21    22   ar
    17    21    23   ar
    18    17    24    1
    19    19    30    1
    20    15    14    1
    21     1     2   ar
    22     2     3   ar
    23     3     4   ar
    24     4     5   ar
    25     5     6   ar
    26     6     1   ar
    27    24    25   ar
    28    25    26   ar
    29    26    27   ar
    30    27    28   ar
    31    28    29   ar
    32    29    24   ar
