@<TRIPOS>MOLECULE
No_3557-gen_results/8p0m/2024-11-27-11-27-31/
 17 17 0 0 0
SMALL
GASTEIGER

@<TRIPOS>ATOM
      1 C         -28.0162   -0.8135   28.8779 C.2     1  UNL1        0.0544
      2 C         -27.0636   -0.1189   28.6079 C.2     1  UNL1       -0.0004
      3 C         -25.7647   -0.3897   29.0360 C.3     1  UNL1        0.0262
      4 C         -24.5516    0.4058   28.7646 C.3     1  UNL1        0.0138
      5 C         -24.6957    1.4480   27.7988 C.3     1  UNL1        0.0841
      6 C         -25.9755    1.7250   27.3077 C.3     1  UNL1        0.0571
      7 C         -27.0718    1.0134   27.6535 C.3     1  UNL1        0.1850
      8 C         -28.6043   -0.4743   30.2323 C.2     1  UNL1        0.2645
      9 O         -28.2997    0.2196   30.9512 O.2     1  UNL1       -0.2684
     10 N         -29.7033   -1.4565   30.5546 N.am    1  UNL1       -0.1998
     11 C         -23.5035    2.2384   27.5075 C.2     1  UNL1        0.2604
     12 N         -23.6118    3.1788   26.6687 N.am    1  UNL1       -0.0878
     13 O         -22.3377    1.9186   27.9056 O.2     1  UNL1       -0.2717
     14 C         -30.3827   -1.3253   31.8592 C.3     1  UNL1        0.1388
     15 O         -28.2748    1.2597   27.1408 O.2     1  UNL1       -0.4720
     16 C         -28.6675    1.8972   26.3212 C.2     1  UNL1        0.1726
     17 C         -28.7794    3.1462   26.4350 C.2     1  UNL1        0.0433
@<TRIPOS>BOND
     1     1     2    2
     2     2     3    1
     3     3     4    1
     4     4     5    1
     5     5     6    1
     6     2     7    1
     7     6     7    1
     8     1     8    1
     9     8     9    2
    10     8    10   am
    11     5    11    1
    12    11    12   am
    13    11    13    2
    14    10    14    1
    15     7    15    1
    16    15    16    1
    17    16    17    2
