@<TRIPOS>MOLECULE
outputs/IAG933/test6/raw/output_356_IAG933_linker_design_.xyz
 42 46 0 0 0
SMALL
GASTEIGER

@<TRIPOS>ATOM
      1 C         -24.8550   -1.0120   30.1430 C.3     1  UNL1        0.1177
      2 C         -24.9730   -2.5050   29.7880 C.2     1  UNL1       -0.0026
      3 C         -23.9060   -3.1730   29.1460 C.2     1  UNL1       -0.0026
      4 C         -23.9890   -4.5490   28.8530 C.2     1  UNL1       -0.0003
      5 C         -25.1370   -5.2800   29.2050 C.2     1  UNL1       -0.0000
      6 C         -26.2320   -4.6110   29.7840 C.2     1  UNL1       -0.0003
      7 C         -26.1550   -3.2320   30.0650 C.2     1  UNL1       -0.0026
      8 C         -25.3870   -0.6790   31.5710 C.3     1  UNL1        0.0954
      9 C         -25.1890    0.7730   32.0280 C.3     1  UNL1        0.0209
     10 C         -25.3360    0.6840   33.5440 C.3     1  UNL1        0.0203
     11 C         -24.8290   -0.7150   33.9050 C.3     1  UNL1        0.0888
     12 N         -24.7580   -1.4810   32.6460 N.3     1  UNL1       -0.2174
     13 C         -25.6880    1.6140   26.4610 C.2     1  UNL1        0.0273
     14 C         -26.2500    2.9200   26.3950 C.2     1  UNL1        0.0731
     15 C         -25.6420    4.0930   27.1230 C.2     1  UNL1        0.2661
     16 N         -25.6140    5.2520   26.4490 N.am    1  UNL1       -0.1997
     17 C         -25.0260    6.4790   26.9630 C.3     1  UNL1        0.1388
     18 O         -25.1430    3.9660   28.2430 O.2     1  UNL1       -0.2683
     19 C         -27.4380    3.0910   25.6450 C.2     1  UNL1        0.1064
     20 N         -28.0750    2.0890   25.0030 N.2     1  UNL1       -0.2081
     21 C         -27.5430    0.8490   25.0790 C.2     1  UNL1        0.2530
     22 O         -28.1930   -0.2080   24.4770 O.2     1  UNL1       -0.4558
     23 C         -29.4600    0.0050   23.8660 C.3     1  UNL1        0.2426
     24 C         -30.0650   -1.3770   23.5730 C.3     1  UNL1        0.2292
     25 O         -30.7290   -1.8780   24.7210 O.3     1  UNL1       -0.2162
     26 C         -26.3540    0.5760   25.7770 C.2     1  UNL1        0.1897
     27 F         -25.8600   -0.6810   25.7950 F       1  UNL1       -0.1996
     28 O         -21.9882    1.7364   27.0908 O.3     1  UNL1       -0.4163
     29 C         -26.5442    0.4780   29.1944 C.2     1  UNL1        0.2319
     30 C         -24.2605    0.5063   28.3719 C.2     1  UNL1        0.0482
     31 C         -22.9285    0.3944   28.8541 C.2     1  UNL1        0.0929
     32 C         -21.8400    0.9306   28.1640 C.2     1  UNL1        0.3443
     33 O         -26.6602    1.6651   29.4972 O.2     1  UNL1       -0.2744
     34 C         -24.3648    1.2581   27.1418 C.3     1  UNL1        0.1362
     35 C         -23.1548    1.6924   26.5251 C.3     1  UNL1        0.3386
     36 N         -25.2929   -0.0417   29.1416 N.am    1  UNL1       -0.2578
     37 O         -29.9339    0.8667   28.1109 O.3     1  UNL1       -0.3506
     38 C         -27.8705   -0.4179   28.8572 C.3     1  UNL1        0.1177
     39 C         -29.3360   -0.0040   28.4025 C.3     1  UNL1        0.1539
     40 C         -30.0971   -0.3371   27.5307 C.3     1  UNL1        0.1720
     41 O         -20.5513    0.7295   28.5587 O.2     1  UNL1       -0.2448
     42 F         -23.1191    2.0881   25.2681 F       1  UNL1       -0.1877
@<TRIPOS>BOND
     1     1    36    1
     2     2     7    1
     3     2     1    1
     4     3     2    2
     5     4     3    1
     6     4     5    2
     7     5     6    1
     8     6     7    2
     9     8     1    1
    10     8     9    1
    11     8    12    1
    12     9    10    1
    13    10    11    1
    14    12    11    1
    15    14    13    1
    16    14    15    1
    17    15    18    2
    18    16    17    1
    19    16    15    1
    20    19    14    2
    21    20    21    2
    22    20    19    1
    23    21    26    1
    24    22    21    1
    25    23    22    1
    26    24    23    1
    27    24    25    1
    28    26    27    1
    29    26    13    2
    30    28    32    1
    31    29    33    2
    32    30    31    2
    33    30    36    1
    34    32    41    2
    35    32    31    1
    36    34    13    1
    37    34    30    1
    38    35    42    1
    39    35    28    1
    40    35    34    1
    41    36    29   am
    42    37    39    1
    43    38    29    1
    44    39    38    1
    45    40    37    1
    46    40    39    1
