@<TRIPOS>MOLECULE
outputs/IAG933/test6/raw/output_3561_IAG933_linker_design_.xyz
 42 46 0 0 0
SMALL
GASTEIGER

@<TRIPOS>ATOM
      1 C         -24.8550   -1.0120   30.1430 C.3     1  UNL1        0.1175
      2 C         -24.9730   -2.5050   29.7880 C.2     1  UNL1       -0.0028
      3 C         -23.9060   -3.1730   29.1460 C.2     1  UNL1       -0.0026
      4 C         -23.9890   -4.5490   28.8530 C.2     1  UNL1       -0.0003
      5 C         -25.1370   -5.2800   29.2050 C.2     1  UNL1       -0.0000
      6 C         -26.2320   -4.6110   29.7840 C.2     1  UNL1       -0.0003
      7 C         -26.1550   -3.2320   30.0650 C.2     1  UNL1       -0.0026
      8 C         -25.3870   -0.6790   31.5710 C.3     1  UNL1        0.0952
      9 C         -25.1890    0.7730   32.0280 C.3     1  UNL1        0.0209
     10 C         -25.3360    0.6840   33.5440 C.3     1  UNL1        0.0203
     11 C         -24.8290   -0.7150   33.9050 C.3     1  UNL1        0.0888
     12 N         -24.7580   -1.4810   32.6460 N.3     1  UNL1       -0.2174
     13 C         -25.6880    1.6140   26.4610 C.3     1  UNL1        0.0963
     14 C         -26.2500    2.9200   26.3950 C.2     1  UNL1        0.0590
     15 C         -25.6420    4.0930   27.1230 C.2     1  UNL1        0.2628
     16 N         -25.6140    5.2520   26.4490 N.am    1  UNL1       -0.2000
     17 C         -25.0260    6.4790   26.9630 C.3     1  UNL1        0.1388
     18 O         -25.1430    3.9660   28.2430 O.2     1  UNL1       -0.2686
     19 C         -27.4380    3.0910   25.6450 C.2     1  UNL1        0.1025
     20 N         -28.0750    2.0890   25.0030 N.2     1  UNL1       -0.2118
     21 C         -27.5430    0.8490   25.0790 C.2     1  UNL1        0.2344
     22 O         -28.1930   -0.2080   24.4770 O.2     1  UNL1       -0.4585
     23 C         -29.4600    0.0050   23.8660 C.3     1  UNL1        0.2423
     24 C         -30.0650   -1.3770   23.5730 C.3     1  UNL1        0.2292
     25 O         -30.7290   -1.8780   24.7210 O.3     1  UNL1       -0.2162
     26 C         -26.3540    0.5760   25.7770 C.3     1  UNL1        0.2441
     27 F         -25.8600   -0.6810   25.7950 F       1  UNL1       -0.2265
     28 N         -24.5849   -0.1919   29.0563 N.am    1  UNL1       -0.2370
     29 C         -20.2224    0.0054   28.5064 C.2     1  UNL1        0.0381
     30 C         -23.0945    1.9120   25.2587 C.3     1  UNL1        0.3253
     31 O         -26.7319    0.0447   28.5415 O.2     1  UNL1       -0.2702
     32 C         -23.4012    0.0892   28.5917 C.3     1  UNL1        0.2665
     33 C         -25.4810    0.3871   28.4163 C.2     1  UNL1        0.2479
     34 F         -22.4184    2.9364   25.1589 F       1  UNL1       -0.1980
     35 C         -23.6250    1.0066   27.4415 C.2     1  UNL1        0.0243
     36 F         -20.4925    2.1410   27.3925 F       1  UNL1       -0.2285
     37 O         -22.2374   -0.3162   28.9921 O.2     1  UNL1       -0.4582
     38 C         -21.7366    1.4601   27.4905 C.3     1  UNL1        0.2261
     39 C         -21.2995    0.2707   28.4707 C.2     1  UNL1        0.1513
     40 F         -23.3535    1.1054   24.3684 F       1  UNL1       -0.1980
     41 C         -22.6231    1.6029   26.5311 C.3     1  UNL1        0.1300
     42 C         -24.9589    1.1448   27.3670 C.2     1  UNL1        0.0360
@<TRIPOS>BOND
     1     1     2    1
     2     2     7    1
     3     3     2    2
     4     4     3    1
     5     4     5    2
     6     5     6    1
     7     6     7    2
     8     8     1    1
     9     8     9    1
    10     8    12    1
    11     9    10    1
    12    10    11    1
    13    12    11    1
    14    13    42    1
    15    14    13    1
    16    14    15    1
    17    15    18    2
    18    16    17    1
    19    16    15    1
    20    19    14    2
    21    20    21    2
    22    20    19    1
    23    21    26    1
    24    22    21    1
    25    23    22    1
    26    24    23    1
    27    24    25    1
    28    26    27    1
    29    26    13    1
    30    28     1    1
    31    32    35    1
    32    32    37    1
    33    32    28    1
    34    33    31    2
    35    33    28   am
    36    34    30    1
    37    38    36    1
    38    38    39    1
    39    39    29    2
    40    39    37    1
    41    40    30    1
    42    41    30    1
    43    41    35    1
    44    41    38    1
    45    42    35    2
    46    42    33    1
