@<TRIPOS>MOLECULE
outputs/IAG933/test6/raw/output_3562_IAG933_linker_design_.xyz
 45 49 0 0 0
SMALL
GASTEIGER

@<TRIPOS>ATOM
      1 C         -24.8550   -1.0120   30.1430 C.3     1  UNL1        0.0715
      2 C         -24.9730   -2.5050   29.7880 C.2     1  UNL1       -0.0184
      3 C         -23.9060   -3.1730   29.1460 C.2     1  UNL1       -0.0041
      4 C         -23.9890   -4.5490   28.8530 C.2     1  UNL1       -0.0003
      5 C         -25.1370   -5.2800   29.2050 C.2     1  UNL1       -0.0000
      6 C         -26.2320   -4.6110   29.7840 C.2     1  UNL1       -0.0003
      7 C         -26.1550   -3.2320   30.0650 C.2     1  UNL1       -0.0041
      8 C         -25.3870   -0.6790   31.5710 C.3     1  UNL1        0.0796
      9 C         -25.1890    0.7730   32.0280 C.3     1  UNL1        0.0193
     10 C         -25.3360    0.6840   33.5440 C.3     1  UNL1        0.0202
     11 C         -24.8290   -0.7150   33.9050 C.3     1  UNL1        0.0887
     12 N         -24.7580   -1.4810   32.6460 N.3     1  UNL1       -0.2190
     13 C         -25.6880    1.6140   26.4610 C.2     1  UNL1        0.0303
     14 C         -26.2500    2.9200   26.3950 C.2     1  UNL1        0.0738
     15 C         -25.6420    4.0930   27.1230 C.2     1  UNL1        0.2662
     16 N         -25.6140    5.2520   26.4490 N.am    1  UNL1       -0.1997
     17 C         -25.0260    6.4790   26.9630 C.3     1  UNL1        0.1388
     18 O         -25.1430    3.9660   28.2430 O.2     1  UNL1       -0.2683
     19 C         -27.4380    3.0910   25.6450 C.2     1  UNL1        0.1065
     20 N         -28.0750    2.0890   25.0030 N.2     1  UNL1       -0.2081
     21 C         -27.5430    0.8490   25.0790 C.2     1  UNL1        0.2530
     22 O         -28.1930   -0.2080   24.4770 O.2     1  UNL1       -0.4558
     23 C         -29.4600    0.0050   23.8660 C.3     1  UNL1        0.2426
     24 C         -30.0650   -1.3770   23.5730 C.3     1  UNL1        0.2292
     25 O         -30.7290   -1.8780   24.7210 O.3     1  UNL1       -0.2162
     26 C         -26.3540    0.5760   25.7770 C.2     1  UNL1        0.1904
     27 F         -25.8600   -0.6810   25.7950 F       1  UNL1       -0.1995
     28 C         -25.2563   -0.1772   28.9208 C.3     1  UNL1        0.1624
     29 C         -25.6218    5.4161   30.8773 C.3     1  UNL1        0.0373
     30 C         -23.1593    1.8620   26.2047 C.3     1  UNL1        0.0220
     31 C         -25.5419    3.8898   30.6175 C.3     1  UNL1        0.1448
     32 O         -28.3008   -0.5648   30.3313 O.2     1  UNL1       -0.1509
     33 N         -23.9140    0.5743   28.1447 N.3     1  UNL1       -0.2559
     34 O         -28.8141   -0.1759   27.8939 O.2     1  UNL1       -0.1509
     35 C         -24.5308    4.3060   32.6968 C.3     1  UNL1        0.1426
     36 C         -24.3418    1.3615   27.0541 C.3     1  UNL1        0.0838
     37 O         -24.6842    3.2945   31.5882 O.3     1  UNL1       -0.3512
     38 N         -26.5202    0.5786   28.8655 N.3     1  UNL1       -0.0617
     39 C         -26.9637    3.3983   31.2537 C.2     1  UNL1        0.0457
     40 C         -25.5011    5.5437   32.4227 C.3     1  UNL1        0.0350
     41 C         -28.7964    1.9858   29.4304 C.2     1  UNL1        0.1834
     42 S         -28.1707    0.2944   29.1232 S.O2    1  UNL1        0.0866
     43 C         -28.1479    2.8286   30.3379 C.1     1  UNL1       -0.0817
     44 C         -22.7058    0.7453   28.1228 C.3     1  UNL1        0.0737
     45 C         -21.9280    1.6353   27.1993 C.3     1  UNL1        0.0191
@<TRIPOS>BOND
     1     1    28    1
     2     2     7    1
     3     2     1    1
     4     3     2    2
     5     4     3    1
     6     4     5    2
     7     5     6    1
     8     6     7    2
     9     8     1    1
    10     8     9    1
    11     8    12    1
    12     9    10    1
    13    10    11    1
    14    12    11    1
    15    14    13    1
    16    14    15    1
    17    15    18    2
    18    16    17    1
    19    16    15    1
    20    19    14    2
    21    20    21    2
    22    20    19    1
    23    21    26    1
    24    22    21    1
    25    23    22    1
    26    24    23    1
    27    24    25    1
    28    26    27    1
    29    26    13    2
    30    28    38    1
    31    29    40    1
    32    30    36    1
    33    30    45    1
    34    31    29    1
    35    31    39    1
    36    31    37    1
    37    33    28    1
    38    34    42    2
    39    36    13    1
    40    36    33    1
    41    37    35    1
    42    38    42    1
    43    40    35    1
    44    41    43    2
    45    42    41    1
    46    42    32    2
    47    43    39    2
    48    44    33    1
    49    45    44    1
