@<TRIPOS>MOLECULE
outputs/IAG933/test6/raw/output_3564_IAG933_linker_design_.xyz
 39 42 0 0 0
SMALL
GASTEIGER

@<TRIPOS>ATOM
      1 C         -24.8550   -1.0120   30.1430 C.3     1  UNL1        0.2004
      2 C         -24.9730   -2.5050   29.7880 C.2     1  UNL1        0.0213
      3 C         -23.9060   -3.1730   29.1460 C.2     1  UNL1       -0.0004
      4 C         -23.9890   -4.5490   28.8530 C.2     1  UNL1       -0.0002
      5 C         -25.1370   -5.2800   29.2050 C.2     1  UNL1       -0.0000
      6 C         -26.2320   -4.6110   29.7840 C.2     1  UNL1       -0.0002
      7 C         -26.1550   -3.2320   30.0650 C.2     1  UNL1       -0.0004
      8 C         -25.3870   -0.6790   31.5710 C.3     1  UNL1        0.1198
      9 C         -25.1890    0.7730   32.0280 C.3     1  UNL1        0.0233
     10 C         -25.3360    0.6840   33.5440 C.3     1  UNL1        0.0204
     11 C         -24.8290   -0.7150   33.9050 C.3     1  UNL1        0.0889
     12 N         -24.7580   -1.4810   32.6460 N.3     1  UNL1       -0.2150
     13 C         -25.6880    1.6140   26.4610 C.3     1  UNL1        0.1329
     14 C         -26.2500    2.9200   26.3950 C.2     1  UNL1        0.0697
     15 C         -25.6420    4.0930   27.1230 C.2     1  UNL1        0.2637
     16 N         -25.6140    5.2520   26.4490 N.am    1  UNL1       -0.2000
     17 C         -25.0260    6.4790   26.9630 C.3     1  UNL1        0.1388
     18 O         -25.1430    3.9660   28.2430 O.2     1  UNL1       -0.2686
     19 C         -27.4380    3.0910   25.6450 C.2     1  UNL1        0.1035
     20 N         -28.0750    2.0890   25.0030 N.2     1  UNL1       -0.2118
     21 C         -27.5430    0.8490   25.0790 C.2     1  UNL1        0.2355
     22 O         -28.1930   -0.2080   24.4770 O.2     1  UNL1       -0.4585
     23 C         -29.4600    0.0050   23.8660 C.3     1  UNL1        0.2423
     24 C         -30.0650   -1.3770   23.5730 C.3     1  UNL1        0.2292
     25 O         -30.7290   -1.8780   24.7210 O.3     1  UNL1       -0.2162
     26 C         -26.3540    0.5760   25.7770 C.3     1  UNL1        0.2547
     27 F         -25.8600   -0.6810   25.7950 F       1  UNL1       -0.2254
     28 C         -23.4759    1.1467   27.9883 C.3     1  UNL1        0.2343
     29 N         -22.0887   -0.2345   29.5833 N.2     1  UNL1        0.1900
     30 C         -23.0370    0.4799   29.2173 C.2     1  UNL1        0.3763
     31 N         -24.4358    0.0990   29.3175 N.pl3   1  UNL1       -0.1652
     32 N         -27.7338   -0.6200   28.8434 N.1     1  UNL1       -0.1903
     33 C         -22.7339    1.9099   25.9586 C.1     1  UNL1        0.1608
     34 F         -21.1035    1.9738   27.6562 F       1  UNL1       -0.1952
     35 C         -26.9316    0.0389   28.7832 C.1     1  UNL1        0.1380
     36 O         -23.2072    2.2270   25.0930 O.2     1  UNL1       -0.2291
     37 N         -24.7484    1.2472   27.5383 N.3     1  UNL1       -0.2036
     38 C         -22.3074    1.7112   27.1639 C.2     1  UNL1        0.2180
     39 C         -25.5984    0.8615   28.6987 C.3     1  UNL1        0.3184
@<TRIPOS>BOND
     1     1     2    1
     2     2     7    1
     3     3     2    2
     4     4     3    1
     5     4     5    2
     6     5     6    1
     7     6     7    2
     8     8     1    1
     9     8     9    1
    10     8    12    1
    11     9    10    1
    12    10    11    1
    13    12    11    1
    14    13    14    1
    15    14    15    1
    16    15    18    2
    17    16    17    1
    18    16    15    1
    19    19    14    2
    20    20    21    2
    21    20    19    1
    22    21    26    1
    23    22    21    1
    24    23    22    1
    25    24    23    1
    26    24    25    1
    27    26    27    1
    28    26    13    1
    29    28    38    1
    30    28    30    1
    31    30    31    1
    32    30    29    2
    33    31     1    1
    34    33    38    2
    35    35    32    3
    36    36    33    2
    37    37    13    1
    38    37    28    1
    39    37    39    1
    40    38    34    1
    41    39    35    1
    42    39    31    1
