@<TRIPOS>MOLECULE
outputs/IAG933/test6/raw/output_3567_IAG933_linker_design_.xyz
 44 48 0 0 0
SMALL
GASTEIGER

@<TRIPOS>ATOM
      1 C         -24.8550   -1.0120   30.1430 C.3     1  UNL1        0.0875
      2 C         -24.9730   -2.5050   29.7880 C.2     1  UNL1       -0.0171
      3 C         -23.9060   -3.1730   29.1460 C.2     1  UNL1       -0.0041
      4 C         -23.9890   -4.5490   28.8530 C.2     1  UNL1       -0.0003
      5 C         -25.1370   -5.2800   29.2050 C.2     1  UNL1       -0.0000
      6 C         -26.2320   -4.6110   29.7840 C.2     1  UNL1       -0.0003
      7 C         -26.1550   -3.2320   30.0650 C.2     1  UNL1       -0.0041
      8 C         -25.3870   -0.6790   31.5710 C.3     1  UNL1        0.0808
      9 C         -25.1890    0.7730   32.0280 C.3     1  UNL1        0.0193
     10 C         -25.3360    0.6840   33.5440 C.3     1  UNL1        0.0202
     11 C         -24.8290   -0.7150   33.9050 C.3     1  UNL1        0.0887
     12 N         -24.7580   -1.4810   32.6460 N.3     1  UNL1       -0.2190
     13 C         -25.6880    1.6140   26.4610 C.3     1  UNL1        0.0953
     14 C         -26.2500    2.9200   26.3950 C.2     1  UNL1        0.0590
     15 C         -25.6420    4.0930   27.1230 C.2     1  UNL1        0.2628
     16 N         -25.6140    5.2520   26.4490 N.am    1  UNL1       -0.2000
     17 C         -25.0260    6.4790   26.9630 C.3     1  UNL1        0.1388
     18 O         -25.1430    3.9660   28.2430 O.2     1  UNL1       -0.2686
     19 C         -27.4380    3.0910   25.6450 C.2     1  UNL1        0.1025
     20 N         -28.0750    2.0890   25.0030 N.2     1  UNL1       -0.2118
     21 C         -27.5430    0.8490   25.0790 C.2     1  UNL1        0.2344
     22 O         -28.1930   -0.2080   24.4770 O.2     1  UNL1       -0.4585
     23 C         -29.4600    0.0050   23.8660 C.3     1  UNL1        0.2423
     24 C         -30.0650   -1.3770   23.5730 C.3     1  UNL1        0.2292
     25 O         -30.7290   -1.8780   24.7210 O.3     1  UNL1       -0.2162
     26 C         -26.3540    0.5760   25.7770 C.3     1  UNL1        0.2441
     27 F         -25.8600   -0.6810   25.7950 F       1  UNL1       -0.2265
     28 C         -29.8278   -0.2665   27.4986 C.3     1  UNL1        0.0399
     29 C         -21.3947    1.6969   26.4432 C.2     1  UNL1        0.0031
     30 C         -29.7441   -2.4969   29.8967 C.3     1  UNL1        0.0909
     31 C         -23.4502    1.1409   27.7302 C.2     1  UNL1        0.1355
     32 C         -26.7412    0.3702   29.3444 C.2     1  UNL1        0.2831
     33 C         -22.1478    1.8495   25.2681 C.2     1  UNL1       -0.0001
     34 N         -30.0046   -1.0303   29.8002 N.3     1  UNL1       -0.2556
     35 O         -27.0777    1.4705   29.6842 O.2     1  UNL1       -0.2694
     36 O         -23.9358    0.6081   28.8864 O.2     1  UNL1       -0.4698
     37 C         -31.3014   -0.1844   27.8454 C.3     1  UNL1        0.0206
     38 N         -27.7623   -0.5857   29.0102 N.am    1  UNL1       -0.1874
     39 C         -24.2288    1.5220   26.5515 C.2     1  UNL1        0.0189
     40 C         -23.5522    1.7772   25.3394 C.2     1  UNL1       -0.0009
     41 C         -31.3862   -0.7368   29.2851 C.3     1  UNL1        0.0737
     42 C         -22.0309    1.3675   27.6509 C.2     1  UNL1        0.0366
     43 C         -29.1658   -0.1903   28.9026 C.3     1  UNL1        0.1548
     44 C         -25.2377   -0.0781   28.9917 C.3     1  UNL1        0.2479
@<TRIPOS>BOND
     1     1    44    1
     2     2     7    1
     3     2     1    1
     4     3     2    2
     5     4     3    1
     6     4     5    2
     7     5     6    1
     8     6     7    2
     9     8     1    1
    10     8     9    1
    11     8    12    1
    12     9    10    1
    13    10    11    1
    14    12    11    1
    15    13    39    1
    16    14    13    1
    17    14    15    1
    18    15    18    2
    19    16    17    1
    20    16    15    1
    21    19    14    2
    22    20    21    2
    23    20    19    1
    24    21    26    1
    25    22    21    1
    26    23    22    1
    27    24    23    1
    28    24    25    1
    29    26    27    1
    30    26    13    1
    31    28    37    1
    32    28    43    1
    33    29    42    1
    34    31    36    1
    35    32    35    2
    36    33    40    1
    37    33    29    2
    38    34    30    1
    39    37    41    1
    40    38    32    1
    41    39    31    1
    42    40    39    2
    43    41    34    1
    44    42    31    2
    45    43    38    1
    46    43    34    1
    47    44    36    1
    48    44    32    1
