@<TRIPOS>MOLECULE
No_3568-gen_results/8p0m/2024-11-27-11-27-31/
 20 22 0 0 0
SMALL
GASTEIGER

@<TRIPOS>ATOM
      1 C         -28.0162   -0.8135   28.8779 C.ar    1  UNL1        0.0063
      2 C         -28.4690   -0.7850   29.8287 C.ar    1  UNL1        0.0798
      3 C         -26.5455   -0.8762   28.8500 C.ar    1  UNL1       -0.0037
      4 C         -25.8041   -1.0324   30.0571 C.ar    1  UNL1       -0.0178
      5 C         -27.9437   -0.9869   31.2075 C.ar    1  UNL1        0.0063
      6 C         -26.5825   -1.0386   31.2231 C.ar    1  UNL1       -0.0037
      7 C         -30.0606   -0.7371   29.9024 C.2     1  UNL1        0.3878
      8 O         -30.5524   -0.2769   29.0111 O.co2   1  UNL1       -0.2406
      9 O         -30.7150   -1.5538   30.7949 O.co2   1  UNL1       -0.2406
     10 C         -24.3676   -1.0851   30.0761 C.3     1  UNL1        0.0526
     11 C         -23.5803   -0.5889   29.0995 C.ar    1  UNL1       -0.0178
     12 C         -22.1206   -0.5972   29.2652 C.ar    1  UNL1       -0.0039
     13 C         -24.1038    0.0653   27.9800 C.ar    1  UNL1       -0.0036
     14 C         -23.2797    1.0510   27.2941 C.ar    1  UNL1       -0.0003
     15 C         -21.3243    0.2650   28.4798 C.ar    1  UNL1       -0.0003
     16 C         -21.8956    1.0550   27.5191 C.ar    1  UNL1       -0.0000
     17 C         -23.8801    1.8711   26.2404 C.ar    1  UNL1       -0.0000
     18 C         -25.0957    1.5239   25.7705 C.ar    1  UNL1       -0.0000
     19 C         -25.6928    0.3461   26.2163 C.ar    1  UNL1       -0.0000
     20 C         -25.2494   -0.2446   27.3828 C.ar    1  UNL1       -0.0003
@<TRIPOS>BOND
     1     2     7    1
     2     7     8   ar
     3     7     9   ar
     4     4    10    1
     5    10    11    1
     6    11    12   ar
     7    12    15   ar
     8    15    16   ar
     9    16    14   ar
    10    13    11   ar
    11     1     2   ar
    12     2     5   ar
    13     5     6   ar
    14     6     4   ar
    15     4     3   ar
    16     3     1   ar
    17    13    14   ar
    18    14    17   ar
    19    17    18   ar
    20    18    19   ar
    21    19    20   ar
    22    20    13   ar
