@<TRIPOS>MOLECULE
outputs/IAG933/test6/raw/output_357_IAG933_linker_design_.xyz
 41 45 0 0 0
SMALL
GASTEIGER

@<TRIPOS>ATOM
      1 C         -24.8550   -1.0120   30.1430 C.3     1  UNL1        0.0509
      2 C         -24.9730   -2.5050   29.7880 C.2     1  UNL1       -0.0205
      3 C         -23.9060   -3.1730   29.1460 C.2     1  UNL1       -0.0042
      4 C         -23.9890   -4.5490   28.8530 C.2     1  UNL1       -0.0003
      5 C         -25.1370   -5.2800   29.2050 C.2     1  UNL1       -0.0000
      6 C         -26.2320   -4.6110   29.7840 C.2     1  UNL1       -0.0003
      7 C         -26.1550   -3.2320   30.0650 C.2     1  UNL1       -0.0042
      8 C         -25.3870   -0.6790   31.5710 C.3     1  UNL1        0.0774
      9 C         -25.1890    0.7730   32.0280 C.3     1  UNL1        0.0192
     10 C         -25.3360    0.6840   33.5440 C.3     1  UNL1        0.0202
     11 C         -24.8290   -0.7150   33.9050 C.3     1  UNL1        0.0887
     12 N         -24.7580   -1.4810   32.6460 N.3     1  UNL1       -0.2191
     13 C         -25.6880    1.6140   26.4610 C.2     1  UNL1        0.0379
     14 C         -26.2500    2.9200   26.3950 C.2     1  UNL1        0.0742
     15 C         -25.6420    4.0930   27.1230 C.2     1  UNL1        0.2662
     16 N         -25.6140    5.2520   26.4490 N.am    1  UNL1       -0.1997
     17 C         -25.0260    6.4790   26.9630 C.3     1  UNL1        0.1388
     18 O         -25.1430    3.9660   28.2430 O.2     1  UNL1       -0.2683
     19 C         -27.4380    3.0910   25.6450 C.2     1  UNL1        0.1065
     20 N         -28.0750    2.0890   25.0030 N.2     1  UNL1       -0.2081
     21 C         -27.5430    0.8490   25.0790 C.2     1  UNL1        0.2530
     22 O         -28.1930   -0.2080   24.4770 O.2     1  UNL1       -0.4558
     23 C         -29.4600    0.0050   23.8660 C.3     1  UNL1        0.2426
     24 C         -30.0650   -1.3770   23.5730 C.3     1  UNL1        0.2292
     25 O         -30.7290   -1.8780   24.7210 O.3     1  UNL1       -0.2162
     26 C         -26.3540    0.5760   25.7770 C.2     1  UNL1        0.1907
     27 F         -25.8600   -0.6810   25.7950 F       1  UNL1       -0.1995
     28 C         -21.8272    1.5588   28.0134 C.3     1  UNL1        0.4927
     29 F         -20.6012    1.1323   28.2763 F       1  UNL1       -0.1574
     30 O         -22.8257    1.6464   28.9537 O.3     1  UNL1       -0.3956
     31 O         -26.7744   -0.6805   28.3544 O.3     1  UNL1       -0.2225
     32 C         -24.5692    1.2667   26.9796 C.3     1  UNL1        0.1609
     33 C         -25.7325   -0.3422   28.1696 C.3     1  UNL1        0.1649
     34 S         -23.3055    2.2432   26.1863 S.3     1  UNL1        0.0005
     35 O         -23.3380    3.6790   26.1788 O.3     1  UNL1       -0.0714
     36 C         -23.1144    0.5568   29.5424 C.2     1  UNL1        0.3224
     37 C         -24.8132    0.2547   28.0464 C.3     1  UNL1        0.0704
     38 O         -22.3508   -0.1013   30.1229 O.2     1  UNL1       -0.2499
     39 O         -21.9298    1.9312   26.6577 O.3     1  UNL1       -0.1696
     40 C         -24.6414   -0.0901   29.1663 C.3     1  UNL1        0.1270
     41 O         -23.3719    1.7440   24.8976 O.3     1  UNL1       -0.0714
@<TRIPOS>BOND
     1     1     2    1
     2     2     7    1
     3     3     2    2
     4     4     3    1
     5     4     5    2
     6     5     6    1
     7     6     7    2
     8     8     1    1
     9     8     9    1
    10     8    12    1
    11     9    10    1
    12    10    11    1
    13    12    11    1
    14    14    13    1
    15    14    15    1
    16    15    18    2
    17    16    17    1
    18    16    15    1
    19    19    14    2
    20    20    21    2
    21    20    19    1
    22    21    26    1
    23    22    21    1
    24    23    22    1
    25    24    23    1
    26    24    25    1
    27    26    27    1
    28    26    13    2
    29    28    29    1
    30    28    30    1
    31    30    36    1
    32    32    13    1
    33    32    37    1
    34    33    31    1
    35    33    40    1
    36    34    39    1
    37    34    32    1
    38    35    34    1
    39    36    38    2
    40    37    33    1
    41    37    40    1
    42    39    28    1
    43    40    36    1
    44    40     1    1
    45    41    34    1
