@<TRIPOS>MOLECULE
outputs/IAG933/test6/raw/output_3571_IAG933_linker_design_.xyz
 40 43 0 0 0
SMALL
GASTEIGER

@<TRIPOS>ATOM
      1 C         -24.8550   -1.0120   30.1430 C.3     1  UNL1        0.1508
      2 C         -24.9730   -2.5050   29.7880 C.2     1  UNL1       -0.0019
      3 C         -23.9060   -3.1730   29.1460 C.2     1  UNL1       -0.0028
      4 C         -23.9890   -4.5490   28.8530 C.2     1  UNL1       -0.0003
      5 C         -25.1370   -5.2800   29.2050 C.2     1  UNL1       -0.0000
      6 C         -26.2320   -4.6110   29.7840 C.2     1  UNL1       -0.0003
      7 C         -26.1550   -3.2320   30.0650 C.2     1  UNL1       -0.0028
      8 C         -25.3870   -0.6790   31.5710 C.3     1  UNL1        0.0962
      9 C         -25.1890    0.7730   32.0280 C.3     1  UNL1        0.0207
     10 C         -25.3360    0.6840   33.5440 C.3     1  UNL1        0.0203
     11 C         -24.8290   -0.7150   33.9050 C.3     1  UNL1        0.0888
     12 N         -24.7580   -1.4810   32.6460 N.3     1  UNL1       -0.2176
     13 C         -25.6880    1.6140   26.4610 C.2     1  UNL1        0.1573
     14 C         -26.2500    2.9200   26.3950 C.2     1  UNL1        0.1058
     15 C         -25.6420    4.0930   27.1230 C.2     1  UNL1        0.2690
     16 N         -25.6140    5.2520   26.4490 N.am    1  UNL1       -0.1997
     17 C         -25.0260    6.4790   26.9630 C.3     1  UNL1        0.1388
     18 O         -25.1430    3.9660   28.2430 O.2     1  UNL1       -0.2682
     19 C         -27.4380    3.0910   25.6450 C.2     1  UNL1        0.1094
     20 N         -28.0750    2.0890   25.0030 N.2     1  UNL1       -0.2079
     21 C         -27.5430    0.8490   25.0790 C.2     1  UNL1        0.2560
     22 O         -28.1930   -0.2080   24.4770 O.2     1  UNL1       -0.4558
     23 C         -29.4600    0.0050   23.8660 C.3     1  UNL1        0.2426
     24 C         -30.0650   -1.3770   23.5730 C.3     1  UNL1        0.2292
     25 O         -30.7290   -1.8780   24.7210 O.3     1  UNL1       -0.2162
     26 C         -26.3540    0.5760   25.7770 C.2     1  UNL1        0.2221
     27 F         -25.8600   -0.6810   25.7950 F       1  UNL1       -0.1964
     28 N         -25.4395    0.6975   28.6855 N.pl3   1  UNL1        0.0406
     29 O         -21.1237    2.1162   25.4928 O.3     1  UNL1       -0.2084
     30 C         -21.4839    1.2965   27.6968 C.3     1  UNL1        0.2410
     31 C         -22.0237    0.3364   28.5691 C.3     1  UNL1        0.2160
     32 N         -23.3782    0.1474   28.8124 N.2     1  UNL1       -0.0975
     33 C         -21.0627   -0.6053   29.1733 C.3     1  UNL1        0.0499
     34 F         -20.2872    1.7924   28.0541 F       1  UNL1       -0.2302
     35 C         -23.4449    1.8975   26.1194 C.2     1  UNL1        0.3248
     36 N         -25.5730   -0.0802   29.3596 N.3     1  UNL1       -0.0257
     37 N         -24.4182    1.4032   26.9193 N.am    1  UNL1       -0.1185
     38 O         -23.7642    2.5888   25.0484 O.2     1  UNL1       -0.2532
     39 C         -22.1024    1.7033   26.4479 C.3     1  UNL1        0.2798
     40 C         -24.4425    0.8477   28.0787 C.2     1  UNL1        0.4339
@<TRIPOS>BOND
     1     1    36    1
     2     2     7    1
     3     2     1    1
     4     3     2    2
     5     4     3    1
     6     4     5    2
     7     5     6    1
     8     6     7    2
     9     8     1    1
    10     8     9    1
    11     8    12    1
    12     9    10    1
    13    10    11    1
    14    12    11    1
    15    13    37    1
    16    14    13    1
    17    14    15    1
    18    15    18    2
    19    16    17    1
    20    16    15    1
    21    19    14    2
    22    20    21    2
    23    20    19    1
    24    21    26    1
    25    22    21    1
    26    23    22    1
    27    24    23    1
    28    24    25    1
    29    26    27    1
    30    26    13    2
    31    28    36    1
    32    30    34    1
    33    30    31    1
    34    31    32    1
    35    31    33    1
    36    35    39    1
    37    35    37   am
    38    37    40    1
    39    38    35    2
    40    39    29    1
    41    39    30    1
    42    40    28    1
    43    40    32    2
