@<TRIPOS>MOLECULE
No_3572-gen_results/8p0m/2024-11-27-11-27-31/
 16 16 0 0 0
SMALL
GASTEIGER

@<TRIPOS>ATOM
      1 C         -28.0162   -0.8135   28.8779 C.3     1  UNL1        0.1509
      2 C         -27.0636   -0.1189   28.6079 C.3     1  UNL1        0.1905
      3 F         -27.0788    0.9846   29.1738 F       1  UNL1       -0.2349
      4 C         -25.9956   -0.3885   27.6940 C.3     1  UNL1        0.1122
      5 N         -25.8830    0.3794   26.6654 N.pl3   1  UNL1       -0.2767
      6 C         -28.5097   -0.7860   30.3114 C.2     1  UNL1        0.3677
      7 O         -28.9000   -1.7654   30.7877 O.co2   1  UNL1       -0.2456
      8 C         -24.8908   -1.2302   28.0188 C.3     1  UNL1        0.0446
      9 C         -24.8229    0.1364   25.7522 C.3     1  UNL1        0.2306
     10 C         -24.8718   -2.0454   29.2650 C.2     1  UNL1       -0.0422
     11 C         -23.8326   -2.9073   29.4445 C.2     1  UNL1       -0.0091
     12 N         -24.9182    0.9726   24.6762 N.2     1  UNL1       -0.2050
     13 O         -28.0991    0.1048   31.1028 O.co2   1  UNL1       -0.2456
     14 C         -26.7880    1.3180   26.2389 C.2     1  UNL1        0.1254
     15 C         -25.7683    1.8788   24.7974 C.1     1  UNL1        0.0107
     16 C         -25.9652   -2.0746   30.1391 C.3     1  UNL1        0.0264
@<TRIPOS>BOND
     1     1     2    1
     2     2     3    1
     3     2     4    1
     4     4     5    1
     5     1     6    1
     6     6     7   ar
     7     4     8    1
     8     5     9    1
     9     8    10    1
    10    10    11    2
    11     9    12    1
    12     6    13   ar
    13     5    14    1
    14    12    15    2
    15    14    15    2
    16    10    16    1
