@<TRIPOS>MOLECULE
outputs/IAG933/test6/raw/output_3573_IAG933_linker_design_.xyz
 43 46 0 0 0
SMALL
GASTEIGER

@<TRIPOS>ATOM
      1 C         -24.8550   -1.0120   30.1430 C.3     1  UNL1        0.1113
      2 C         -24.9730   -2.5050   29.7880 C.2     1  UNL1       -0.0030
      3 C         -23.9060   -3.1730   29.1460 C.2     1  UNL1       -0.0026
      4 C         -23.9890   -4.5490   28.8530 C.2     1  UNL1       -0.0003
      5 C         -25.1370   -5.2800   29.2050 C.2     1  UNL1       -0.0000
      6 C         -26.2320   -4.6110   29.7840 C.2     1  UNL1       -0.0003
      7 C         -26.1550   -3.2320   30.0650 C.2     1  UNL1       -0.0026
      8 C         -25.3870   -0.6790   31.5710 C.3     1  UNL1        0.0950
      9 C         -25.1890    0.7730   32.0280 C.3     1  UNL1        0.0209
     10 C         -25.3360    0.6840   33.5440 C.3     1  UNL1        0.0203
     11 C         -24.8290   -0.7150   33.9050 C.3     1  UNL1        0.0888
     12 N         -24.7580   -1.4810   32.6460 N.3     1  UNL1       -0.2174
     13 C         -25.6880    1.6140   26.4610 C.2     1  UNL1        0.0324
     14 C         -26.2500    2.9200   26.3950 C.2     1  UNL1        0.0735
     15 C         -25.6420    4.0930   27.1230 C.2     1  UNL1        0.2661
     16 N         -25.6140    5.2520   26.4490 N.am    1  UNL1       -0.1997
     17 C         -25.0260    6.4790   26.9630 C.3     1  UNL1        0.1388
     18 O         -25.1430    3.9660   28.2430 O.2     1  UNL1       -0.2683
     19 C         -27.4380    3.0910   25.6450 C.2     1  UNL1        0.1064
     20 N         -28.0750    2.0890   25.0030 N.2     1  UNL1       -0.2081
     21 C         -27.5430    0.8490   25.0790 C.2     1  UNL1        0.2530
     22 O         -28.1930   -0.2080   24.4770 O.2     1  UNL1       -0.4558
     23 C         -29.4600    0.0050   23.8660 C.3     1  UNL1        0.2426
     24 C         -30.0650   -1.3770   23.5730 C.3     1  UNL1        0.2292
     25 O         -30.7290   -1.8780   24.7210 O.3     1  UNL1       -0.2162
     26 C         -26.3540    0.5760   25.7770 C.2     1  UNL1        0.1900
     27 F         -25.8600   -0.6810   25.7950 F       1  UNL1       -0.1996
     28 C         -26.6759   -0.5573   28.5103 C.3     1  UNL1        0.0911
     29 C         -23.1309    1.6877   26.7843 C.2     1  UNL1        0.3642
     30 N         -22.1805    1.2594   27.6548 N.2     1  UNL1        0.0065
     31 C         -24.4561    1.2668   27.1726 C.3     1  UNL1        0.1748
     32 O         -29.6252    2.2567   31.2486 O.3     1  UNL1       -0.3354
     33 N         -25.4043   -0.1927   29.0602 N.pl3   1  UNL1       -0.3007
     34 N         -22.1716   -0.1323   29.5641 N.pl3   1  UNL1        0.2175
     35 C         -28.5643    3.0078   31.8441 C.3     1  UNL1        0.2524
     36 C         -24.3364    0.5342   28.3214 C.2     1  UNL1        0.1323
     37 O         -22.7560    2.4099   25.6831 O.2     1  UNL1       -0.2485
     38 C         -27.8991   -0.1732   29.1538 C.3     1  UNL1        0.0240
     39 C         -27.9363    1.1905   29.7803 C.3     1  UNL1        0.0339
     40 F         -21.5949    2.1293   25.0363 F       1  UNL1        0.0172
     41 N         -29.1931    4.2081   32.3763 N.3     1  UNL1       -0.0957
     42 C         -29.3203    1.8239   29.9203 C.3     1  UNL1        0.1440
     43 C         -22.8928    0.5473   28.5693 C.2     1  UNL1        0.4281
@<TRIPOS>BOND
     1     1    33    1
     2     2     7    1
     3     2     1    1
     4     3     2    2
     5     4     3    1
     6     4     5    2
     7     5     6    1
     8     6     7    2
     9     8     1    1
    10     8     9    1
    11     8    12    1
    12     9    10    1
    13    10    11    1
    14    12    11    1
    15    14    13    1
    16    14    15    1
    17    15    18    2
    18    16    17    1
    19    16    15    1
    20    19    14    2
    21    20    21    2
    22    20    19    1
    23    21    26    1
    24    22    21    1
    25    23    22    1
    26    24    23    1
    27    24    25    1
    28    26    27    1
    29    26    13    2
    30    28    33    1
    31    28    38    1
    32    29    31    1
    33    29    30    2
    34    30    43    1
    35    31    13    1
    36    31    36    1
    37    32    35    1
    38    35    41    1
    39    36    43    2
    40    36    33    1
    41    37    29    1
    42    38    39    1
    43    39    42    1
    44    40    37    1
    45    42    32    1
    46    43    34    1
