@<TRIPOS>MOLECULE
outputs/IAG933/test6/raw/output_3576_IAG933_linker_design_.xyz
 42 45 0 0 0
SMALL
GASTEIGER

@<TRIPOS>ATOM
      1 C         -24.8550   -1.0120   30.1430 C.3     1  UNL1        0.1255
      2 C         -24.9730   -2.5050   29.7880 C.2     1  UNL1       -0.0138
      3 C         -23.9060   -3.1730   29.1460 C.2     1  UNL1       -0.0040
      4 C         -23.9890   -4.5490   28.8530 C.2     1  UNL1       -0.0003
      5 C         -25.1370   -5.2800   29.2050 C.2     1  UNL1       -0.0000
      6 C         -26.2320   -4.6110   29.7840 C.2     1  UNL1       -0.0003
      7 C         -26.1550   -3.2320   30.0650 C.2     1  UNL1       -0.0040
      8 C         -25.3870   -0.6790   31.5710 C.3     1  UNL1        0.0843
      9 C         -25.1890    0.7730   32.0280 C.3     1  UNL1        0.0195
     10 C         -25.3360    0.6840   33.5440 C.3     1  UNL1        0.0202
     11 C         -24.8290   -0.7150   33.9050 C.3     1  UNL1        0.0887
     12 N         -24.7580   -1.4810   32.6460 N.3     1  UNL1       -0.2189
     13 C         -25.6880    1.6140   26.4610 C.2     1  UNL1        0.0362
     14 C         -26.2500    2.9200   26.3950 C.2     1  UNL1        0.0763
     15 C         -25.6420    4.0930   27.1230 C.2     1  UNL1        0.2664
     16 N         -25.6140    5.2520   26.4490 N.am    1  UNL1       -0.1997
     17 C         -25.0260    6.4790   26.9630 C.3     1  UNL1        0.1388
     18 O         -25.1430    3.9660   28.2430 O.2     1  UNL1       -0.2683
     19 C         -27.4380    3.0910   25.6450 C.2     1  UNL1        0.1067
     20 N         -28.0750    2.0890   25.0030 N.2     1  UNL1       -0.2081
     21 C         -27.5430    0.8490   25.0790 C.2     1  UNL1        0.2533
     22 O         -28.1930   -0.2080   24.4770 O.2     1  UNL1       -0.4558
     23 C         -29.4600    0.0050   23.8660 C.3     1  UNL1        0.2426
     24 C         -30.0650   -1.3770   23.5730 C.3     1  UNL1        0.2292
     25 O         -30.7290   -1.8780   24.7210 O.3     1  UNL1       -0.2162
     26 C         -26.3540    0.5760   25.7770 C.2     1  UNL1        0.1928
     27 F         -25.8600   -0.6810   25.7950 F       1  UNL1       -0.1992
     28 C         -24.6804    0.8846   28.6079 C.3     1  UNL1        0.2575
     29 F         -22.1840   -0.0308   29.7267 F       1  UNL1       -0.2084
     30 C         -24.5166    1.3267   27.2860 C.2     1  UNL1        0.0128
     31 C         -22.8011    2.2304   25.6504 C.3     1  UNL1        0.1676
     32 O         -24.2009    1.8589   29.4507 O.3     1  UNL1       -0.2101
     33 O         -21.5344    2.2793   25.8095 O.3     1  UNL1       -0.3217
     34 F         -20.1371    2.2444   27.6912 F       1  UNL1       -0.2032
     35 C         -20.4212   -0.1616   28.5472 C.2     1  UNL1        0.0276
     36 C         -22.1424    1.1448   27.6037 C.3     1  UNL1        0.1322
     37 O         -26.6932    1.1641   29.2511 O.2     1  UNL1       -0.2718
     38 O         -26.5906   -0.7975   28.3337 O.2     1  UNL1       -0.2718
     39 C         -23.2715    1.5172   26.8640 C.2     1  UNL1       -0.0049
     40 C         -25.6776    0.0358   29.0847 C.3     1  UNL1        0.3873
     41 C         -21.1791    1.8202   27.0186 C.3     1  UNL1        0.2888
     42 C         -21.6949    0.3546   28.6068 C.2     1  UNL1        0.1264
@<TRIPOS>BOND
     1     1    40    1
     2     2     7    1
     3     2     1    1
     4     3     2    2
     5     4     3    1
     6     4     5    2
     7     5     6    1
     8     6     7    2
     9     8     1    1
    10     8     9    1
    11     8    12    1
    12     9    10    1
    13    10    11    1
    14    12    11    1
    15    13    30    1
    16    14    13    1
    17    14    15    1
    18    15    18    2
    19    16    17    1
    20    16    15    1
    21    19    14    2
    22    20    21    2
    23    20    19    1
    24    21    26    1
    25    22    21    1
    26    23    22    1
    27    24    23    1
    28    24    25    1
    29    26    27    1
    30    26    13    2
    31    28    40    1
    32    28    32    1
    33    30    28    1
    34    31    33    1
    35    31    39    1
    36    33    41    1
    37    35    42    2
    38    36    42    1
    39    38    40    1
    40    39    30    2
    41    39    36    1
    42    40    37    1
    43    41    36    1
    44    41    34    1
    45    42    29    1
