@<TRIPOS>MOLECULE
outputs/IAG933/test6/raw/output_3577_IAG933_linker_design_.xyz
 39 42 0 0 0
SMALL
GASTEIGER

@<TRIPOS>ATOM
      1 C         -24.8550   -1.0120   30.1430 C.3     1  UNL1        0.1984
      2 C         -24.9730   -2.5050   29.7880 C.2     1  UNL1        0.0213
      3 C         -23.9060   -3.1730   29.1460 C.2     1  UNL1       -0.0004
      4 C         -23.9890   -4.5490   28.8530 C.2     1  UNL1       -0.0002
      5 C         -25.1370   -5.2800   29.2050 C.2     1  UNL1       -0.0000
      6 C         -26.2320   -4.6110   29.7840 C.2     1  UNL1       -0.0002
      7 C         -26.1550   -3.2320   30.0650 C.2     1  UNL1       -0.0004
      8 C         -25.3870   -0.6790   31.5710 C.3     1  UNL1        0.1197
      9 C         -25.1890    0.7730   32.0280 C.3     1  UNL1        0.0233
     10 C         -25.3360    0.6840   33.5440 C.3     1  UNL1        0.0204
     11 C         -24.8290   -0.7150   33.9050 C.3     1  UNL1        0.0889
     12 N         -24.7580   -1.4810   32.6460 N.3     1  UNL1       -0.2150
     13 C         -25.6880    1.6140   26.4610 C.2     1  UNL1        0.0476
     14 C         -26.2500    2.9200   26.3950 C.2     1  UNL1        0.0769
     15 C         -25.6420    4.0930   27.1230 C.2     1  UNL1        0.2664
     16 N         -25.6140    5.2520   26.4490 N.am    1  UNL1       -0.1997
     17 C         -25.0260    6.4790   26.9630 C.3     1  UNL1        0.1388
     18 O         -25.1430    3.9660   28.2430 O.2     1  UNL1       -0.2683
     19 C         -27.4380    3.0910   25.6450 C.2     1  UNL1        0.1067
     20 N         -28.0750    2.0890   25.0030 N.2     1  UNL1       -0.2081
     21 C         -27.5430    0.8490   25.0790 C.2     1  UNL1        0.2533
     22 O         -28.1930   -0.2080   24.4770 O.2     1  UNL1       -0.4558
     23 C         -29.4600    0.0050   23.8660 C.3     1  UNL1        0.2426
     24 C         -30.0650   -1.3770   23.5730 C.3     1  UNL1        0.2292
     25 O         -30.7290   -1.8780   24.7210 O.3     1  UNL1       -0.2162
     26 C         -26.3540    0.5760   25.7770 C.2     1  UNL1        0.1934
     27 F         -25.8600   -0.6810   25.7950 F       1  UNL1       -0.1992
     28 C         -24.3880    0.6002   28.4018 C.2     1  UNL1        0.3154
     29 C         -23.2999    1.7522   26.6054 C.2     1  UNL1        0.2149
     30 C         -26.6675   -0.3199   28.5445 C.3     1  UNL1        0.2026
     31 N         -25.3569   -0.1803   29.0731 N.pl3   1  UNL1       -0.1897
     32 O         -22.1253    1.1710   28.4974 O.2     1  UNL1       -0.2688
     33 O         -22.5983   -0.0448   29.9225 O.co2   1  UNL1       -0.6156
     34 C         -27.5874    0.7814   28.7655 C.3     1  UNL1        0.0551
     35 C         -24.4962    1.3302   27.1604 C.2     1  UNL1        0.1169
     36 F         -23.1620    2.1663   25.3432 F       1  UNL1       -0.1980
     37 N         -23.2016    0.6229   28.9429 N.3     1  UNL1       -0.1031
     38 F         -21.0379    2.4063   27.0872 F       1  UNL1       -0.1556
     39 C         -22.1538    1.7756   27.3909 C.2     1  UNL1        0.3627
@<TRIPOS>UNITY_ATOM_ATTR
33 1
charge -1
37 1
charge 1
@<TRIPOS>BOND
     1     1    31    1
     2     2     7    1
     3     2     1    1
     4     3     2    2
     5     4     3    1
     6     4     5    2
     7     5     6    1
     8     6     7    2
     9     8     1    1
    10     8     9    1
    11     8    12    1
    12     9    10    1
    13    10    11    1
    14    12    11    1
    15    13    35    1
    16    14    13    1
    17    14    15    1
    18    15    18    2
    19    16    17    1
    20    16    15    1
    21    19    14    2
    22    20    21    2
    23    20    19    1
    24    21    26    1
    25    22    21    1
    26    23    22    1
    27    24    23    1
    28    24    25    1
    29    26    27    1
    30    26    13    2
    31    28    37    1
    32    28    31    1
    33    29    35    1
    34    29    39    2
    35    30    34    1
    36    30    31    1
    37    32    37    1
    38    35    28    2
    39    36    29    1
    40    37    33    1
    41    38    39    1
    42    39    32    1
