@<TRIPOS>MOLECULE
No_3579-gen_results/8p0m/2024-11-27-11-27-31/
 25 27 0 0 0
SMALL
GASTEIGER

@<TRIPOS>ATOM
      1 C         -28.0162   -0.8135   28.8779 C.ar    1  UNL1        0.0149
      2 C         -27.0636   -0.1189   28.6079 C.ar    1  UNL1        0.0528
      3 C         -25.7647   -0.3897   29.0360 C.ar    1  UNL1        0.0138
      4 C         -25.5296   -1.5302   29.9014 C.ar    1  UNL1        0.0012
      5 C         -26.6577   -2.2915   30.2035 C.ar    1  UNL1        0.0001
      6 C         -27.8548   -1.9555   29.7630 C.ar    1  UNL1        0.0013
      7 C         -24.5441    0.4126   28.7379 C.ar    1  UNL1        0.0056
      8 C         -24.0952    1.3785   29.5751 C.ar    1  UNL1        0.0554
      9 C         -22.9780    2.1448   29.2566 C.ar    1  UNL1        0.0046
     10 C         -22.2496    1.9089   28.0531 C.ar    1  UNL1        0.0001
     11 C         -23.7843    0.2749   27.5458 C.ar    1  UNL1        0.0002
     12 C         -22.7252    0.9953   27.2629 C.ar    1  UNL1        0.0000
     13 C         -24.7707    1.6220   30.9072 C.2     1  UNL1        0.2690
     14 N         -25.0156    2.8390   31.3476 N.am    1  UNL1       -0.1754
     15 C         -25.7111    3.1203   32.4489 C.ar    1  UNL1        0.0737
     16 O         -25.2783    0.6632   31.5090 O.2     1  UNL1       -0.2680
     17 C         -25.7257    4.4890   32.8228 C.ar    1  UNL1        0.0166
     18 C         -26.3408    5.0228   33.8116 C.ar    1  UNL1        0.0013
     19 C         -27.1934    4.1175   34.6116 C.ar    1  UNL1        0.0001
     20 C         -27.1979    2.7835   34.2734 C.ar    1  UNL1        0.0013
     21 C         -26.4687    2.3026   33.2167 C.ar    1  UNL1        0.0166
     22 N         -27.1958    1.0013   27.7548 N.pl3   1  UNL1       -0.2670
     23 C         -27.3677    1.8522   27.1172 C.2     1  UNL1        0.1911
     24 N         -26.7295    2.0181   26.0709 N.2     1  UNL1       -0.1283
     25 C         -26.9750    0.4182   26.7598 C.3     1  UNL1        0.1189
@<TRIPOS>BOND
     1     3     7    1
     2     8    13    1
     3    13    14   am
     4    13    16    2
     5     2    22    1
     6    22    23    1
     7    23    24    2
     8    22    25    1
     9    14    15    1
    10     7     8   ar
    11     8     9   ar
    12     9    10   ar
    13    10    12   ar
    14    12    11   ar
    15    11     7   ar
    16     1     2   ar
    17     2     3   ar
    18     3     4   ar
    19     4     5   ar
    20     5     6   ar
    21     6     1   ar
    22    15    17   ar
    23    17    18   ar
    24    18    19   ar
    25    19    20   ar
    26    20    21   ar
    27    21    15   ar
