@<TRIPOS>MOLECULE
No_358-gen_results/8p0m/2024-11-27-11-27-31/
 16 17 0 0 0
SMALL
GASTEIGER

@<TRIPOS>ATOM
      1 C         -28.0162   -0.8135   28.8779 C.3     1  UNL1        0.0044
      2 C         -27.0636   -0.1190   28.6079 C.3     1  UNL1        0.0223
      3 C         -27.0010    0.6913   27.4910 C.ar    1  UNL1       -0.0225
      4 C         -27.1778    1.9037   27.5632 C.ar    1  UNL1       -0.0043
      5 C         -28.7446   -0.3657   29.8430 C.3     1  UNL1        0.0003
      6 C         -28.1633    0.0823   31.0800 C.3     1  UNL1        0.0000
      7 C         -26.8214    0.5935   30.9673 C.3     1  UNL1        0.0003
      8 C         -26.2666    0.5981   29.6530 C.3     1  UNL1        0.0040
      9 C         -26.5570    0.0054   26.2512 C.ar    1  UNL1       -0.0043
     10 C         -27.0798    2.7226   26.2552 C.ar    1  UNL1       -0.0003
     11 C         -26.4896    0.6892   25.0132 C.ar    1  UNL1       -0.0003
     12 C         -26.7017    2.0989   25.0124 C.ar    1  UNL1       -0.0000
     13 C         -24.9514    1.1732   29.4553 C.3     1  UNL1        0.0003
     14 C         -23.8677    0.4219   28.9561 C.3     1  UNL1        0.0000
     15 C         -22.8393    0.2540   29.6800 C.3     1  UNL1        0.0000
     16 C         -25.0363    2.5424   28.6980 C.3     1  UNL1        0.0000
@<TRIPOS>BOND
     1     1     2    1
     2     2     3    1
     3     1     5    1
     4     5     6    1
     5     6     7    1
     6     2     8    1
     7     7     8    1
     8     8    13    1
     9    13    14    1
    10    14    15    1
    11    13    16    1
    12     3     4   ar
    13     4    10   ar
    14    10    12   ar
    15    12    11   ar
    16    11     9   ar
    17     9     3   ar
