@<TRIPOS>MOLECULE
outputs/IAG933/test6/raw/output_3580_IAG933_linker_design_.xyz
 44 47 0 0 0
SMALL
GASTEIGER

@<TRIPOS>ATOM
      1 C         -24.8550   -1.0120   30.1430 C.3     1  UNL1        0.0559
      2 C         -24.9730   -2.5050   29.7880 C.2     1  UNL1       -0.0174
      3 C         -23.9060   -3.1730   29.1460 C.2     1  UNL1       -0.0039
      4 C         -23.9890   -4.5490   28.8530 C.2     1  UNL1       -0.0003
      5 C         -25.1370   -5.2800   29.2050 C.2     1  UNL1       -0.0000
      6 C         -26.2320   -4.6110   29.7840 C.2     1  UNL1       -0.0003
      7 C         -26.1550   -3.2320   30.0650 C.2     1  UNL1       -0.0039
      8 C         -25.3870   -0.6790   31.5710 C.3     1  UNL1        0.0805
      9 C         -25.1890    0.7730   32.0280 C.3     1  UNL1        0.0195
     10 C         -25.3360    0.6840   33.5440 C.3     1  UNL1        0.0203
     11 C         -24.8290   -0.7150   33.9050 C.3     1  UNL1        0.0887
     12 N         -24.7580   -1.4810   32.6460 N.3     1  UNL1       -0.2188
     13 C         -25.6880    1.6140   26.4610 C.3     1  UNL1        0.0742
     14 C         -26.2500    2.9200   26.3950 C.2     1  UNL1        0.0551
     15 C         -25.6420    4.0930   27.1230 C.2     1  UNL1        0.2624
     16 N         -25.6140    5.2520   26.4490 N.am    1  UNL1       -0.2000
     17 C         -25.0260    6.4790   26.9630 C.3     1  UNL1        0.1388
     18 O         -25.1430    3.9660   28.2430 O.2     1  UNL1       -0.2687
     19 C         -27.4380    3.0910   25.6450 C.2     1  UNL1        0.1021
     20 N         -28.0750    2.0890   25.0030 N.2     1  UNL1       -0.2119
     21 C         -27.5430    0.8490   25.0790 C.2     1  UNL1        0.2341
     22 O         -28.1930   -0.2080   24.4770 O.2     1  UNL1       -0.4585
     23 C         -29.4600    0.0050   23.8660 C.3     1  UNL1        0.2423
     24 C         -30.0650   -1.3770   23.5730 C.3     1  UNL1        0.2292
     25 O         -30.7290   -1.8780   24.7210 O.3     1  UNL1       -0.2162
     26 C         -26.3540    0.5760   25.7770 C.3     1  UNL1        0.2403
     27 F         -25.8600   -0.6810   25.7950 F       1  UNL1       -0.2269
     28 C         -26.6768    0.0684   28.5650 C.3     1  UNL1        0.0313
     29 C         -31.0382    0.4625   31.1880 C.3     1  UNL1        0.0983
     30 C         -29.9821    0.1649   33.0587 C.3     1  UNL1        0.1580
     31 C         -22.6142    0.7704   28.3983 C.3     1  UNL1        0.0214
     32 C         -27.5325    0.5879   29.7945 C.3     1  UNL1        0.0897
     33 C         -24.1095    0.5667   28.2003 C.2     1  UNL1       -0.0513
     34 C         -21.7183    1.3167   27.3027 C.3     1  UNL1        0.0047
     35 O         -28.9208    1.0540   32.6036 O.3     1  UNL1       -0.2229
     36 O         -29.2267   -0.4739   28.5120 O.2     1  UNL1       -0.2748
     37 N         -29.8621   -0.2105   30.6161 N.am    1  UNL1       -0.2551
     38 C         -28.9073   -0.1169   29.6878 C.2     1  UNL1        0.2277
     39 O         -29.5152   -2.4556   30.4276 O.3     1  UNL1       -0.2005
     40 C         -31.1158    0.3891   32.7613 C.3     1  UNL1        0.0546
     41 C         -25.1385   -0.1679   28.9679 C.2     1  UNL1       -0.0465
     42 C         -29.6571   -1.3817   32.5748 C.3     1  UNL1        0.0871
     43 C         -30.2422   -1.5798   31.1852 C.3     1  UNL1        0.2326
     44 C         -24.2526    1.4669   26.8884 C.3     1  UNL1        0.0292
@<TRIPOS>BOND
     1     1    41    1
     2     2     7    1
     3     2     1    1
     4     3     2    2
     5     4     3    1
     6     4     5    2
     7     5     6    1
     8     6     7    2
     9     8     1    1
    10     8     9    1
    11     8    12    1
    12     9    10    1
    13    10    11    1
    14    12    11    1
    15    13    44    1
    16    14    13    1
    17    14    15    1
    18    15    18    2
    19    16    17    1
    20    16    15    1
    21    19    14    2
    22    20    21    2
    23    20    19    1
    24    21    26    1
    25    22    21    1
    26    23    22    1
    27    24    23    1
    28    24    25    1
    29    26    27    1
    30    26    13    1
    31    28    41    1
    32    28    32    1
    33    29    40    1
    34    30    35    1
    35    33    31    1
    36    33    41    2
    37    34    31    1
    38    36    38    2
    39    37    43    1
    40    37    29    1
    41    38    32    1
    42    38    37   am
    43    40    30    1
    44    42    30    1
    45    43    39    1
    46    43    42    1
    47    44    33    1
