@<TRIPOS>MOLECULE
No_3581-gen_results/8p0m/2024-11-27-11-27-31/
 8 8 0 0 0
SMALL
GASTEIGER

@<TRIPOS>ATOM
      1 C         -28.0162   -0.8135   28.8779 C.ar    1  UNL1        0.0000
      2 C         -27.0636   -0.1189   28.6079 C.ar    1  UNL1        0.0000
      3 C         -27.0010    0.6913   27.4910 C.ar    1  UNL1        0.0000
      4 C         -28.1373    0.7363   26.6350 C.ar    1  UNL1        0.0016
      5 C         -29.2360    0.0765   27.0690 C.ar    1  UNL1        0.0210
      6 C         -30.3815    0.2048   26.2662 C.2     1  UNL1        0.1221
      7 C         -29.1803   -0.6422   28.1830 C.ar    1  UNL1        0.0016
      8 N         -30.9641    1.1697   26.0469 N.2     1  UNL1       -0.1464
@<TRIPOS>BOND
     1     5     6    1
     2     6     8    2
     3     1     2   ar
     4     2     3   ar
     5     3     4   ar
     6     4     5   ar
     7     5     7   ar
     8     7     1   ar
