@<TRIPOS>MOLECULE
outputs/IAG933/test6/raw/output_3585_IAG933_linker_design_.xyz
 42 46 0 0 0
SMALL
GASTEIGER

@<TRIPOS>ATOM
      1 C         -24.8550   -1.0120   30.1430 C.3     1  UNL1        0.0581
      2 C         -24.9730   -2.5050   29.7880 C.2     1  UNL1       -0.0195
      3 C         -23.9060   -3.1730   29.1460 C.2     1  UNL1       -0.0042
      4 C         -23.9890   -4.5490   28.8530 C.2     1  UNL1       -0.0003
      5 C         -25.1370   -5.2800   29.2050 C.2     1  UNL1       -0.0000
      6 C         -26.2320   -4.6110   29.7840 C.2     1  UNL1       -0.0003
      7 C         -26.1550   -3.2320   30.0650 C.2     1  UNL1       -0.0042
      8 C         -25.3870   -0.6790   31.5710 C.3     1  UNL1        0.0785
      9 C         -25.1890    0.7730   32.0280 C.3     1  UNL1        0.0192
     10 C         -25.3360    0.6840   33.5440 C.3     1  UNL1        0.0202
     11 C         -24.8290   -0.7150   33.9050 C.3     1  UNL1        0.0887
     12 N         -24.7580   -1.4810   32.6460 N.3     1  UNL1       -0.2191
     13 C         -25.6880    1.6140   26.4610 C.2     1  UNL1        0.0516
     14 C         -26.2500    2.9200   26.3950 C.2     1  UNL1        0.0777
     15 C         -25.6420    4.0930   27.1230 C.2     1  UNL1        0.2665
     16 N         -25.6140    5.2520   26.4490 N.am    1  UNL1       -0.1997
     17 C         -25.0260    6.4790   26.9630 C.3     1  UNL1        0.1388
     18 O         -25.1430    3.9660   28.2430 O.2     1  UNL1       -0.2683
     19 C         -27.4380    3.0910   25.6450 C.2     1  UNL1        0.1068
     20 N         -28.0750    2.0890   25.0030 N.2     1  UNL1       -0.2081
     21 C         -27.5430    0.8490   25.0790 C.2     1  UNL1        0.2533
     22 O         -28.1930   -0.2080   24.4770 O.2     1  UNL1       -0.4558
     23 C         -29.4600    0.0050   23.8660 C.3     1  UNL1        0.2426
     24 C         -30.0650   -1.3770   23.5730 C.3     1  UNL1        0.2292
     25 O         -30.7290   -1.8780   24.7210 O.3     1  UNL1       -0.2162
     26 C         -26.3540    0.5760   25.7770 C.2     1  UNL1        0.1942
     27 F         -25.8600   -0.6810   25.7950 F       1  UNL1       -0.1992
     28 C         -29.8427    3.7077   30.2954 C.3     1  UNL1        0.1453
     29 O         -20.9260    1.3657   27.5642 O.co2   1  UNL1       -0.2405
     30 O         -22.3733    0.3883   28.8104 O.co2   1  UNL1       -0.2405
     31 C         -25.4771    1.1789   29.4758 C.3     1  UNL1        0.1071
     32 C         -29.1598    1.5401   29.4091 C.3     1  UNL1        0.0770
     33 C         -27.0025    0.8580   29.6071 C.3     1  UNL1        0.0957
     34 C         -22.1066    1.0738   27.7876 C.2     1  UNL1        0.3892
     35 C         -24.5140    1.3209   27.1905 C.2     1  UNL1        0.0570
     36 N         -27.8151    2.0954   29.5471 N.3     1  UNL1       -0.2459
     37 O         -28.5574    3.8146   30.9890 O.3     1  UNL1       -0.3373
     38 C         -27.3643    3.1075   30.5489 C.3     1  UNL1        0.2200
     39 C         -23.1437    1.5577   26.8163 C.2     1  UNL1        0.1007
     40 C         -30.2154    2.2019   30.3098 C.3     1  UNL1        0.0495
     41 N         -24.7451    0.7913   28.3955 N.pl3   1  UNL1       -0.3055
     42 C         -25.0553   -0.2372   29.0404 C.3     1  UNL1        0.0975
@<TRIPOS>BOND
     1     1     2    1
     2     2     7    1
     3     3     2    2
     4     4     3    1
     5     4     5    2
     6     5     6    1
     7     6     7    2
     8     8     1    1
     9     8     9    1
    10     8    12    1
    11     9    10    1
    12    10    11    1
    13    12    11    1
    14    13    35    1
    15    14    13    1
    16    14    15    1
    17    15    18    2
    18    16    17    1
    19    16    15    1
    20    19    14    2
    21    20    21    2
    22    20    19    1
    23    21    26    1
    24    22    21    1
    25    23    22    1
    26    24    23    1
    27    24    25    1
    28    26    27    1
    29    26    13    2
    30    28    40    1
    31    28    37    1
    32    29    34   ar
    33    31    33    1
    34    32    36    1
    35    32    40    1
    36    34    30   ar
    37    35    41    1
    38    36    33    1
    39    36    38    1
    40    38    37    1
    41    39    35    2
    42    39    34    1
    43    41    42    1
    44    41    31    1
    45    42    31    1
    46    42     1    1
