@<TRIPOS>MOLECULE
outputs/IAG933/test6/raw/output_3586_IAG933_linker_design_.xyz
 42 46 0 0 0
SMALL
GASTEIGER

@<TRIPOS>ATOM
      1 C         -24.8550   -1.0120   30.1430 C.3     1  UNL1        0.1116
      2 C         -24.9730   -2.5050   29.7880 C.2     1  UNL1       -0.0030
      3 C         -23.9060   -3.1730   29.1460 C.2     1  UNL1       -0.0026
      4 C         -23.9890   -4.5490   28.8530 C.2     1  UNL1       -0.0003
      5 C         -25.1370   -5.2800   29.2050 C.2     1  UNL1       -0.0000
      6 C         -26.2320   -4.6110   29.7840 C.2     1  UNL1       -0.0003
      7 C         -26.1550   -3.2320   30.0650 C.2     1  UNL1       -0.0026
      8 C         -25.3870   -0.6790   31.5710 C.3     1  UNL1        0.0950
      9 C         -25.1890    0.7730   32.0280 C.3     1  UNL1        0.0209
     10 C         -25.3360    0.6840   33.5440 C.3     1  UNL1        0.0203
     11 C         -24.8290   -0.7150   33.9050 C.3     1  UNL1        0.0888
     12 N         -24.7580   -1.4810   32.6460 N.3     1  UNL1       -0.2174
     13 C         -25.6880    1.6140   26.4610 C.2     1  UNL1        0.0359
     14 C         -26.2500    2.9200   26.3950 C.2     1  UNL1        0.0763
     15 C         -25.6420    4.0930   27.1230 C.2     1  UNL1        0.2664
     16 N         -25.6140    5.2520   26.4490 N.am    1  UNL1       -0.1997
     17 C         -25.0260    6.4790   26.9630 C.3     1  UNL1        0.1388
     18 O         -25.1430    3.9660   28.2430 O.2     1  UNL1       -0.2683
     19 C         -27.4380    3.0910   25.6450 C.2     1  UNL1        0.1067
     20 N         -28.0750    2.0890   25.0030 N.2     1  UNL1       -0.2081
     21 C         -27.5430    0.8490   25.0790 C.2     1  UNL1        0.2533
     22 O         -28.1930   -0.2080   24.4770 O.2     1  UNL1       -0.4558
     23 C         -29.4600    0.0050   23.8660 C.3     1  UNL1        0.2426
     24 C         -30.0650   -1.3770   23.5730 C.3     1  UNL1        0.2292
     25 O         -30.7290   -1.8780   24.7210 O.3     1  UNL1       -0.2162
     26 C         -26.3540    0.5760   25.7770 C.2     1  UNL1        0.1928
     27 F         -25.8600   -0.6810   25.7950 F       1  UNL1       -0.1992
     28 C         -24.6812    1.3259   27.4269 C.2     1  UNL1        0.0057
     29 C         -27.5336    3.4673   31.0106 C.3     1  UNL1        0.0188
     30 C         -23.3277    1.4187   27.0910 C.2     1  UNL1        0.0741
     31 N         -25.5632    2.3956   30.5942 N.3     1  UNL1       -0.2159
     32 C         -25.0482    0.9080   28.7212 C.3     1  UNL1        0.1133
     33 C         -21.1520    1.1185   27.4488 C.3     1  UNL1        0.2368
     34 C         -26.0354    3.6750   31.1815 C.3     1  UNL1        0.0888
     35 C         -27.9447    4.8632   31.3280 C.3     1  UNL1        0.0015
     36 C         -22.6807    2.0580   26.0764 C.2     1  UNL1        0.3411
     37 C         -22.4536    0.7843   27.9794 C.2     1  UNL1        0.0418
     38 C         -22.9254    0.0861   29.0838 C.2     1  UNL1        0.0612
     39 O         -23.1204    2.7171   25.0574 O.2     1  UNL1       -0.2449
     40 C         -26.0764    1.5733   29.5104 C.3     1  UNL1        0.1129
     41 N         -24.2345   -0.0317   29.2624 N.pl3   1  UNL1       -0.2997
     42 O         -21.3344    1.9461   26.3470 O.3     1  UNL1       -0.4404
@<TRIPOS>BOND
     1     1     2    1
     2     2     7    1
     3     3     2    2
     4     4     3    1
     5     4     5    2
     6     5     6    1
     7     6     7    2
     8     8     1    1
     9     8     9    1
    10     8    12    1
    11     9    10    1
    12    10    11    1
    13    12    11    1
    14    13    28    1
    15    14    13    1
    16    14    15    1
    17    15    18    2
    18    16    17    1
    19    16    15    1
    20    19    14    2
    21    20    21    2
    22    20    19    1
    23    21    26    1
    24    22    21    1
    25    23    22    1
    26    24    23    1
    27    24    25    1
    28    26    27    1
    29    26    13    2
    30    28    32    1
    31    29    34    1
    32    29    35    1
    33    30    28    2
    34    30    37    1
    35    31    34    1
    36    32    41    1
    37    32    40    1
    38    33    37    1
    39    36    42    1
    40    36    30    1
    41    37    38    2
    42    38    41    1
    43    39    36    2
    44    40    31    1
    45    41     1    1
    46    42    33    1
