@<TRIPOS>MOLECULE
outputs/IAG933/test6/raw/output_3587_IAG933_linker_design_.xyz
 43 46 0 0 0
SMALL
GASTEIGER

@<TRIPOS>ATOM
      1 C         -24.8550   -1.0120   30.1430 C.3     1  UNL1        0.1111
      2 C         -24.9730   -2.5050   29.7880 C.2     1  UNL1       -0.0051
      3 C         -23.9060   -3.1730   29.1460 C.2     1  UNL1       -0.0029
      4 C         -23.9890   -4.5490   28.8530 C.2     1  UNL1       -0.0003
      5 C         -25.1370   -5.2800   29.2050 C.2     1  UNL1       -0.0000
      6 C         -26.2320   -4.6110   29.7840 C.2     1  UNL1       -0.0003
      7 C         -26.1550   -3.2320   30.0650 C.2     1  UNL1       -0.0029
      8 C         -25.3870   -0.6790   31.5710 C.3     1  UNL1        0.0929
      9 C         -25.1890    0.7730   32.0280 C.3     1  UNL1        0.0206
     10 C         -25.3360    0.6840   33.5440 C.3     1  UNL1        0.0203
     11 C         -24.8290   -0.7150   33.9050 C.3     1  UNL1        0.0888
     12 N         -24.7580   -1.4810   32.6460 N.3     1  UNL1       -0.2177
     13 C         -25.6880    1.6140   26.4610 C.2     1  UNL1        0.0158
     14 C         -26.2500    2.9200   26.3950 C.2     1  UNL1        0.0726
     15 C         -25.6420    4.0930   27.1230 C.2     1  UNL1        0.2661
     16 N         -25.6140    5.2520   26.4490 N.am    1  UNL1       -0.1997
     17 C         -25.0260    6.4790   26.9630 C.3     1  UNL1        0.1388
     18 O         -25.1430    3.9660   28.2430 O.2     1  UNL1       -0.2683
     19 C         -27.4380    3.0910   25.6450 C.2     1  UNL1        0.1064
     20 N         -28.0750    2.0890   25.0030 N.2     1  UNL1       -0.2081
     21 C         -27.5430    0.8490   25.0790 C.2     1  UNL1        0.2530
     22 O         -28.1930   -0.2080   24.4770 O.2     1  UNL1       -0.4558
     23 C         -29.4600    0.0050   23.8660 C.3     1  UNL1        0.2426
     24 C         -30.0650   -1.3770   23.5730 C.3     1  UNL1        0.2292
     25 O         -30.7290   -1.8780   24.7210 O.3     1  UNL1       -0.2162
     26 C         -26.3540    0.5760   25.7770 C.2     1  UNL1        0.1891
     27 F         -25.8600   -0.6810   25.7950 F       1  UNL1       -0.1996
     28 C         -24.0722    1.4155   28.4964 C.3     1  UNL1        0.0613
     29 C         -26.5019    2.4430   29.0860 C.3     1  UNL1        0.4414
     30 CA        -25.5164    1.1902   29.0970 C.3     1  UNL1        0.1679
     31 C         -23.2334    1.6201   26.2693 C.3     1  UNL1        0.0398
     32 C         -22.5902    1.0225   28.9163 C.3     1  UNL1        0.1889
     33 O         -27.7569    2.2141   29.1142 O.2     1  UNL1       -0.2654
     34 C         -21.9376    1.8831   26.6882 C.3     1  UNL1        0.1960
     35 O         -22.3863    0.0823   29.7798 O.3     1  UNL1       -0.2201
     36 OXT       -25.8523    2.9121   30.3056 O.2     1  UNL1       -0.2654
     37 C         -21.4286    1.3455   27.9766 C.3     1  UNL1        0.2233
     38 F         -20.6733    0.2658   27.5186 F       1  UNL1       -0.2316
     39 N         -25.7198   -0.2384   29.2683 N.3     1  UNL1       -0.2071
     40 C         -24.3104    1.4321   26.9380 C.3     1  UNL1        0.0318
     41 C         -23.2692    1.3569   24.9473 C.3     1  UNL1        0.0031
     42 F         -20.9119    2.0240   25.8054 F       1  UNL1       -0.2342
     43 C         -22.8112    1.3779   23.6595 C.3     1  UNL1        0.0001
@<TRIPOS>BOND
     1     1    39    1
     2     2     7    1
     3     2     1    1
     4     3     2    2
     5     4     3    1
     6     4     5    2
     7     5     6    1
     8     6     7    2
     9     8     1    1
    10     8     9    1
    11     8    12    1
    12     9    10    1
    13    10    11    1
    14    12    11    1
    15    14    13    1
    16    14    15    1
    17    15    18    2
    18    16    17    1
    19    16    15    1
    20    19    14    2
    21    20    21    2
    22    20    19    1
    23    21    26    1
    24    22    21    1
    25    23    22    1
    26    24    23    1
    27    24    25    1
    28    26    27    1
    29    26    13    2
    30    28    32    1
    31    28    30    1
    32    29    33    1
    33    29    36    1
    34    30    29    1
    35    30    39    1
    36    31    41    1
    37    31    34    1
    38    31    40    1
    39    32    35    1
    40    34    42    1
    41    34    37    1
    42    37    38    1
    43    37    32    1
    44    40    13    1
    45    40    28    1
    46    43    41    1
