@<TRIPOS>MOLECULE
outputs/IAG933/test6/raw/output_3588_IAG933_linker_design_.xyz
 43 47 0 0 0
SMALL
GASTEIGER

@<TRIPOS>ATOM
      1 C         -24.8550   -1.0120   30.1430 C.3     1  UNL1        0.0623
      2 C         -24.9730   -2.5050   29.7880 C.2     1  UNL1       -0.0193
      3 C         -23.9060   -3.1730   29.1460 C.2     1  UNL1       -0.0042
      4 C         -23.9890   -4.5490   28.8530 C.2     1  UNL1       -0.0003
      5 C         -25.1370   -5.2800   29.2050 C.2     1  UNL1       -0.0000
      6 C         -26.2320   -4.6110   29.7840 C.2     1  UNL1       -0.0003
      7 C         -26.1550   -3.2320   30.0650 C.2     1  UNL1       -0.0042
      8 C         -25.3870   -0.6790   31.5710 C.3     1  UNL1        0.0786
      9 C         -25.1890    0.7730   32.0280 C.3     1  UNL1        0.0193
     10 C         -25.3360    0.6840   33.5440 C.3     1  UNL1        0.0202
     11 C         -24.8290   -0.7150   33.9050 C.3     1  UNL1        0.0887
     12 N         -24.7580   -1.4810   32.6460 N.3     1  UNL1       -0.2191
     13 C         -25.6880    1.6140   26.4610 C.2     1  UNL1        0.0414
     14 C         -26.2500    2.9200   26.3950 C.2     1  UNL1        0.0766
     15 C         -25.6420    4.0930   27.1230 C.2     1  UNL1        0.2664
     16 N         -25.6140    5.2520   26.4490 N.am    1  UNL1       -0.1997
     17 C         -25.0260    6.4790   26.9630 C.3     1  UNL1        0.1388
     18 O         -25.1430    3.9660   28.2430 O.2     1  UNL1       -0.2683
     19 C         -27.4380    3.0910   25.6450 C.2     1  UNL1        0.1067
     20 N         -28.0750    2.0890   25.0030 N.2     1  UNL1       -0.2081
     21 C         -27.5430    0.8490   25.0790 C.2     1  UNL1        0.2533
     22 O         -28.1930   -0.2080   24.4770 O.2     1  UNL1       -0.4558
     23 C         -29.4600    0.0050   23.8660 C.3     1  UNL1        0.2426
     24 C         -30.0650   -1.3770   23.5730 C.3     1  UNL1        0.2292
     25 O         -30.7290   -1.8780   24.7210 O.3     1  UNL1       -0.2162
     26 C         -26.3540    0.5760   25.7770 C.2     1  UNL1        0.1932
     27 F         -25.8600   -0.6810   25.7950 F       1  UNL1       -0.1992
     28 N         -26.6832    0.1324   28.8394 N.3     1  UNL1       -0.2091
     29 C         -28.5819   -1.0864   30.0050 C.3     1  UNL1        0.1766
     30 C         -27.9879   -0.5329   28.7580 C.3     1  UNL1        0.1134
     31 N         -22.9931    0.5516   28.7233 N.2     1  UNL1       -0.0357
     32 C         -21.9723    1.1976   28.0893 C.2     1  UNL1        0.4152
     33 C         -31.0652    1.6300   28.5432 C.3     1  UNL1        0.0724
     34 C         -24.2926    0.6674   28.2529 C.2     1  UNL1        0.1869
     35 C         -30.3082    0.3587   28.1134 C.2     1  UNL1        0.1547
     36 C         -24.4656    1.3587   27.0185 C.2     1  UNL1        0.0429
     37 O         -29.3323   -2.2235   29.5767 O.3     1  UNL1       -0.2211
     38 C         -23.4083    1.9694   26.3158 C.2     1  UNL1        0.0114
     39 N         -20.5841    1.1413   28.6145 N.pl3   1  UNL1        0.2163
     40 C         -22.1441    1.9472   26.8678 C.2     1  UNL1        0.0982
     41 C         -25.3552   -0.0211   29.0440 C.3     1  UNL1        0.1436
     42 C         -29.2929    0.1391   29.2589 C.3     1  UNL1        0.1078
     43 O         -30.3404   -0.1191   27.0350 O.2     1  UNL1       -0.2959
@<TRIPOS>BOND
     1     1    41    1
     2     2     7    1
     3     2     1    1
     4     3     2    2
     5     4     3    1
     6     4     5    2
     7     5     6    1
     8     6     7    2
     9     8     1    1
    10     8     9    1
    11     8    12    1
    12     9    10    1
    13    10    11    1
    14    12    11    1
    15    13    36    1
    16    14    13    1
    17    14    15    1
    18    15    18    2
    19    16    17    1
    20    16    15    1
    21    19    14    2
    22    20    21    2
    23    20    19    1
    24    21    26    1
    25    22    21    1
    26    23    22    1
    27    24    23    1
    28    24    25    1
    29    26    27    1
    30    26    13    2
    31    29    37    1
    32    30    28    1
    33    30    42    1
    34    30    29    1
    35    32    39    1
    36    32    31    2
    37    34    31    1
    38    34    41    1
    39    35    33    1
    40    36    34    2
    41    38    40    2
    42    38    36    1
    43    40    32    1
    44    41    28    1
    45    42    35    1
    46    42    29    1
    47    43    35    2
