@<TRIPOS>MOLECULE
outputs/IAG933/test6/raw/output_3589_IAG933_linker_design_.xyz
 44 48 0 0 0
SMALL
GASTEIGER

@<TRIPOS>ATOM
      1 C         -24.8550   -1.0120   30.1430 C.3     1  UNL1        0.1985
      2 C         -24.9730   -2.5050   29.7880 C.2     1  UNL1        0.0213
      3 C         -23.9060   -3.1730   29.1460 C.2     1  UNL1       -0.0004
      4 C         -23.9890   -4.5490   28.8530 C.2     1  UNL1       -0.0002
      5 C         -25.1370   -5.2800   29.2050 C.2     1  UNL1       -0.0000
      6 C         -26.2320   -4.6110   29.7840 C.2     1  UNL1       -0.0002
      7 C         -26.1550   -3.2320   30.0650 C.2     1  UNL1       -0.0004
      8 C         -25.3870   -0.6790   31.5710 C.3     1  UNL1        0.1197
      9 C         -25.1890    0.7730   32.0280 C.3     1  UNL1        0.0233
     10 C         -25.3360    0.6840   33.5440 C.3     1  UNL1        0.0204
     11 C         -24.8290   -0.7150   33.9050 C.3     1  UNL1        0.0889
     12 N         -24.7580   -1.4810   32.6460 N.3     1  UNL1       -0.2150
     13 C         -25.6880    1.6140   26.4610 C.2     1  UNL1        0.1811
     14 C         -26.2500    2.9200   26.3950 C.2     1  UNL1        0.1139
     15 C         -25.6420    4.0930   27.1230 C.2     1  UNL1        0.2698
     16 N         -25.6140    5.2520   26.4490 N.am    1  UNL1       -0.1996
     17 C         -25.0260    6.4790   26.9630 C.3     1  UNL1        0.1388
     18 O         -25.1430    3.9660   28.2430 O.2     1  UNL1       -0.2682
     19 C         -27.4380    3.0910   25.6450 C.2     1  UNL1        0.1102
     20 N         -28.0750    2.0890   25.0030 N.2     1  UNL1       -0.2078
     21 C         -27.5430    0.8490   25.0790 C.2     1  UNL1        0.2568
     22 O         -28.1930   -0.2080   24.4770 O.2     1  UNL1       -0.4557
     23 C         -29.4600    0.0050   23.8660 C.3     1  UNL1        0.2426
     24 C         -30.0650   -1.3770   23.5730 C.3     1  UNL1        0.2292
     25 O         -30.7290   -1.8780   24.7210 O.3     1  UNL1       -0.2162
     26 C         -26.3540    0.5760   25.7770 C.2     1  UNL1        0.2301
     27 F         -25.8600   -0.6810   25.7950 F       1  UNL1       -0.1956
     28 N         -25.3954   -0.2046   28.9998 N.pl3   1  UNL1       -0.1883
     29 O         -27.8767    1.6832   30.2585 O.2     1  UNL1       -0.2904
     30 C         -26.9524   -0.4900   28.6967 C.3     1  UNL1        0.2282
     31 C         -32.0261    0.2720   29.9551 C.3     1  UNL1        0.0900
     32 N         -30.9672    0.5989   29.0436 N.3     1  UNL1       -0.2647
     33 C         -30.6443   -0.0636   27.8054 C.3     1  UNL1        0.0771
     34 C         -29.3107   -0.2879   27.5179 C.3     1  UNL1        0.0463
     35 N         -22.4670    0.0401   29.4891 N.pl3   1  UNL1       -0.1208
     36 C         -28.4300    0.1262   28.5916 C.2     1  UNL1        0.0395
     37 C         -21.0696    1.7978   27.3440 C.3     1  UNL1        0.0364
     38 C         -28.8061    1.0809   29.5066 C.2     1  UNL1        0.1852
     39 C         -30.1449    1.4933   29.6350 C.3     1  UNL1        0.1418
     40 C         -23.1239    0.6265   28.5057 C.2     1  UNL1        0.1650
     41 C         -23.3962    1.9592   26.7259 C.2     1  UNL1        0.1777
     42 C         -24.5491    0.5656   28.3138 C.2     1  UNL1        0.2969
     43 N         -24.6416    1.4117   27.3027 N.pl3   1  UNL1       -0.1478
     44 C         -22.5314    1.4668   27.4876 C.2     1  UNL1        0.0427
@<TRIPOS>BOND
     1     1    28    1
     2     2     7    1
     3     2     1    1
     4     3     2    2
     5     4     3    1
     6     4     5    2
     7     5     6    1
     8     6     7    2
     9     8     1    1
    10     8     9    1
    11     8    12    1
    12     9    10    1
    13    10    11    1
    14    12    11    1
    15    13    43    1
    16    14    13    1
    17    14    15    1
    18    15    18    2
    19    16    17    1
    20    16    15    1
    21    19    14    2
    22    20    21    2
    23    20    19    1
    24    21    26    1
    25    22    21    1
    26    23    22    1
    27    24    23    1
    28    24    25    1
    29    26    27    1
    30    26    13    2
    31    30    28    1
    32    32    39    1
    33    32    31    1
    34    33    32    1
    35    34    33    1
    36    34    36    1
    37    36    30    1
    38    36    38    2
    39    37    44    1
    40    38    39    1
    41    38    29    1
    42    40    35    1
    43    41    43    1
    44    41    44    2
    45    42    40    2
    46    42    28    1
    47    43    42    1
    48    44    40    1
