@<TRIPOS>MOLECULE
outputs/IAG933/test6/raw/output_3592_IAG933_linker_design_.xyz
 47 52 0 0 0
SMALL
GASTEIGER

@<TRIPOS>ATOM
      1 C         -24.8550   -1.0120   30.1430 C.3     1  UNL1        0.1134
      2 C         -24.9730   -2.5050   29.7880 C.2     1  UNL1       -0.0029
      3 C         -23.9060   -3.1730   29.1460 C.2     1  UNL1       -0.0026
      4 C         -23.9890   -4.5490   28.8530 C.2     1  UNL1       -0.0003
      5 C         -25.1370   -5.2800   29.2050 C.2     1  UNL1       -0.0000
      6 C         -26.2320   -4.6110   29.7840 C.2     1  UNL1       -0.0003
      7 C         -26.1550   -3.2320   30.0650 C.2     1  UNL1       -0.0026
      8 C         -25.3870   -0.6790   31.5710 C.3     1  UNL1        0.0951
      9 C         -25.1890    0.7730   32.0280 C.3     1  UNL1        0.0209
     10 C         -25.3360    0.6840   33.5440 C.3     1  UNL1        0.0203
     11 C         -24.8290   -0.7150   33.9050 C.3     1  UNL1        0.0888
     12 N         -24.7580   -1.4810   32.6460 N.3     1  UNL1       -0.2174
     13 C         -25.6880    1.6140   26.4610 C.2     1  UNL1        0.0398
     14 C         -26.2500    2.9200   26.3950 C.2     1  UNL1        0.0766
     15 C         -25.6420    4.0930   27.1230 C.2     1  UNL1        0.2664
     16 N         -25.6140    5.2520   26.4490 N.am    1  UNL1       -0.1997
     17 C         -25.0260    6.4790   26.9630 C.3     1  UNL1        0.1388
     18 O         -25.1430    3.9660   28.2430 O.2     1  UNL1       -0.2683
     19 C         -27.4380    3.0910   25.6450 C.2     1  UNL1        0.1067
     20 N         -28.0750    2.0890   25.0030 N.2     1  UNL1       -0.2081
     21 C         -27.5430    0.8490   25.0790 C.2     1  UNL1        0.2533
     22 O         -28.1930   -0.2080   24.4770 O.2     1  UNL1       -0.4558
     23 C         -29.4600    0.0050   23.8660 C.3     1  UNL1        0.2426
     24 C         -30.0650   -1.3770   23.5730 C.3     1  UNL1        0.2292
     25 O         -30.7290   -1.8780   24.7210 O.3     1  UNL1       -0.2162
     26 C         -26.3540    0.5760   25.7770 C.2     1  UNL1        0.1931
     27 F         -25.8600   -0.6810   25.7950 F       1  UNL1       -0.1992
     28 N         -25.4282   -0.1612   29.0872 N.pl3   1  UNL1       -0.2801
     29 C         -27.7717    1.1617   29.4041 C.3     1  UNL1        0.0746
     30 C         -28.0974    2.7879   29.4462 C.2     1  UNL1       -0.0116
     31 N         -29.8402    2.5832   27.8584 N.am    1  UNL1       -0.2626
     32 C         -26.9285    0.0204   28.6316 C.3     1  UNL1        0.2323
     33 O         -27.6426   -1.2320   28.7580 O.3     1  UNL1       -0.2003
     34 C         -23.1515    1.5792   26.6560 C.2     1  UNL1        0.0557
     35 C         -22.2752    1.0732   27.6080 C.3     1  UNL1        0.1357
     36 C         -22.9397    0.2251   28.5000 C.2     1  UNL1        0.0096
     37 C         -24.4918    1.2221   27.1449 C.2     1  UNL1        0.0237
     38 C         -29.0536    3.3243   28.6051 C.2     1  UNL1        0.0275
     39 C         -29.8079    1.1335   27.9598 C.3     1  UNL1        0.0983
     40 C         -29.2123    0.6364   29.3187 C.3     1  UNL1        0.0306
     41 CL        -20.6828    1.6004   27.6854 Cl      1  UNL1       -0.1044
     42 O         -31.1276    3.0264   25.9074 O.2     1  UNL1       -0.2745
     43 CL        -22.6851    2.3144   25.1616 Cl      1  UNL1       -0.0853
     44 C         -24.3831    0.3706   28.2739 C.2     1  UNL1        0.0476
     45 C         -30.4575    4.7863   27.4507 C.3     1  UNL1        0.0916
     46 C         -30.5432    3.4343   27.0495 C.2     1  UNL1        0.2295
     47 C         -29.3463    4.7523   28.3305 C.3     1  UNL1        0.0507
@<TRIPOS>BOND
     1     1    28    1
     2     2     7    1
     3     2     1    1
     4     3     2    2
     5     4     3    1
     6     4     5    2
     7     5     6    1
     8     6     7    2
     9     8     1    1
    10     8     9    1
    11     8    12    1
    12     9    10    1
    13    10    11    1
    14    12    11    1
    15    13    37    1
    16    14    13    1
    17    14    15    1
    18    15    18    2
    19    16    17    1
    20    16    15    1
    21    19    14    2
    22    20    21    2
    23    20    19    1
    24    21    26    1
    25    22    21    1
    26    23    22    1
    27    24    23    1
    28    24    25    1
    29    26    27    1
    30    26    13    2
    31    29    32    1
    32    29    30    1
    33    31    39    1
    34    31    38    1
    35    32    33    1
    36    32    28    1
    37    34    37    2
    38    34    35    1
    39    35    41    1
    40    35    36    1
    41    37    44    1
    42    38    30    2
    43    39    40    1
    44    40    29    1
    45    42    46    2
    46    43    34    1
    47    44    36    2
    48    44    28    1
    49    45    47    1
    50    46    45    1
    51    46    31   am
    52    47    38    1
