@<TRIPOS>MOLECULE
outputs/IAG933/test6/raw/output_3593_IAG933_linker_design_.xyz
 44 47 0 0 0
SMALL
GASTEIGER

@<TRIPOS>ATOM
      1 C         -24.8550   -1.0120   30.1430 C.3     1  UNL1        0.1135
      2 C         -24.9730   -2.5050   29.7880 C.2     1  UNL1       -0.0029
      3 C         -23.9060   -3.1730   29.1460 C.2     1  UNL1       -0.0026
      4 C         -23.9890   -4.5490   28.8530 C.2     1  UNL1       -0.0003
      5 C         -25.1370   -5.2800   29.2050 C.2     1  UNL1       -0.0000
      6 C         -26.2320   -4.6110   29.7840 C.2     1  UNL1       -0.0003
      7 C         -26.1550   -3.2320   30.0650 C.2     1  UNL1       -0.0026
      8 C         -25.3870   -0.6790   31.5710 C.3     1  UNL1        0.0951
      9 C         -25.1890    0.7730   32.0280 C.3     1  UNL1        0.0209
     10 C         -25.3360    0.6840   33.5440 C.3     1  UNL1        0.0203
     11 C         -24.8290   -0.7150   33.9050 C.3     1  UNL1        0.0888
     12 N         -24.7580   -1.4810   32.6460 N.3     1  UNL1       -0.2174
     13 C         -25.6880    1.6140   26.4610 C.3     1  UNL1        0.0935
     14 C         -26.2500    2.9200   26.3950 C.2     1  UNL1        0.0589
     15 C         -25.6420    4.0930   27.1230 C.2     1  UNL1        0.2628
     16 N         -25.6140    5.2520   26.4490 N.am    1  UNL1       -0.2000
     17 C         -25.0260    6.4790   26.9630 C.3     1  UNL1        0.1388
     18 O         -25.1430    3.9660   28.2430 O.2     1  UNL1       -0.2686
     19 C         -27.4380    3.0910   25.6450 C.2     1  UNL1        0.1025
     20 N         -28.0750    2.0890   25.0030 N.2     1  UNL1       -0.2118
     21 C         -27.5430    0.8490   25.0790 C.2     1  UNL1        0.2344
     22 O         -28.1930   -0.2080   24.4770 O.2     1  UNL1       -0.4585
     23 C         -29.4600    0.0050   23.8660 C.3     1  UNL1        0.2423
     24 C         -30.0650   -1.3770   23.5730 C.3     1  UNL1        0.2292
     25 O         -30.7290   -1.8780   24.7210 O.3     1  UNL1       -0.2162
     26 C         -26.3540    0.5760   25.7770 C.3     1  UNL1        0.2440
     27 F         -25.8600   -0.6810   25.7950 F       1  UNL1       -0.2265
     28 C         -30.1213    3.5524   28.8799 C.2     1  UNL1        0.2623
     29 C         -22.4819    1.0027   28.5201 C.2     1  UNL1        0.0143
     30 N         -30.1142    4.8077   29.1745 N.am    1  UNL1       -0.0877
     31 C         -23.8322    0.7884   28.0995 C.2     1  UNL1        0.0462
     32 O         -28.8931   -0.3573   27.8296 O.3     1  UNL1       -0.2188
     33 O         -30.3707    3.1964   27.7133 O.2     1  UNL1       -0.2716
     34 C         -29.0527    1.5029   29.3185 C.3     1  UNL1        0.1451
     35 C         -21.9766    2.1887   26.4587 C.2     1  UNL1       -0.0002
     36 O         -26.9705    0.8610   29.2986 O.3     1  UNL1       -0.2436
     37 C         -23.2923    2.0263   25.9922 C.2     1  UNL1       -0.0026
     38 C         -26.1834   -0.0426   28.4234 C.3     1  UNL1        0.2643
     39 N         -27.7640    2.0047   29.4976 N.3     1  UNL1       -0.0800
     40 C         -24.2605    1.4634   26.8507 C.2     1  UNL1       -0.0017
     41 N         -24.6740   -0.1072   28.9362 N.pl3   1  UNL1       -0.2778
     42 C         -28.4239    0.1620   29.1194 C.3     1  UNL1        0.2024
     43 C         -30.0398    2.5862   30.0097 C.3     1  UNL1        0.1112
     44 C         -21.5600    1.6663   27.7058 C.2     1  UNL1        0.0012
@<TRIPOS>BOND
     1     1    41    1
     2     2     7    1
     3     2     1    1
     4     3     2    2
     5     4     3    1
     6     4     5    2
     7     5     6    1
     8     6     7    2
     9     8     1    1
    10     8     9    1
    11     8    12    1
    12     9    10    1
    13    10    11    1
    14    12    11    1
    15    13    40    1
    16    14    13    1
    17    14    15    1
    18    15    18    2
    19    16    17    1
    20    16    15    1
    21    19    14    2
    22    20    21    2
    23    20    19    1
    24    21    26    1
    25    22    21    1
    26    23    22    1
    27    24    23    1
    28    24    25    1
    29    26    27    1
    30    26    13    1
    31    28    30    1
    32    28    43    1
    33    31    29    1
    34    31    41    1
    35    32    42    1
    36    33    28    2
    37    34    42    1
    38    34    39    1
    39    34    43    1
    40    35    44    1
    41    36    39    1
    42    37    35    2
    43    37    40    1
    44    38    41    1
    45    38    36    1
    46    40    31    2
    47    44    29    2
