@<TRIPOS>MOLECULE
outputs/IAG933/test6/raw/output_3596_IAG933_linker_design_.xyz
 45 49 0 0 0
SMALL
GASTEIGER

@<TRIPOS>ATOM
      1 C         -24.8550   -1.0120   30.1430 C.3     1  UNL1        0.0408
      2 C         -24.9730   -2.5050   29.7880 C.2     1  UNL1       -0.0211
      3 C         -23.9060   -3.1730   29.1460 C.2     1  UNL1       -0.0042
      4 C         -23.9890   -4.5490   28.8530 C.2     1  UNL1       -0.0003
      5 C         -25.1370   -5.2800   29.2050 C.2     1  UNL1       -0.0000
      6 C         -26.2320   -4.6110   29.7840 C.2     1  UNL1       -0.0003
      7 C         -26.1550   -3.2320   30.0650 C.2     1  UNL1       -0.0042
      8 C         -25.3870   -0.6790   31.5710 C.3     1  UNL1        0.0769
      9 C         -25.1890    0.7730   32.0280 C.3     1  UNL1        0.0192
     10 C         -25.3360    0.6840   33.5440 C.3     1  UNL1        0.0202
     11 C         -24.8290   -0.7150   33.9050 C.3     1  UNL1        0.0887
     12 N         -24.7580   -1.4810   32.6460 N.3     1  UNL1       -0.2191
     13 C         -25.6880    1.6140   26.4610 C.2     1  UNL1        0.0407
     14 C         -26.2500    2.9200   26.3950 C.2     1  UNL1        0.0745
     15 C         -25.6420    4.0930   27.1230 C.2     1  UNL1        0.2243
     16 N         -25.6140    5.2520   26.4490 N.2     1  UNL1       -0.2356
     17 C         -25.0260    6.4790   26.9630 C.3     1  UNL1        0.1550
     18 O         -25.1430    3.9660   28.2430 O.2     1  UNL1       -0.4328
     19 C         -27.4380    3.0910   25.6450 C.2     1  UNL1        0.1068
     20 N         -28.0750    2.0890   25.0030 N.2     1  UNL1       -0.2081
     21 C         -27.5430    0.8490   25.0790 C.2     1  UNL1        0.2533
     22 O         -28.1930   -0.2080   24.4770 O.2     1  UNL1       -0.4558
     23 C         -29.4600    0.0050   23.8660 C.3     1  UNL1        0.2426
     24 C         -30.0650   -1.3770   23.5730 C.3     1  UNL1        0.2292
     25 O         -30.7290   -1.8780   24.7210 O.3     1  UNL1       -0.2162
     26 C         -26.3540    0.5760   25.7770 C.2     1  UNL1        0.1931
     27 F         -25.8600   -0.6810   25.7950 F       1  UNL1       -0.1992
     28 CL        -21.7570    1.8058   27.1589 Cl      1  UNL1       -0.1150
     29 C         -28.4212    5.4905   31.7485 C.2     1  UNL1       -0.0001
     30 C         -29.1766    4.3444   31.9031 C.2     1  UNL1       -0.0000
     31 C         -24.1940    0.2327   29.4149 C.3     1  UNL1        0.0364
     32 C         -23.9718    1.8264   29.4910 C.3     1  UNL1        0.1466
     33 C         -27.8867    2.3987   29.0286 C.2     1  UNL1       -0.0001
     34 C         -29.6225    1.9480   31.1553 C.2     1  UNL1       -0.0000
     35 C         -28.9107    3.1792   31.0794 C.2     1  UNL1       -0.0001
     36 C         -22.7315   -0.2708   29.0931 C.3     1  UNL1        0.0191
     37 C         -28.5874    1.1782   29.1094 C.2     1  UNL1       -0.0000
     38 O         -25.1046    2.5774   30.0222 O.3     1  UNL1       -0.3171
     39 C         -29.4295    0.9651   30.1970 C.2     1  UNL1       -0.0000
     40 C         -20.3943   -0.0003   28.4884 C.3     1  UNL1        0.0175
     41 C         -21.7588    0.6424   28.5930 C.3     1  UNL1        0.0800
     42 C         -27.3004    5.4982   30.8879 C.2     1  UNL1        0.0018
     43 C         -25.5274    3.9728   29.6517 C.3     1  UNL1        0.3138
     44 C         -26.9316    4.3140   30.2429 C.2     1  UNL1        0.0472
     45 C         -27.8834    3.2765   30.1327 C.2     1  UNL1        0.0019
@<TRIPOS>BOND
     1     1    31    1
     2     2     7    1
     3     2     1    1
     4     3     2    2
     5     4     3    1
     6     4     5    2
     7     5     6    1
     8     6     7    2
     9     8     1    1
    10     8     9    1
    11     8    12    1
    12     9    10    1
    13    10    11    1
    14    12    11    1
    15    14    13    1
    16    14    15    1
    17    15    18    1
    18    16    17    1
    19    16    15    2
    20    19    14    2
    21    20    21    2
    22    20    19    1
    23    21    26    1
    24    22    21    1
    25    23    22    1
    26    24    23    1
    27    24    25    1
    28    26    27    1
    29    26    13    2
    30    28    41    1
    31    29    30    1
    32    31    36    1
    33    31    32    1
    34    32    38    1
    35    33    37    2
    36    33    45    1
    37    35    34    1
    38    35    30    2
    39    37    39    1
    40    39    34    2
    41    41    40    1
    42    41    36    1
    43    42    29    2
    44    43    18    1
    45    43    38    1
    46    43    44    1
    47    44    42    1
    48    45    44    2
    49    45    35    1
