@<TRIPOS>MOLECULE
No_3597-gen_results/8p0m/2024-11-27-11-27-31/
 12 13 0 0 0
SMALL
GASTEIGER

@<TRIPOS>ATOM
      1 N         -28.0544   -1.0498   28.7246 N.ar    1  UNL1       -0.2438
      2 C         -26.9659   -0.4722   28.7709 C.ar    1  UNL1        0.0813
      3 C         -25.8527   -0.9249   29.3786 C.ar    1  UNL1        0.0177
      4 C         -24.5535   -0.2590   29.4587 C.ar    1  UNL1        0.0015
      5 C         -23.4236   -0.7168   30.1423 C.ar    1  UNL1        0.0000
      6 C         -23.5627   -1.9815   30.6642 C.ar    1  UNL1        0.0000
      7 C         -24.7161   -2.6923   30.5308 C.ar    1  UNL1        0.0000
      8 C         -25.7787   -2.2390   29.9110 C.ar    1  UNL1        0.0015
      9 C         -26.8745    0.8470   27.9932 C.ar    1  UNL1        0.0191
     10 C         -28.0001    1.2902   27.2931 C.ar    1  UNL1        0.0031
     11 C         -29.2169   -0.4985   28.2601 C.ar    1  UNL1        0.0988
     12 C         -29.1628    0.6428   27.5278 C.ar    1  UNL1        0.0207
@<TRIPOS>BOND
     1     2     3    1
     2     1     2   ar
     3     2     9   ar
     4     9    10   ar
     5    10    12   ar
     6    12    11   ar
     7    11     1   ar
     8     3     4   ar
     9     4     5   ar
    10     5     6   ar
    11     6     7   ar
    12     7     8   ar
    13     8     3   ar
