@<TRIPOS>MOLECULE
outputs/IAG933/test6/raw/output_3598_IAG933_linker_design_.xyz
 38 41 0 0 0
SMALL
GASTEIGER

@<TRIPOS>ATOM
      1 C         -24.8550   -1.0120   30.1430 C.3     1  UNL1        0.1353
      2 C         -24.9730   -2.5050   29.7880 C.2     1  UNL1       -0.0011
      3 C         -23.9060   -3.1730   29.1460 C.2     1  UNL1       -0.0026
      4 C         -23.9890   -4.5490   28.8530 C.2     1  UNL1       -0.0003
      5 C         -25.1370   -5.2800   29.2050 C.2     1  UNL1       -0.0000
      6 C         -26.2320   -4.6110   29.7840 C.2     1  UNL1       -0.0003
      7 C         -26.1550   -3.2320   30.0650 C.2     1  UNL1       -0.0026
      8 C         -25.3870   -0.6790   31.5710 C.3     1  UNL1        0.0969
      9 C         -25.1890    0.7730   32.0280 C.3     1  UNL1        0.0210
     10 C         -25.3360    0.6840   33.5440 C.3     1  UNL1        0.0203
     11 C         -24.8290   -0.7150   33.9050 C.3     1  UNL1        0.0888
     12 N         -24.7580   -1.4810   32.6460 N.3     1  UNL1       -0.2174
     13 C         -25.6880    1.6140   26.4610 C.2     1  UNL1        0.0578
     14 C         -26.2500    2.9200   26.3950 C.2     1  UNL1        0.0779
     15 C         -25.6420    4.0930   27.1230 C.2     1  UNL1        0.2665
     16 N         -25.6140    5.2520   26.4490 N.am    1  UNL1       -0.1997
     17 C         -25.0260    6.4790   26.9630 C.3     1  UNL1        0.1388
     18 O         -25.1430    3.9660   28.2430 O.2     1  UNL1       -0.2683
     19 C         -27.4380    3.0910   25.6450 C.2     1  UNL1        0.1068
     20 N         -28.0750    2.0890   25.0030 N.2     1  UNL1       -0.2081
     21 C         -27.5430    0.8490   25.0790 C.2     1  UNL1        0.2533
     22 O         -28.1930   -0.2080   24.4770 O.2     1  UNL1       -0.4558
     23 C         -29.4600    0.0050   23.8660 C.3     1  UNL1        0.2426
     24 C         -30.0650   -1.3770   23.5730 C.3     1  UNL1        0.2292
     25 O         -30.7290   -1.8780   24.7210 O.3     1  UNL1       -0.2162
     26 C         -26.3540    0.5760   25.7770 C.2     1  UNL1        0.1944
     27 F         -25.8600   -0.6810   25.7950 F       1  UNL1       -0.1992
     28 C         -23.3078    1.9341   26.7747 C.2     1  UNL1        0.1879
     29 N         -24.1390   -0.1524   29.2204 N.am    1  UNL1       -0.1806
     30 F         -20.9389    1.2653   27.9271 F       1  UNL1       -0.1992
     31 N         -24.7959    0.3986   28.2225 N.pl3   1  UNL1       -0.1409
     32 C         -22.7591    0.1458   29.3683 C.2     1  UNL1        0.2940
     33 N         -22.0101    2.4783   24.9466 N.3     1  UNL1        0.1108
     34 C         -24.5803    1.3027   27.2271 C.2     1  UNL1        0.1264
     35 O         -23.2786    2.7428   25.7271 O.2     1  UNL1       -0.3640
     36 O         -22.1281   -0.2352   30.3056 O.2     1  UNL1       -0.2658
     37 C         -22.1134    1.6732   27.3317 C.2     1  UNL1        0.0753
     38 C         -22.0067    0.8753   28.3710 C.2     1  UNL1        0.1980
@<TRIPOS>BOND
     1     1     2    1
     2     2     7    1
     3     3     2    2
     4     4     3    1
     5     4     5    2
     6     5     6    1
     7     6     7    2
     8     8     1    1
     9     8     9    1
    10     8    12    1
    11     9    10    1
    12    10    11    1
    13    12    11    1
    14    13    34    1
    15    14    13    1
    16    14    15    1
    17    15    18    2
    18    16    17    1
    19    16    15    1
    20    19    14    2
    21    20    21    2
    22    20    19    1
    23    21    26    1
    24    22    21    1
    25    23    22    1
    26    24    23    1
    27    24    25    1
    28    26    27    1
    29    26    13    2
    30    28    34    2
    31    28    37    1
    32    29    32   am
    33    29     1    1
    34    30    38    1
    35    31    29    1
    36    32    36    2
    37    33    35    1
    38    34    31    1
    39    35    28    1
    40    37    38    2
    41    38    32    1
