@<TRIPOS>MOLECULE
No_36-gen_results/8p0m/2024-11-27-11-27-31/
 20 20 0 0 0
SMALL
GASTEIGER

@<TRIPOS>ATOM
      1 C         -28.0162   -0.8135   28.8779 C.ar    1  UNL1        0.0104
      2 C         -28.4690   -0.7850   29.8287 C.ar    1  UNL1        0.0797
      3 C         -27.0871    0.2903   28.6377 C.ar    1  UNL1        0.0716
      4 C         -26.2516    0.4114   27.4223 C.3     1  UNL1        0.4186
      5 C         -28.3913    0.1041   30.9805 C.ar    1  UNL1        0.0066
      6 C         -27.5332    1.1666   30.7866 C.ar    1  UNL1        0.0002
      7 C         -26.8281    1.2557   29.6454 C.ar    1  UNL1        0.0039
      8 F         -26.1100    1.6187   27.1366 F       1  UNL1       -0.1659
      9 F         -25.0623   -0.1789   27.5940 F       1  UNL1       -0.1659
     10 F         -26.8783   -0.1658   26.3381 F       1  UNL1       -0.1659
     11 C         -29.4572   -2.0264   30.2151 C.2     1  UNL1        0.3877
     12 O         -29.0071   -3.1800   30.4080 O.co2   1  UNL1       -0.2406
     13 O         -30.6643   -1.8420   30.3564 O.co2   1  UNL1       -0.2406
     14 C         -27.3236    2.1872   31.8396 C.2     1  UNL1       -0.0000
     15 C         -26.5117    3.0237   31.7578 C.2     1  UNL1       -0.0000
     16 C         -26.0883    3.9841   32.1526 C.2     1  UNL1       -0.0000
     17 C         -24.8809    4.8497   31.9076 C.2     1  UNL1       -0.0003
     18 C         -24.6220    6.0951   32.5006 C.2     1  UNL1       -0.0046
     19 C         -25.4867    6.6169   33.4342 C.2     1  UNL1       -0.0258
     20 C         -26.5889    5.8962   33.7746 C.3     1  UNL1        0.0307
@<TRIPOS>BOND
     1     3     4    1
     2     4     8    1
     3     4     9    1
     4     4    10    1
     5     2    11    1
     6    11    12   ar
     7    11    13   ar
     8     6    14    1
     9    14    15    2
    10    15    16    1
    11    16    17    2
    12    17    18    1
    13    18    19    2
    14    19    20    1
    15     1     2   ar
    16     2     5   ar
    17     5     6   ar
    18     6     7   ar
    19     7     3   ar
    20     3     1   ar
