@<TRIPOS>MOLECULE
No_3602-gen_results/8p0m/2024-11-27-11-27-31/
 24 25 0 0 0
SMALL
GASTEIGER

@<TRIPOS>ATOM
      1 C         -28.0162   -0.8135   28.8779 C.3     1  UNL1        0.1133
      2 C         -27.0636   -0.1189   28.6079 C.ar    1  UNL1       -0.0066
      3 C         -26.9716    0.7139   27.5060 C.ar    1  UNL1        0.0765
      4 C         -25.8205    1.4909   27.1160 C.ar    1  UNL1        0.0128
      5 C         -24.6562    1.4242   27.9180 C.ar    1  UNL1        0.0800
      6 C         -24.6847    0.5901   29.0659 C.ar    1  UNL1        0.0063
      7 C         -25.8099   -0.1265   29.3338 C.ar    1  UNL1       -0.0034
      8 C         -28.6943   -0.4734   30.1587 C.2     1  UNL1        0.2462
      9 N         -28.6464    0.5791   30.6346 N.am    1  UNL1       -0.1969
     10 O         -29.4492   -1.4807   30.6875 O.2     1  UNL1       -0.2730
     11 C         -29.3723    0.9449   31.8942 C.3     1  UNL1        0.1803
     12 C         -23.4607    2.1938   27.6354 C.2     1  UNL1        0.3878
     13 O         -22.5963    2.2673   28.5295 O.co2   1  UNL1       -0.2406
     14 O         -23.1269    2.4751   26.3841 O.co2   1  UNL1       -0.2406
     15 C         -28.1081    0.8395   26.5821 C.2     1  UNL1        0.3875
     16 O         -29.1406    1.3510   26.8636 O.co2   1  UNL1       -0.2406
     17 O         -27.9767    0.3326   25.3830 O.co2   1  UNL1       -0.2406
     18 C         -29.3402    2.1759   32.0856 C.ar    1  UNL1        0.1619
     19 N         -29.8306    2.7730   33.1438 N.ar    1  UNL1       -0.2273
     20 N         -28.7456    3.0753   31.2029 N.ar    1  UNL1       -0.2175
     21 C         -28.6810    4.4899   31.4132 C.ar    1  UNL1        0.1413
     22 C         -29.8684    4.1215   33.4412 C.ar    1  UNL1        0.1028
     23 C         -29.2546    4.9792   32.5289 C.ar    1  UNL1        0.0515
     24 CL        -27.7106    5.2581   30.3216 Cl      1  UNL1       -0.0612
@<TRIPOS>BOND
     1     1     8    1
     2     8     9   am
     3     8    10    2
     4     9    11    1
     5     5    12    1
     6    12    13   ar
     7    12    14   ar
     8     3    15    1
     9    15    16   ar
    10    15    17   ar
    11    21    24    1
    12    11    18    1
    13     1     2    1
    14     2     3   ar
    15     3     4   ar
    16     4     5   ar
    17     5     6   ar
    18     6     7   ar
    19     7     2   ar
    20    18    19   ar
    21    19    22   ar
    22    22    23   ar
    23    23    21   ar
    24    21    20   ar
    25    20    18   ar
