@<TRIPOS>MOLECULE
outputs/IAG933/test6/raw/output_3603_IAG933_linker_design_.xyz
 40 44 0 0 0
SMALL
GASTEIGER

@<TRIPOS>ATOM
      1 C         -24.8550   -1.0120   30.1430 C.3     1  UNL1        0.0437
      2 C         -24.9730   -2.5050   29.7880 C.2     1  UNL1       -0.0208
      3 C         -23.9060   -3.1730   29.1460 C.2     1  UNL1       -0.0042
      4 C         -23.9890   -4.5490   28.8530 C.2     1  UNL1       -0.0003
      5 C         -25.1370   -5.2800   29.2050 C.2     1  UNL1       -0.0000
      6 C         -26.2320   -4.6110   29.7840 C.2     1  UNL1       -0.0003
      7 C         -26.1550   -3.2320   30.0650 C.2     1  UNL1       -0.0042
      8 C         -25.3870   -0.6790   31.5710 C.3     1  UNL1        0.0774
      9 C         -25.1890    0.7730   32.0280 C.3     1  UNL1        0.0222
     10 C         -25.3360    0.6840   33.5440 C.3     1  UNL1        0.0205
     11 C         -24.8290   -0.7150   33.9050 C.3     1  UNL1        0.0887
     12 N         -24.7580   -1.4810   32.6460 N.3     1  UNL1       -0.2191
     13 C         -25.6880    1.6140   26.4610 C.2     1  UNL1        0.0335
     14 C         -26.2500    2.9200   26.3950 C.2     1  UNL1        0.0762
     15 C         -25.6420    4.0930   27.1230 C.2     1  UNL1        0.2664
     16 N         -25.6140    5.2520   26.4490 N.am    1  UNL1       -0.1997
     17 C         -25.0260    6.4790   26.9630 C.3     1  UNL1        0.1388
     18 O         -25.1430    3.9660   28.2430 O.2     1  UNL1       -0.2683
     19 C         -27.4380    3.0910   25.6450 C.2     1  UNL1        0.1067
     20 N         -28.0750    2.0890   25.0030 N.2     1  UNL1       -0.2081
     21 C         -27.5430    0.8490   25.0790 C.2     1  UNL1        0.2533
     22 O         -28.1930   -0.2080   24.4770 O.2     1  UNL1       -0.4558
     23 C         -29.4600    0.0050   23.8660 C.3     1  UNL1        0.2426
     24 C         -30.0650   -1.3770   23.5730 C.3     1  UNL1        0.2292
     25 O         -30.7290   -1.8780   24.7210 O.3     1  UNL1       -0.2162
     26 C         -26.3540    0.5760   25.7770 C.2     1  UNL1        0.1927
     27 F         -25.8600   -0.6810   25.7950 F       1  UNL1       -0.1993
     28 C         -25.3637    3.2825   31.8839 C.2     1  UNL1       -0.0221
     29 C         -24.8770    1.8374   29.6102 C.3     1  UNL1        0.0261
     30 C         -24.6230    2.0429   31.2862 C.3     1  UNL1        0.0277
     31 C         -22.6279    1.4259   28.4605 C.3     1  UNL1        0.0221
     32 C         -24.8642    4.5112   31.4245 C.2     1  UNL1       -0.0043
     33 C         -23.9550    1.5576   28.2599 C.2     1  UNL1       -0.0478
     34 C         -23.1363    1.6681   25.9886 C.3     1  UNL1        0.0261
     35 C         -24.3652    1.5292   26.9668 C.2     1  UNL1       -0.0275
     36 C         -25.9778    5.6982   33.2231 C.2     1  UNL1       -0.0000
     37 C         -26.5541    4.5005   33.6762 C.2     1  UNL1       -0.0003
     38 C         -25.1542    5.7268   32.0829 C.2     1  UNL1       -0.0003
     39 C         -26.3251    3.2962   32.9538 C.2     1  UNL1       -0.0043
     40 C         -22.0277    1.5920   27.0023 C.3     1  UNL1        0.0090
@<TRIPOS>BOND
     1     2     7    1
     2     2     1    1
     3     3     2    2
     4     4     3    1
     5     4     5    2
     6     5     6    1
     7     6     7    2
     8     8     1    1
     9     8     9    1
    10     8    12    1
    11     9    30    1
    12     9    10    1
    13    10    11    1
    14    12    11    1
    15    13    35    1
    16    14    13    1
    17    14    15    1
    18    15    18    2
    19    16    17    1
    20    16    15    1
    21    19    14    2
    22    20    21    2
    23    20    19    1
    24    21    26    1
    25    22    21    1
    26    23    22    1
    27    24    23    1
    28    24    25    1
    29    26    27    1
    30    26    13    2
    31    28    39    1
    32    30    29    1
    33    30    28    1
    34    32    28    2
    35    32    38    1
    36    33    31    1
    37    33    29    1
    38    34    35    1
    39    34    40    1
    40    35    33    2
    41    36    37    1
    42    38    36    2
    43    39    37    2
    44    40    31    1
