@<TRIPOS>MOLECULE
outputs/IAG933/test6/raw/output_3604_IAG933_linker_design_.xyz
 48 54 0 0 0
SMALL
GASTEIGER

@<TRIPOS>ATOM
      1 C         -24.8550   -1.0120   30.1430 C.3     1  UNL1        0.0867
      2 C         -24.9730   -2.5050   29.7880 C.2     1  UNL1       -0.0170
      3 C         -23.9060   -3.1730   29.1460 C.2     1  UNL1       -0.0041
      4 C         -23.9890   -4.5490   28.8530 C.2     1  UNL1       -0.0003
      5 C         -25.1370   -5.2800   29.2050 C.2     1  UNL1       -0.0000
      6 C         -26.2320   -4.6110   29.7840 C.2     1  UNL1       -0.0003
      7 C         -26.1550   -3.2320   30.0650 C.2     1  UNL1       -0.0041
      8 C         -25.3870   -0.6790   31.5710 C.3     1  UNL1        0.0809
      9 C         -25.1890    0.7730   32.0280 C.3     1  UNL1        0.0193
     10 C         -25.3360    0.6840   33.5440 C.3     1  UNL1        0.0202
     11 C         -24.8290   -0.7150   33.9050 C.3     1  UNL1        0.0887
     12 N         -24.7580   -1.4810   32.6460 N.3     1  UNL1       -0.2190
     13 C         -25.6880    1.6140   26.4610 C.2     1  UNL1        0.0539
     14 C         -26.2500    2.9200   26.3950 C.2     1  UNL1        0.0778
     15 C         -25.6420    4.0930   27.1230 C.2     1  UNL1        0.2665
     16 N         -25.6140    5.2520   26.4490 N.am    1  UNL1       -0.1997
     17 C         -25.0260    6.4790   26.9630 C.3     1  UNL1        0.1388
     18 O         -25.1430    3.9660   28.2430 O.2     1  UNL1       -0.2683
     19 C         -27.4380    3.0910   25.6450 C.2     1  UNL1        0.1068
     20 N         -28.0750    2.0890   25.0030 N.2     1  UNL1       -0.2081
     21 C         -27.5430    0.8490   25.0790 C.2     1  UNL1        0.2534
     22 O         -28.1930   -0.2080   24.4770 O.2     1  UNL1       -0.4546
     23 C         -29.4600    0.0050   23.8660 C.3     1  UNL1        0.2544
     24 C         -30.0650   -1.3770   23.5730 C.3     1  UNL1        0.2574
     25 O         -30.7290   -1.8780   24.7210 O.2     1  UNL1       -0.4300
     26 C         -26.3540    0.5760   25.7770 C.2     1  UNL1        0.1943
     27 F         -25.8600   -0.6810   25.7950 F       1  UNL1       -0.1992
     28 O         -31.1521   -0.1482   26.0287 O.2     1  UNL1       -0.4342
     29 C         -21.8858    1.1835   28.4303 C.2     1  UNL1        0.1050
     30 N         -33.8550    1.4210   25.9528 N.3     1  UNL1       -0.1020
     31 C         -25.3296   -0.1269   28.8854 C.3     1  UNL1        0.2158
     32 C         -31.6452   -1.2842   25.4810 C.2     1  UNL1        0.3897
     33 N         -33.0111   -1.1666   25.3776 N.2     1  UNL1       -0.1825
     34 C         -32.1147    0.2091   26.8859 C.3     1  UNL1        0.2118
     35 O         -26.5309    0.5631   29.1868 O.3     1  UNL1       -0.3274
     36 CL        -22.9264    2.4923   24.8429 Cl      1  UNL1       -0.0809
     37 C         -33.4318   -0.0665   26.3691 C.3     1  UNL1        0.2393
     38 N         -24.2968    0.8750   28.3513 N.pl3   1  UNL1       -0.1938
     39 C         -28.5827   -0.9728   29.2674 C.3     1  UNL1        0.0418
     40 C         -31.8584    0.7485   28.3446 C.3     1  UNL1        0.0582
     41 C         -30.3300    0.4919   28.5770 C.3     1  UNL1        0.0537
     42 N         -23.0928    0.9012   28.9983 N.pl3   1  UNL1       -0.1435
     43 C         -21.9230    1.6171   27.0826 C.2     1  UNL1        0.0321
     44 C         -29.9326   -0.6625   29.3737 C.3     1  UNL1        0.0144
     45 S         -28.9315    1.3020   28.1905 S.3     1  UNL1       -0.1126
     46 C         -27.8330    0.0466   28.6227 C.3     1  UNL1        0.1644
     47 C         -24.3451    1.4380   26.9954 C.2     1  UNL1        0.0824
     48 C         -23.1202    1.7588   26.3932 C.2     1  UNL1        0.0740
@<TRIPOS>BOND
     1     1     2    1
     2     2     7    1
     3     3     2    2
     4     4     3    1
     5     4     5    2
     6     5     6    1
     7     6     7    2
     8     8     1    1
     9     8     9    1
    10     8    12    1
    11     9    10    1
    12    10    11    1
    13    12    11    1
    14    13    47    1
    15    14    13    1
    16    14    15    1
    17    15    18    2
    18    16    17    1
    19    16    15    1
    20    19    14    2
    21    20    21    2
    22    20    19    1
    23    21    26    1
    24    22    21    1
    25    23    22    1
    26    24    23    1
    27    24    25    1
    28    25    32    1
    29    26    27    1
    30    26    13    2
    31    28    34    1
    32    29    42    1
    33    31    35    1
    34    31     1    1
    35    32    28    1
    36    33    32    2
    37    33    37    1
    38    34    40    1
    39    36    48    1
    40    37    30    1
    41    37    34    1
    42    38    31    1
    43    38    42    1
    44    39    44    1
    45    41    40    1
    46    41    44    1
    47    43    29    2
    48    45    41    1
    49    45    46    1
    50    46    35    1
    51    46    39    1
    52    47    38    1
    53    48    47    2
    54    48    43    1
