@<TRIPOS>MOLECULE
outputs/IAG933/test6/raw/output_3607_IAG933_linker_design_.xyz
 45 49 0 0 0
SMALL
GASTEIGER

@<TRIPOS>ATOM
      1 C         -24.8550   -1.0120   30.1430 C.3     1  UNL1        0.1982
      2 C         -24.9730   -2.5050   29.7880 C.2     1  UNL1        0.0213
      3 C         -23.9060   -3.1730   29.1460 C.2     1  UNL1       -0.0004
      4 C         -23.9890   -4.5490   28.8530 C.2     1  UNL1       -0.0002
      5 C         -25.1370   -5.2800   29.2050 C.2     1  UNL1       -0.0000
      6 C         -26.2320   -4.6110   29.7840 C.2     1  UNL1       -0.0002
      7 C         -26.1550   -3.2320   30.0650 C.2     1  UNL1       -0.0004
      8 C         -25.3870   -0.6790   31.5710 C.3     1  UNL1        0.1197
      9 C         -25.1890    0.7730   32.0280 C.3     1  UNL1        0.0233
     10 C         -25.3360    0.6840   33.5440 C.3     1  UNL1        0.0204
     11 C         -24.8290   -0.7150   33.9050 C.3     1  UNL1        0.0889
     12 N         -24.7580   -1.4810   32.6460 N.3     1  UNL1       -0.2150
     13 C         -25.6880    1.6140   26.4610 C.2     1  UNL1        0.0628
     14 C         -26.2500    2.9200   26.3950 C.2     1  UNL1        0.0765
     15 C         -25.6420    4.0930   27.1230 C.2     1  UNL1        0.2662
     16 N         -25.6140    5.2520   26.4490 N.am    1  UNL1       -0.1997
     17 C         -25.0260    6.4790   26.9630 C.3     1  UNL1        0.1388
     18 O         -25.1430    3.9660   28.2430 O.2     1  UNL1       -0.2683
     19 C         -27.4380    3.0910   25.6450 C.2     1  UNL1        0.1065
     20 N         -28.0750    2.0890   25.0030 N.2     1  UNL1       -0.2081
     21 C         -27.5430    0.8490   25.0790 C.2     1  UNL1        0.2531
     22 O         -28.1930   -0.2080   24.4770 O.2     1  UNL1       -0.4558
     23 C         -29.4600    0.0050   23.8660 C.3     1  UNL1        0.2426
     24 C         -30.0650   -1.3770   23.5730 C.3     1  UNL1        0.2292
     25 O         -30.7290   -1.8780   24.7210 O.3     1  UNL1       -0.2162
     26 C         -26.3540    0.5760   25.7770 C.2     1  UNL1        0.1930
     27 F         -25.8600   -0.6810   25.7950 F       1  UNL1       -0.1994
     28 C         -25.8987    1.0407   29.4005 C.3     1  UNL1        0.2047
     29 CL        -22.4949    2.2883   25.5238 Cl      1  UNL1       -0.0394
     30 C         -22.3053    0.2244   28.9722 C.2     1  UNL1        0.0878
     31 C         -30.1069    2.9323   28.7864 C.3     1  UNL1        0.1422
     32 C         -29.1525    3.4613   30.9022 C.3     1  UNL1        0.1422
     33 C         -22.4557    1.5002   27.0804 C.2     1  UNL1        0.1983
     34 C         -28.3159    1.5729   29.6939 C.3     1  UNL1        0.0115
     35 N         -23.6252    1.2068   27.6960 N.pl3   1  UNL1       -0.1611
     36 C         -27.4863   -0.3279   28.4042 C.3     1  UNL1        0.1862
     37 O         -30.2624    3.0440   30.1857 O.3     1  UNL1       -0.3538
     38 C         -21.5940    0.9109   27.9425 C.2     1  UNL1        0.0599
     39 C         -23.6899    0.6105   28.7379 C.2     1  UNL1        0.2766
     40 C         -24.6196    1.2251   27.3882 C.3     1  UNL1        0.2375
     41 O         -28.6784   -0.6029   27.7955 O.3     1  UNL1       -0.2203
     42 C         -29.4324    1.6237   28.6115 C.3     1  UNL1        0.0324
     43 C         -27.1810    0.8324   29.1846 C.3     1  UNL1        0.0799
     44 C         -27.9054    2.8697   30.3551 C.3     1  UNL1        0.0324
     45 N         -24.9034    0.1124   29.2925 N.pl3   1  UNL1       -0.1934
@<TRIPOS>BOND
     1     1    45    1
     2     2     7    1
     3     2     1    1
     4     3     2    2
     5     4     3    1
     6     4     5    2
     7     5     6    1
     8     6     7    2
     9     8     1    1
    10     8     9    1
    11     8    12    1
    12     9    10    1
    13    10    11    1
    14    12    11    1
    15    13    40    1
    16    14    13    1
    17    14    15    1
    18    15    18    2
    19    16    17    1
    20    16    15    1
    21    19    14    2
    22    20    21    2
    23    20    19    1
    24    21    26    1
    25    22    21    1
    26    23    22    1
    27    24    23    1
    28    24    25    1
    29    26    27    1
    30    26    13    2
    31    29    33    1
    32    31    37    1
    33    33    35    1
    34    33    38    2
    35    34    44    1
    36    35    39    1
    37    37    32    1
    38    38    30    1
    39    39    30    2
    40    39    45    1
    41    40    35    1
    42    41    36    1
    43    42    31    1
    44    42    34    1
    45    43    36    1
    46    43    28    1
    47    43    34    1
    48    44    32    1
    49    45    28    1
