@<TRIPOS>MOLECULE
No_3609-gen_results/8p0m/2024-11-27-11-27-31/
 20 21 0 0 0
SMALL
GASTEIGER

@<TRIPOS>ATOM
      1 C         -28.0162   -0.8135   28.8779 C.ar    1  UNL1        0.0046
      2 C         -28.4690   -0.7850   29.8287 C.ar    1  UNL1        0.0001
      3 C         -28.1960    0.3478   28.0550 C.ar    1  UNL1        0.0554
      4 C         -29.0191    1.3501   28.3782 C.ar    1  UNL1        0.0046
      5 C         -29.4107    0.1803   30.3782 C.ar    1  UNL1        0.0000
      6 C         -29.6059    1.2495   29.6193 C.ar    1  UNL1        0.0001
      7 C         -27.4597    0.3802   26.7091 C.2     1  UNL1        0.2690
      8 N         -26.1039    0.2914   26.7009 N.am    1  UNL1       -0.1754
      9 C         -25.2777    1.1601   27.3159 C.ar    1  UNL1        0.0746
     10 C         -23.9021    0.7964   27.5503 C.ar    1  UNL1        0.0269
     11 C         -22.9073    1.7492   27.5346 C.ar    1  UNL1        0.0699
     12 C         -25.6190    2.4963   27.5279 C.ar    1  UNL1        0.0232
     13 C         -24.6328    3.4939   27.7895 C.ar    1  UNL1        0.0817
     14 C         -21.5269    1.4137   27.8065 C.1     1  UNL1        0.1005
     15 C         -23.2946    3.1726   27.7475 C.ar    1  UNL1        0.0169
     16 O         -28.0750    0.5537   25.6923 O.2     1  UNL1       -0.2680
     17 C         -25.0086    4.9156   27.8917 C.2     1  UNL1        0.3878
     18 O         -25.0078    5.6712   26.9379 O.co2   1  UNL1       -0.2406
     19 O         -25.3891    5.3653   29.0663 O.co2   1  UNL1       -0.2406
     20 N         -20.6435    0.8804   28.5506 N.1     1  UNL1       -0.1908
@<TRIPOS>BOND
     1     3     7    1
     2     7     8   am
     3     8     9    1
     4    11    14    1
     5     7    16    2
     6    13    17    1
     7    17    18   ar
     8    17    19   ar
     9    14    20    3
    10     1     2   ar
    11     2     5   ar
    12     5     6   ar
    13     6     4   ar
    14     4     3   ar
    15     3     1   ar
    16     9    10   ar
    17    10    11   ar
    18    11    15   ar
    19    15    13   ar
    20    13    12   ar
    21    12     9   ar
