@<TRIPOS>MOLECULE
No_361-gen_results/8p0m/2024-11-27-11-27-31/
 31 35 0 0 0
SMALL
GASTEIGER

@<TRIPOS>ATOM
      1 C         -28.0162   -0.8135   28.8779 C.ar    1  UNL1        0.0027
      2 C         -28.4690   -0.7850   29.8287 C.ar    1  UNL1       -0.0042
      3 C         -28.1816    0.4277   28.1134 C.ar    1  UNL1        0.0345
      4 C         -28.9841    1.4155   28.5154 C.ar    1  UNL1        0.0027
      5 C         -29.3802    0.1384   30.4612 C.ar    1  UNL1       -0.0218
      6 C         -29.9932   -0.0234   31.7370 C.3     1  UNL1        0.0310
      7 C         -29.5370    1.2619   29.7119 C.ar    1  UNL1       -0.0042
      8 C         -27.4269    0.4618   26.7350 C.ar    1  UNL1        0.1477
      9 N         -27.8945    0.6965   25.7576 N.ar    1  UNL1       -0.2248
     10 N         -26.0506    0.2079   26.7626 N.ar    1  UNL1       -0.2888
     11 C         -25.1632    0.0191   27.7833 C.ar    1  UNL1        0.0668
     12 C         -24.7465    1.1769   28.4866 C.ar    1  UNL1        0.0338
     13 C         -23.8013    1.0001   29.5326 C.ar    1  UNL1        0.0029
     14 C         -23.3549   -0.2341   29.9231 C.ar    1  UNL1        0.0001
     15 C         -24.6279   -1.2180   28.1523 C.ar    1  UNL1        0.0176
     16 C         -23.6993   -1.3326   29.2225 C.ar    1  UNL1        0.0015
     17 C         -25.6250    0.3714   25.4394 C.ar    1  UNL1        0.1022
     18 C         -26.8498    0.6303   24.7834 C.ar    1  UNL1        0.1195
     19 C         -25.2378    2.5543   28.2590 C.ar    1  UNL1        0.0841
     20 N         -26.0000    3.2236   29.1231 N.ar    1  UNL1       -0.2303
     21 C         -25.0698    3.1543   26.9432 C.ar    1  UNL1        0.0193
     22 C         -26.4447    4.4518   28.8616 C.ar    1  UNL1        0.1356
     23 C         -25.4292    4.4872   26.7076 C.ar    1  UNL1        0.0044
     24 N         -27.2080    5.1677   29.8170 N.pl3   1  UNL1       -0.2690
     25 C         -26.1823    5.1305   27.6828 C.ar    1  UNL1        0.0347
     26 C         -27.1509    4.8010   31.1057 C.2     1  UNL1        0.0621
     27 C         -28.0558    5.4687   32.0177 C.2     1  UNL1       -0.0079
     28 C         -27.9878    6.1965   29.4794 C.3     1  UNL1        0.1050
     29 C         -28.3168    6.5416   28.4456 C.2     1  UNL1       -0.0061
     30 C         -29.1960    7.6284   28.0407 C.2     1  UNL1       -0.0032
     31 C         -28.7882    6.5951   30.7297 C.3     1  UNL1        0.0520
@<TRIPOS>BOND
     1     5     6    1
     2     3     8    1
     3     8     9   ar
     4     8    10   ar
     5    10    11    1
     6    10    17   ar
     7     9    18   ar
     8    17    18   ar
     9    12    19    1
    10    22    24    1
    11    24    26    1
    12    26    27    2
    13    24    28    1
    14    28    29    1
    15    29    30    2
    16    27    31    1
    17    28    31    1
    18    19    20   ar
    19    20    22   ar
    20    22    25   ar
    21    25    23   ar
    22    23    21   ar
    23    21    19   ar
    24    11    12   ar
    25    12    13   ar
    26    13    14   ar
    27    14    16   ar
    28    16    15   ar
    29    15    11   ar
    30     1     2   ar
    31     2     5   ar
    32     5     7   ar
    33     7     4   ar
    34     4     3   ar
    35     3     1   ar
