@<TRIPOS>MOLECULE
outputs/IAG933/test6/raw/output_3611_IAG933_linker_design_.xyz
 42 45 0 0 0
SMALL
GASTEIGER

@<TRIPOS>ATOM
      1 C         -24.8550   -1.0120   30.1430 C.3     1  UNL1        0.1150
      2 C         -24.9730   -2.5050   29.7880 C.2     1  UNL1       -0.0029
      3 C         -23.9060   -3.1730   29.1460 C.2     1  UNL1       -0.0026
      4 C         -23.9890   -4.5490   28.8530 C.2     1  UNL1       -0.0003
      5 C         -25.1370   -5.2800   29.2050 C.2     1  UNL1       -0.0000
      6 C         -26.2320   -4.6110   29.7840 C.2     1  UNL1       -0.0003
      7 C         -26.1550   -3.2320   30.0650 C.2     1  UNL1       -0.0026
      8 C         -25.3870   -0.6790   31.5710 C.3     1  UNL1        0.0952
      9 C         -25.1890    0.7730   32.0280 C.3     1  UNL1        0.0209
     10 C         -25.3360    0.6840   33.5440 C.3     1  UNL1        0.0203
     11 C         -24.8290   -0.7150   33.9050 C.3     1  UNL1        0.0888
     12 N         -24.7580   -1.4810   32.6460 N.3     1  UNL1       -0.2174
     13 C         -25.6880    1.6140   26.4610 C.3     1  UNL1        0.1442
     14 C         -26.2500    2.9200   26.3950 C.2     1  UNL1        0.0710
     15 C         -25.6420    4.0930   27.1230 C.2     1  UNL1        0.2638
     16 N         -25.6140    5.2520   26.4490 N.am    1  UNL1       -0.2000
     17 C         -25.0260    6.4790   26.9630 C.3     1  UNL1        0.1388
     18 O         -25.1430    3.9660   28.2430 O.2     1  UNL1       -0.2686
     19 C         -27.4380    3.0910   25.6450 C.2     1  UNL1        0.1035
     20 N         -28.0750    2.0890   25.0030 N.2     1  UNL1       -0.2118
     21 C         -27.5430    0.8490   25.0790 C.2     1  UNL1        0.2356
     22 O         -28.1930   -0.2080   24.4770 O.2     1  UNL1       -0.4585
     23 C         -29.4600    0.0050   23.8660 C.3     1  UNL1        0.2423
     24 C         -30.0650   -1.3770   23.5730 C.3     1  UNL1        0.2292
     25 O         -30.7290   -1.8780   24.7210 O.3     1  UNL1       -0.2162
     26 C         -26.3540    0.5760   25.7770 C.3     1  UNL1        0.2560
     27 F         -25.8600   -0.6810   25.7950 F       1  UNL1       -0.2253
     28 C         -28.8917    1.2694   28.1413 C.3     1  UNL1        0.0412
     29 N         -25.0147    1.1264   27.3557 N.3     1  UNL1       -0.1929
     30 C         -27.0308   -0.0295   29.2603 C.2     1  UNL1        0.2265
     31 C         -29.7163   -0.8958   29.3261 C.3     1  UNL1        0.0412
     32 O         -30.9386   -0.0306   27.4331 O.3     1  UNL1       -0.3538
     33 C         -30.3803    1.2294   27.7786 C.3     1  UNL1        0.1427
     34 C         -30.9460   -1.0884   28.3951 C.3     1  UNL1        0.1427
     35 O         -23.0018    2.1231   26.5603 O.2     1  UNL1       -0.2715
     36 C         -24.5563    0.5786   28.3976 C.3     1  UNL1        0.1594
     37 C         -23.1982    0.5990   28.5187 C.3     1  UNL1        0.1265
     38 C         -28.5043   -0.1923   28.5633 C.3     1  UNL1        0.0817
     39 N         -25.5024   -0.1135   29.1913 N.am    1  UNL1       -0.2628
     40 O         -27.1195    1.1352   30.1330 O.2     1  UNL1       -0.2748
     41 C         -22.4987    1.4987   27.5070 C.2     1  UNL1        0.2639
     42 N         -21.1483    1.6890   27.6933 N.am    1  UNL1       -0.0877
@<TRIPOS>BOND
     1     1    39    1
     2     2     7    1
     3     2     1    1
     4     3     2    2
     5     4     3    1
     6     4     5    2
     7     5     6    1
     8     6     7    2
     9     8     1    1
    10     8     9    1
    11     8    12    1
    12     9    10    1
    13    10    11    1
    14    12    11    1
    15    13    29    1
    16    14    13    1
    17    14    15    1
    18    15    18    2
    19    16    17    1
    20    16    15    1
    21    19    14    2
    22    20    21    2
    23    20    19    1
    24    21    26    1
    25    22    21    1
    26    23    22    1
    27    24    23    1
    28    24    25    1
    29    26    27    1
    30    26    13    1
    31    28    38    1
    32    29    36    1
    33    30    40    2
    34    32    33    1
    35    32    34    1
    36    33    28    1
    37    34    31    1
    38    35    41    2
    39    36    37    1
    40    36    39    1
    41    38    30    1
    42    38    31    1
    43    39    30   am
    44    41    42    1
    45    41    37    1
