@<TRIPOS>MOLECULE
No_3613-gen_results/8p0m/2024-11-27-11-27-31/
 15 16 0 0 0
SMALL
GASTEIGER

@<TRIPOS>ATOM
      1 C         -28.0162   -0.8135   28.8779 C.ar    1  UNL1       -0.0000
      2 C         -28.4690   -0.7850   29.8287 C.ar    1  UNL1        0.0000
      3 C         -27.1356    0.2359   28.5352 C.ar    1  UNL1       -0.0000
      4 C         -26.8745    1.2825   29.3982 C.ar    1  UNL1       -0.0000
      5 C         -27.5070    1.2380   30.6295 C.ar    1  UNL1        0.0000
      6 C         -28.3293    0.1745   30.9350 C.ar    1  UNL1        0.0000
      7 C         -26.4077    0.3070   27.2259 C.ar    1  UNL1       -0.0000
      8 C         -26.8748    0.8389   26.2127 C.ar    1  UNL1       -0.0000
      9 C         -25.0813   -0.2883   27.1835 C.ar    1  UNL1       -0.0003
     10 C         -26.2896    0.6599   24.9125 C.ar    1  UNL1       -0.0000
     11 C         -24.5004   -0.8632   28.4680 C.2     1  UNL1       -0.0046
     12 C         -24.9118    0.1598   24.9219 C.ar    1  UNL1       -0.0000
     13 C         -24.3653   -0.2373   26.0404 C.ar    1  UNL1       -0.0000
     14 C         -24.7249   -2.0789   29.0078 C.2     1  UNL1       -0.0258
     15 C         -24.1604   -2.5444   30.1333 C.3     1  UNL1        0.0307
@<TRIPOS>BOND
     1     3     7    1
     2     9    11    1
     3    11    14    2
     4    14    15    1
     5     1     2   ar
     6     2     6   ar
     7     6     5   ar
     8     5     4   ar
     9     4     3   ar
    10     3     1   ar
    11     7     8   ar
    12     8    10   ar
    13    10    12   ar
    14    12    13   ar
    15    13     9   ar
    16     9     7   ar
