@<TRIPOS>MOLECULE
outputs/IAG933/test6/raw/output_3614_IAG933_linker_design_.xyz
 45 49 0 0 0
SMALL
GASTEIGER

@<TRIPOS>ATOM
      1 C         -24.8550   -1.0120   30.1430 C.3     1  UNL1        0.0607
      2 C         -24.9730   -2.5050   29.7880 C.2     1  UNL1       -0.0171
      3 C         -23.9060   -3.1730   29.1460 C.2     1  UNL1       -0.0039
      4 C         -23.9890   -4.5490   28.8530 C.2     1  UNL1       -0.0003
      5 C         -25.1370   -5.2800   29.2050 C.2     1  UNL1       -0.0000
      6 C         -26.2320   -4.6110   29.7840 C.2     1  UNL1       -0.0003
      7 C         -26.1550   -3.2320   30.0650 C.2     1  UNL1       -0.0039
      8 C         -25.3870   -0.6790   31.5710 C.3     1  UNL1        0.0808
      9 C         -25.1890    0.7730   32.0280 C.3     1  UNL1        0.0195
     10 C         -25.3360    0.6840   33.5440 C.3     1  UNL1        0.0203
     11 C         -24.8290   -0.7150   33.9050 C.3     1  UNL1        0.0887
     12 N         -24.7580   -1.4810   32.6460 N.3     1  UNL1       -0.2188
     13 C         -25.6880    1.6140   26.4610 C.3     1  UNL1        0.0925
     14 C         -26.2500    2.9200   26.3950 C.2     1  UNL1        0.0589
     15 C         -25.6420    4.0930   27.1230 C.2     1  UNL1        0.2628
     16 N         -25.6140    5.2520   26.4490 N.am    1  UNL1       -0.2000
     17 C         -25.0260    6.4790   26.9630 C.3     1  UNL1        0.1388
     18 O         -25.1430    3.9660   28.2430 O.2     1  UNL1       -0.2686
     19 C         -27.4380    3.0910   25.6450 C.2     1  UNL1        0.1025
     20 N         -28.0750    2.0890   25.0030 N.2     1  UNL1       -0.2118
     21 C         -27.5430    0.8490   25.0790 C.2     1  UNL1        0.2344
     22 O         -28.1930   -0.2080   24.4770 O.2     1  UNL1       -0.4585
     23 C         -29.4600    0.0050   23.8660 C.3     1  UNL1        0.2423
     24 C         -30.0650   -1.3770   23.5730 C.3     1  UNL1        0.2292
     25 O         -30.7290   -1.8780   24.7210 O.3     1  UNL1       -0.2162
     26 C         -26.3540    0.5760   25.7770 C.3     1  UNL1        0.2440
     27 F         -25.8600   -0.6810   25.7950 F       1  UNL1       -0.2265
     28 C         -28.2618    0.9611   30.8011 C.2     1  UNL1        0.1025
     29 N         -27.1368    0.4987   30.0148 N.2     1  UNL1       -0.2101
     30 C         -22.5025    1.0687   27.8314 C.2     1  UNL1        0.0571
     31 C         -25.4227    0.6064   28.4646 C.2     1  UNL1        0.0461
     32 C         -29.2690    0.5318   28.1570 C.3     1  UNL1        0.2413
     33 C         -29.6658    1.7393   28.9873 C.2     1  UNL1        0.0569
     34 O         -27.8112    0.2326   27.9158 O.2     1  UNL1       -0.4546
     35 C         -30.1654    2.7290   28.3776 C.1     1  UNL1       -0.1049
     36 C         -24.8712    1.2332   27.2599 C.2     1  UNL1       -0.0100
     37 C         -32.0093    4.3268   28.6637 C.3     1  UNL1        0.1435
     38 C         -26.7294    0.4939   28.7377 C.2     1  UNL1        0.2245
     39 N         -33.2547    4.4315   27.9558 N.3     1  UNL1       -0.1255
     40 C         -30.9005    3.8019   27.9073 C.2     1  UNL1        0.0355
     41 C         -23.5664    1.4994   26.9017 C.2     1  UNL1        0.0077
     42 C         -24.3299   -0.0006   29.1299 C.2     1  UNL1       -0.0120
     43 C         -29.4775    1.6301   30.3474 C.2     1  UNL1        0.0277
     44 CL        -21.0527    1.7794   27.4151 Cl      1  UNL1       -0.0823
     45 C         -22.8110    0.2340   28.9192 C.2     1  UNL1        0.0076
@<TRIPOS>BOND
     1     1    42    1
     2     2     7    1
     3     2     1    1
     4     3     2    2
     5     4     3    1
     6     4     5    2
     7     5     6    1
     8     6     7    2
     9     8     1    1
    10     8     9    1
    11     8    12    1
    12     9    10    1
    13    10    11    1
    14    12    11    1
    15    13    36    1
    16    14    13    1
    17    14    15    1
    18    15    18    2
    19    16    17    1
    20    16    15    1
    21    19    14    2
    22    20    21    2
    23    20    19    1
    24    21    26    1
    25    22    21    1
    26    23    22    1
    27    24    23    1
    28    24    25    1
    29    26    27    1
    30    26    13    1
    31    29    28    1
    32    30    45    1
    33    31    38    1
    34    31    42    1
    35    32    33    1
    36    33    43    1
    37    34    32    1
    38    34    38    1
    39    35    33    2
    40    36    31    2
    41    38    29    2
    42    39    37    1
    43    40    35    2
    44    40    37    1
    45    41    36    1
    46    41    30    2
    47    43    28    2
    48    44    30    1
    49    45    42    2
