@<TRIPOS>MOLECULE
outputs/IAG933/test6/raw/output_3616_IAG933_linker_design_.xyz
 44 48 0 0 0
SMALL
GASTEIGER

@<TRIPOS>ATOM
      1 C         -24.8550   -1.0120   30.1430 C.3     1  UNL1        0.0590
      2 C         -24.9730   -2.5050   29.7880 C.2     1  UNL1       -0.0195
      3 C         -23.9060   -3.1730   29.1460 C.2     1  UNL1       -0.0042
      4 C         -23.9890   -4.5490   28.8530 C.2     1  UNL1       -0.0003
      5 C         -25.1370   -5.2800   29.2050 C.2     1  UNL1       -0.0000
      6 C         -26.2320   -4.6110   29.7840 C.2     1  UNL1       -0.0003
      7 C         -26.1550   -3.2320   30.0650 C.2     1  UNL1       -0.0042
      8 C         -25.3870   -0.6790   31.5710 C.3     1  UNL1        0.0785
      9 C         -25.1890    0.7730   32.0280 C.3     1  UNL1        0.0192
     10 C         -25.3360    0.6840   33.5440 C.3     1  UNL1        0.0202
     11 C         -24.8290   -0.7150   33.9050 C.3     1  UNL1        0.0887
     12 N         -24.7580   -1.4810   32.6460 N.3     1  UNL1       -0.2191
     13 C         -25.6880    1.6140   26.4610 C.2     1  UNL1        0.0346
     14 C         -26.2500    2.9200   26.3950 C.2     1  UNL1        0.0762
     15 C         -25.6420    4.0930   27.1230 C.2     1  UNL1        0.2664
     16 N         -25.6140    5.2520   26.4490 N.am    1  UNL1       -0.1997
     17 C         -25.0260    6.4790   26.9630 C.3     1  UNL1        0.1388
     18 O         -25.1430    3.9660   28.2430 O.2     1  UNL1       -0.2683
     19 C         -27.4380    3.0910   25.6450 C.2     1  UNL1        0.1067
     20 N         -28.0750    2.0890   25.0030 N.2     1  UNL1       -0.2081
     21 C         -27.5430    0.8490   25.0790 C.2     1  UNL1        0.2533
     22 O         -28.1930   -0.2080   24.4770 O.2     1  UNL1       -0.4558
     23 C         -29.4600    0.0050   23.8660 C.3     1  UNL1        0.2426
     24 C         -30.0650   -1.3770   23.5730 C.3     1  UNL1        0.2292
     25 O         -30.7290   -1.8780   24.7210 O.3     1  UNL1       -0.2162
     26 C         -26.3540    0.5760   25.7770 C.2     1  UNL1        0.1928
     27 F         -25.8600   -0.6810   25.7950 F       1  UNL1       -0.1992
     28 C         -22.7655    0.6010   28.5314 C.2     1  UNL1        0.0994
     29 O         -28.0358   -0.0052   29.4232 O.2     1  UNL1       -0.2684
     30 C         -29.0605    3.7677   32.6248 C.2     1  UNL1        0.0000
     31 C         -28.0734    2.1550   30.5440 C.2     1  UNL1        0.0550
     32 N         -26.1529    1.1091   29.4655 N.am    1  UNL1       -0.2023
     33 C         -27.2190    3.1189   31.1374 C.2     1  UNL1        0.0046
     34 C         -29.9625    3.0247   31.8358 C.2     1  UNL1        0.0001
     35 C         -24.3751    1.4187   27.0956 C.2     1  UNL1       -0.0105
     36 C         -23.1873    1.9886   26.6873 C.2     1  UNL1        0.0269
     37 C         -22.2341    1.5167   27.5888 C.2     1  UNL1        0.1527
     38 C         -24.1038    0.6765   28.3073 C.3     1  UNL1        0.0843
     39 C         -27.7066    3.8613   32.2379 C.2     1  UNL1        0.0001
     40 C         -25.0728    0.2046   29.1934 C.3     1  UNL1        0.1104
     41 C         -29.4584    2.2474   30.7838 C.2     1  UNL1        0.0046
     42 N         -22.1439   -0.1595   29.5440 N.pl3   1  UNL1       -0.1300
     43 C         -27.4502    1.0269   29.7658 C.2     1  UNL1        0.2648
     44 F         -20.9854    1.9465   27.6084 F       1  UNL1       -0.2031
@<TRIPOS>BOND
     1     1    40    1
     2     2     7    1
     3     2     1    1
     4     3     2    2
     5     4     3    1
     6     4     5    2
     7     5     6    1
     8     6     7    2
     9     8     1    1
    10     8     9    1
    11     8    12    1
    12     9    10    1
    13    10    11    1
    14    12    11    1
    15    13    35    1
    16    14    13    1
    17    14    15    1
    18    15    18    2
    19    16    17    1
    20    16    15    1
    21    19    14    2
    22    20    21    2
    23    20    19    1
    24    21    26    1
    25    22    21    1
    26    23    22    1
    27    24    23    1
    28    24    25    1
    29    26    27    1
    30    26    13    2
    31    28    42    1
    32    29    43    2
    33    31    41    2
    34    31    33    1
    35    32    43    1
    36    33    39    2
    37    34    30    2
    38    35    38    1
    39    36    35    2
    40    36    37    1
    41    37    44    1
    42    37    28    2
    43    38    28    1
    44    38    40    1
    45    39    30    1
    46    40    32    1
    47    41    34    1
    48    43    31    1
