@<TRIPOS>MOLECULE
No_3619-gen_results/8p0m/2024-11-27-11-27-31/
 25 26 0 0 0
SMALL
GASTEIGER

@<TRIPOS>ATOM
      1 C         -28.0162   -0.8135   28.8779 C.ar    1  UNL1        0.0103
      2 C         -28.4690   -0.7850   29.8287 C.ar    1  UNL1        0.0756
      3 C         -27.0871    0.2903   28.6377 C.ar    1  UNL1        0.0716
      4 C         -26.2516    0.4114   27.4223 C.3     1  UNL1        0.4186
      5 C         -28.3913    0.1041   30.9805 C.ar    1  UNL1        0.0064
      6 C         -27.5332    1.1666   30.7866 C.ar    1  UNL1        0.0002
      7 C         -26.8281    1.2557   29.6454 C.ar    1  UNL1        0.0039
      8 F         -26.0545    1.5503   27.3138 F       1  UNL1       -0.1659
      9 F         -25.1471   -0.3298   27.5522 F       1  UNL1       -0.1659
     10 F         -26.9727   -0.0291   26.3313 F       1  UNL1       -0.1659
     11 C         -29.4550   -2.0094   30.2241 C.2     1  UNL1        0.3416
     12 O         -30.4880   -1.9688   29.8417 O.2     1  UNL1       -0.2449
     13 O         -28.9726   -3.0166   30.9466 O.3     1  UNL1       -0.4367
     14 C         -27.3203    2.1795   31.8572 C.ar    1  UNL1        0.0002
     15 C         -27.0857    1.9595   32.9399 C.ar    1  UNL1        0.0000
     16 C         -26.8379    2.9626   34.0220 C.ar    1  UNL1        0.0002
     17 C         -26.7303    4.2920   33.5875 C.ar    1  UNL1        0.0066
     18 C         -27.2240    3.5574   31.3510 C.ar    1  UNL1        0.0066
     19 C         -26.9069    4.5738   32.2379 C.ar    1  UNL1        0.0798
     20 C         -26.7729    5.9963   31.7785 C.2     1  UNL1        0.3878
     21 O         -26.6635    6.2830   30.8157 O.co2   1  UNL1       -0.2406
     22 O         -26.7296    6.9055   32.8549 O.co2   1  UNL1       -0.2406
     23 C         -29.3383   -4.3304   30.6258 C.3     1  UNL1        0.2801
     24 C         -29.6377   -4.6513   29.5357 C.2     1  UNL1        0.2551
     25 O         -30.6971   -5.5154   29.5528 O.2     1  UNL1       -0.2842
@<TRIPOS>BOND
     1     3     4    1
     2     4     8    1
     3     4     9    1
     4     4    10    1
     5     2    11    1
     6    11    12    2
     7    11    13    1
     8     6    14    1
     9    19    20    1
    10    20    21   ar
    11    20    22   ar
    12    13    23    1
    13    23    24    1
    14    24    25    2
    15    14    15   ar
    16    15    16   ar
    17    16    17   ar
    18    17    19   ar
    19    19    18   ar
    20    18    14   ar
    21     1     2   ar
    22     2     5   ar
    23     5     6   ar
    24     6     7   ar
    25     7     3   ar
    26     3     1   ar
