@<TRIPOS>MOLECULE
No_3621-gen_results/8p0m/2024-11-27-11-27-31/
 25 29 0 0 0
SMALL
GASTEIGER

@<TRIPOS>ATOM
      1 C         -28.0162   -0.8135   28.8779 C.ar    1  UNL1        0.0579
      2 C         -28.4690   -0.7850   29.8287 C.ar    1  UNL1        0.2791
      3 C         -28.1816    0.4277   28.1134 C.ar    1  UNL1        0.0061
      4 C         -27.4498    0.6435   26.8500 C.ar    1  UNL1        0.0002
      5 C         -26.1815    0.0357   26.7145 C.ar    1  UNL1        0.0000
      6 C         -25.7800   -0.9326   27.6938 C.ar    1  UNL1        0.0002
      7 C         -26.5568   -1.2134   28.7413 C.ar    1  UNL1        0.0048
      8 O         -28.4904   -1.9180   30.6356 O.2     1  UNL1       -0.2652
      9 N         -29.2465    0.1645   30.5279 N.ar    1  UNL1       -0.2079
     10 C         -29.3389    1.4427   30.1509 C.ar    1  UNL1        0.0845
     11 C         -28.9938    1.5691   28.6959 C.ar    1  UNL1        0.0179
     12 C         -29.1746    2.7617   27.9691 C.ar    1  UNL1        0.0015
     13 C         -30.6688    2.0297   30.3395 C.ar    1  UNL1        0.0178
     14 C         -31.1343    2.2427   31.2989 C.ar    1  UNL1        0.0015
     15 C         -32.4599    2.8160   31.5738 C.ar    1  UNL1        0.0000
     16 C         -33.0928    3.2556   30.4160 C.ar    1  UNL1        0.0000
     17 C         -32.5512    3.1055   29.2037 C.ar    1  UNL1        0.0000
     18 C         -31.2618    2.5182   29.0420 C.ar    1  UNL1        0.0015
     19 C         -30.5326    2.8475   27.8809 C.ar    1  UNL1        0.0001
     20 C         -31.1467    3.3397   26.7002 C.ar    1  UNL1        0.0000
     21 C         -31.8871    2.4759   25.9307 C.ar    1  UNL1        0.0000
     22 C         -32.6216    2.8703   24.9405 C.ar    1  UNL1        0.0000
     23 C         -30.9750    4.7006   26.3488 C.ar    1  UNL1        0.0000
     24 C         -31.6667    5.1396   25.1074 C.ar    1  UNL1        0.0000
     25 C         -32.3987    4.2480   24.4101 C.ar    1  UNL1        0.0000
@<TRIPOS>BOND
     1     1     2   ar
     2     2     8    2
     3     2     9   ar
     4     9    10   ar
     5     3    11   ar
     6    19    20    1
     7    20    21   ar
     8    21    22   ar
     9    22    25   ar
    10    25    24   ar
    11    24    23   ar
    12    23    20   ar
    13     1     7   ar
    14     7     6   ar
    15     6     5   ar
    16     5     4   ar
    17     4     3   ar
    18     3     1   ar
    19    13    14   ar
    20    14    15   ar
    21    15    16   ar
    22    16    17   ar
    23    17    18   ar
    24    10    13   ar
    25    13    18   ar
    26    18    19   ar
    27    19    12   ar
    28    12    11   ar
    29    11    10   ar
