@<TRIPOS>MOLECULE
No_3622-gen_results/8p0m/2024-11-27-11-27-31/
 17 18 0 0 0
SMALL
GASTEIGER

@<TRIPOS>ATOM
      1 C         -28.0162   -0.8135   28.8779 C.ar    1  UNL1        0.0006
      2 C         -28.4690   -0.7850   29.8287 C.ar    1  UNL1        0.0533
      3 C         -26.5042   -0.7777   28.8766 C.ar    1  UNL1       -0.0177
      4 C         -25.8103   -0.8531   30.1028 C.ar    1  UNL1       -0.0039
      5 C         -27.9906   -0.8916   31.2257 C.ar    1  UNL1        0.0045
      6 C         -26.6042   -0.8676   31.2652 C.ar    1  UNL1       -0.0002
      7 C         -30.0739   -0.8360   29.8615 C.2     1  UNL1        0.2490
      8 O         -30.6891   -1.6554   30.2229 O.2     1  UNL1       -0.2699
      9 N         -30.6139    0.2846   29.2227 N.am    1  UNL1       -0.2761
     10 C         -31.6416    0.5303   28.9297 C.3     1  UNL1        0.0937
     11 C         -32.2224    1.2456   28.3689 C.3     1  UNL1        0.0216
     12 C         -31.3466    2.3527   27.7989 C.3     1  UNL1        0.0035
     13 C         -29.9642    2.2285   27.9583 C.3     1  UNL1        0.0216
     14 C         -29.5352    1.2112   28.6729 C.3     1  UNL1        0.0937
     15 C         -25.6677   -0.6742   27.6545 C.3     1  UNL1        0.0523
     16 C         -24.3511   -0.2753   27.8100 C.2     1  UNL1       -0.0214
     17 C         -23.8253    0.4313   28.3511 C.2     1  UNL1       -0.0046
@<TRIPOS>BOND
     1     2     7    1
     2     7     8    2
     3     7     9   am
     4     9    10    1
     5    11    12    1
     6     9    14    1
     7    13    14    1
     8     3    15    1
     9    15    16    1
    10    16    17    2
    11    10    11    1
    12    12    13    1
    13     1     2   ar
    14     2     5   ar
    15     5     6   ar
    16     6     4   ar
    17     4     3   ar
    18     3     1   ar
