@<TRIPOS>MOLECULE
outputs/IAG933/test6/raw/output_3623_IAG933_linker_design_.xyz
 42 46 0 0 0
SMALL
GASTEIGER

@<TRIPOS>ATOM
      1 C         -24.8550   -1.0120   30.1430 C.3     1  UNL1        0.1507
      2 C         -24.9730   -2.5050   29.7880 C.2     1  UNL1        0.0018
      3 C         -23.9060   -3.1730   29.1460 C.2     1  UNL1       -0.0023
      4 C         -23.9890   -4.5490   28.8530 C.2     1  UNL1       -0.0003
      5 C         -25.1370   -5.2800   29.2050 C.2     1  UNL1       -0.0000
      6 C         -26.2320   -4.6110   29.7840 C.2     1  UNL1       -0.0003
      7 C         -26.1550   -3.2320   30.0650 C.2     1  UNL1       -0.0023
      8 C         -25.3870   -0.6790   31.5710 C.3     1  UNL1        0.0999
      9 C         -25.1890    0.7730   32.0280 C.3     1  UNL1        0.0212
     10 C         -25.3360    0.6840   33.5440 C.3     1  UNL1        0.0203
     11 C         -24.8290   -0.7150   33.9050 C.3     1  UNL1        0.0888
     12 N         -24.7580   -1.4810   32.6460 N.3     1  UNL1       -0.2171
     13 C         -25.6880    1.6140   26.4610 C.2     1  UNL1        0.0568
     14 C         -26.2500    2.9200   26.3950 C.2     1  UNL1        0.0780
     15 C         -25.6420    4.0930   27.1230 C.2     1  UNL1        0.2665
     16 N         -25.6140    5.2520   26.4490 N.am    1  UNL1       -0.1997
     17 C         -25.0260    6.4790   26.9630 C.3     1  UNL1        0.1388
     18 O         -25.1430    3.9660   28.2430 O.2     1  UNL1       -0.2683
     19 C         -27.4380    3.0910   25.6450 C.2     1  UNL1        0.1068
     20 N         -28.0750    2.0890   25.0030 N.2     1  UNL1       -0.2081
     21 C         -27.5430    0.8490   25.0790 C.2     1  UNL1        0.2533
     22 O         -28.1930   -0.2080   24.4770 O.2     1  UNL1       -0.4558
     23 C         -29.4600    0.0050   23.8660 C.3     1  UNL1        0.2426
     24 C         -30.0650   -1.3770   23.5730 C.3     1  UNL1        0.2292
     25 O         -30.7290   -1.8780   24.7210 O.3     1  UNL1       -0.2162
     26 C         -26.3540    0.5760   25.7770 C.2     1  UNL1        0.1945
     27 F         -25.8600   -0.6810   25.7950 F       1  UNL1       -0.1992
     28 C         -19.8107    1.4473   26.4455 C.3     1  UNL1        0.2074
     29 C         -20.5059    0.3868   28.3873 C.3     1  UNL1        0.0382
     30 N         -23.3467    1.8973   26.5878 N.ar    1  UNL1       -0.2190
     31 O         -27.5608    0.9207   29.1514 O.3     1  UNL1       -0.0090
     32 C         -24.4020    0.6869   28.4732 C.ar    1  UNL1        0.1410
     33 O         -26.4961    0.4061   29.2114 O.3     1  UNL1       -0.0753
     34 O         -21.1504    1.8532   26.0812 O.3     1  UNL1       -0.4607
     35 O         -23.0283    0.8464   30.3436 O.2     1  UNL1       -0.2851
     36 C         -23.1183    0.7003   29.0849 C.ar    1  UNL1        0.2152
     37 C         -19.5751    1.5346   27.8718 C.3     1  UNL1        0.0523
     38 N         -25.3650    0.0269   29.1848 N.3     1  UNL1       -0.1981
     39 C         -24.5099    1.3736   27.2487 C.ar    1  UNL1        0.1019
     40 CL        -23.4460    2.8391   25.2799 Cl      1  UNL1        0.0217
     41 C         -21.9209    0.7594   28.1262 C.ar    1  UNL1        0.0709
     42 C         -22.1684    1.5244   26.9540 C.ar    1  UNL1        0.2189
@<TRIPOS>BOND
     1     1    38    1
     2     2     7    1
     3     2     1    1
     4     3     2    2
     5     4     3    1
     6     4     5    2
     7     5     6    1
     8     6     7    2
     9     8     1    1
    10     8     9    1
    11     8    12    1
    12     9    10    1
    13    10    11    1
    14    12    11    1
    15    13    39    1
    16    14    13    1
    17    14    15    1
    18    15    18    2
    19    16    17    1
    20    16    15    1
    21    19    14    2
    22    20    21    2
    23    20    19    1
    24    21    26    1
    25    22    21    1
    26    23    22    1
    27    24    23    1
    28    24    25    1
    29    26    27    1
    30    26    13    2
    31    28    37    1
    32    30    42   ar
    33    30    39   ar
    34    31    33    1
    35    32    36   ar
    36    32    38    1
    37    34    28    1
    38    34    42    1
    39    36    35    2
    40    37    29    1
    41    38    33    1
    42    39    32   ar
    43    40    30    1
    44    41    29    1
    45    41    36   ar
    46    42    41   ar
