@<TRIPOS>MOLECULE
No_3624-gen_results/8p0m/2024-11-27-11-27-31/
 16 17 0 0 0
SMALL
GASTEIGER

@<TRIPOS>ATOM
      1 C         -28.0162   -0.8135   28.8779 C.ar    1  UNL1        0.0047
      2 C         -27.0636   -0.1189   28.6079 C.ar    1  UNL1        0.0460
      3 C         -26.9716    0.7139   27.5060 C.ar    1  UNL1        0.0058
      4 C         -28.1053    0.7744   26.6421 C.ar    1  UNL1        0.0116
      5 C         -29.2008    0.1044   27.0527 C.ar    1  UNL1        0.0577
      6 C         -29.2096   -0.6029   28.1853 C.ar    1  UNL1        0.0115
      7 CL        -30.5651    0.2430   26.0493 Cl      1  UNL1       -0.0822
      8 C         -25.6106   -0.1345   29.2364 C.ar    1  UNL1        0.2219
      9 N         -24.6433    0.4374   28.8232 N.ar    1  UNL1       -0.2207
     10 C         -24.6666    1.2464   27.6913 C.ar    1  UNL1        0.0837
     11 C         -25.7751    1.3491   26.9872 C.ar    1  UNL1        0.0166
     12 C         -23.3771    1.9265   27.3591 C.3     1  UNL1        0.1839
     13 CL        -23.0079    2.5345   25.9330 Cl      1  UNL1       -0.1000
     14 C         -22.3069    2.0167   28.3796 C.2     1  UNL1        0.2294
     15 F         -25.5132   -0.8823   30.3080 F       1  UNL1       -0.1832
     16 O         -21.1344    2.1481   27.8970 O.2     1  UNL1       -0.2865
@<TRIPOS>BOND
     1     5     7    1
     2    10    12    1
     3    12    13    1
     4    12    14    1
     5     8    15    1
     6    14    16    2
     7     1     2   ar
     8     3     4   ar
     9     4     5   ar
    10     5     6   ar
    11     6     1   ar
    12     2     3   ar
    13     3    11   ar
    14    11    10   ar
    15    10     9   ar
    16     9     8   ar
    17     8     2   ar
