@<TRIPOS>MOLECULE
No_3628-gen_results/8p0m/2024-11-27-11-27-31/
 31 35 0 0 0
SMALL
GASTEIGER

@<TRIPOS>ATOM
      1 C         -28.0162   -0.8135   28.8779 C.ar    1  UNL1        0.0039
      2 C         -28.4690   -0.7850   29.8287 C.ar    1  UNL1        0.0497
      3 C         -26.5455   -0.8762   28.8500 C.ar    1  UNL1       -0.0038
      4 C         -25.8041   -1.0324   30.0571 C.ar    1  UNL1       -0.0181
      5 C         -27.9437   -0.9869   31.2075 C.ar    1  UNL1       -0.0165
      6 C         -26.5825   -1.0386   31.2231 C.ar    1  UNL1       -0.0080
      7 C         -30.0606   -0.7371   29.9024 C.2     1  UNL1        0.2487
      8 O         -30.5524   -0.2769   29.0111 O.2     1  UNL1       -0.2699
      9 N         -30.7429   -1.2889   30.9939 N.am    1  UNL1       -0.2774
     10 C         -32.1712   -1.2600   30.9749 C.3     1  UNL1        0.0937
     11 C         -24.3688   -1.0881   30.0880 C.3     1  UNL1        0.0526
     12 C         -23.5808   -0.7799   29.0756 C.ar    1  UNL1       -0.0181
     13 C         -22.1319   -0.6858   29.1927 C.ar    1  UNL1       -0.0040
     14 C         -21.3960   -0.1584   28.1410 C.ar    1  UNL1       -0.0006
     15 C         -22.0338    0.8623   27.3306 C.ar    1  UNL1       -0.0040
     16 C         -23.4607    1.0124   27.3680 C.ar    1  UNL1       -0.0193
     17 C         -24.1728    0.2953   28.2164 C.ar    1  UNL1       -0.0079
     18 C         -23.9903    2.0185   26.4447 C.3     1  UNL1        0.0377
     19 C         -25.2567    1.7441   25.9405 C.ar    1  UNL1       -0.0190
     20 C         -26.3314    2.4982   26.3021 C.ar    1  UNL1       -0.0040
     21 C         -27.5779    2.3104   25.6364 C.ar    1  UNL1       -0.0003
     22 C         -27.7171    1.1612   24.8296 C.ar    1  UNL1       -0.0000
     23 C         -26.6911    0.3106   24.6149 C.ar    1  UNL1       -0.0003
     24 C         -25.4039    0.5943   25.1462 C.ar    1  UNL1       -0.0040
     25 C         -32.8196   -1.7608   31.5820 C.3     1  UNL1        0.0216
     26 C         -32.2849   -2.6105   32.6738 C.3     1  UNL1        0.0035
     27 C         -30.8693   -2.7434   32.7849 C.3     1  UNL1        0.0202
     28 C         -30.0990   -2.1442   31.8881 C.3     1  UNL1        0.0800
     29 C         -28.6595   -2.0273   32.0979 C.3     1  UNL1        0.0463
     30 C         -24.0249    3.3301   27.2399 C.3     1  UNL1        0.0088
     31 C         -22.9935    2.2065   25.2253 C.3     1  UNL1        0.0088
@<TRIPOS>BOND
     1     2     7    1
     2     7     8    2
     3     7     9   am
     4     9    10    1
     5     4    11    1
     6    16    18    1
     7    18    19    1
     8    25    26    1
     9     9    28    1
    10    27    28    1
    11     5    29    1
    12    28    29    1
    13    18    30    1
    14    18    31    1
    15    11    12    1
    16    10    25    1
    17    26    27    1
    18    12    13   ar
    19    13    14   ar
    20    14    15   ar
    21    15    16   ar
    22    16    17   ar
    23    17    12   ar
    24    19    20   ar
    25    20    21   ar
    26    21    22   ar
    27    22    23   ar
    28    23    24   ar
    29    24    19   ar
    30     1     2   ar
    31     2     5   ar
    32     5     6   ar
    33     6     4   ar
    34     4     3   ar
    35     3     1   ar
