@<TRIPOS>MOLECULE
outputs/IAG933/test6/raw/output_3629_IAG933_linker_design_.xyz
 41 44 0 0 0
SMALL
GASTEIGER

@<TRIPOS>ATOM
      1 C         -24.8550   -1.0120   30.1430 C.3     1  UNL1        0.2402
      2 C         -24.9730   -2.5050   29.7880 C.2     1  UNL1        0.0262
      3 C         -23.9060   -3.1730   29.1460 C.2     1  UNL1       -0.0001
      4 C         -23.9890   -4.5490   28.8530 C.2     1  UNL1       -0.0002
      5 C         -25.1370   -5.2800   29.2050 C.2     1  UNL1       -0.0000
      6 C         -26.2320   -4.6110   29.7840 C.2     1  UNL1       -0.0002
      7 C         -26.1550   -3.2320   30.0650 C.2     1  UNL1       -0.0001
      8 C         -25.3870   -0.6790   31.5710 C.3     1  UNL1        0.1247
      9 C         -25.1890    0.7730   32.0280 C.3     1  UNL1        0.0236
     10 C         -25.3360    0.6840   33.5440 C.3     1  UNL1        0.0204
     11 C         -24.8290   -0.7150   33.9050 C.3     1  UNL1        0.0889
     12 N         -24.7580   -1.4810   32.6460 N.3     1  UNL1       -0.2148
     13 C         -25.6880    1.6140   26.4610 C.2     1  UNL1        0.0275
     14 C         -26.2500    2.9200   26.3950 C.2     1  UNL1        0.0731
     15 C         -25.6420    4.0930   27.1230 C.2     1  UNL1        0.2661
     16 N         -25.6140    5.2520   26.4490 N.am    1  UNL1       -0.1997
     17 C         -25.0260    6.4790   26.9630 C.3     1  UNL1        0.1388
     18 O         -25.1430    3.9660   28.2430 O.2     1  UNL1       -0.2683
     19 C         -27.4380    3.0910   25.6450 C.2     1  UNL1        0.1064
     20 N         -28.0750    2.0890   25.0030 N.2     1  UNL1       -0.2081
     21 C         -27.5430    0.8490   25.0790 C.2     1  UNL1        0.2530
     22 O         -28.1930   -0.2080   24.4770 O.2     1  UNL1       -0.4558
     23 C         -29.4600    0.0050   23.8660 C.3     1  UNL1        0.2426
     24 C         -30.0650   -1.3770   23.5730 C.3     1  UNL1        0.2292
     25 O         -30.7290   -1.8780   24.7210 O.3     1  UNL1       -0.2162
     26 C         -26.3540    0.5760   25.7770 C.2     1  UNL1        0.1897
     27 F         -25.8600   -0.6810   25.7950 F       1  UNL1       -0.1996
     28 N         -22.8810    0.0669   28.7818 N.2     1  UNL1       -0.0492
     29 O         -23.6036    1.3921   24.5315 O.3     1  UNL1       -0.1842
     30 C         -21.8043    0.7152   28.2409 C.3     1  UNL1        0.3057
     31 C         -23.2783    1.6632   26.7992 C.3     1  UNL1        0.0864
     32 F         -23.1150    3.4289   25.4913 F       1  UNL1       -0.2010
     33 C         -24.4583    1.2278   27.2729 C.3     1  UNL1        0.1402
     34 N         -25.2313   -0.0256   29.1824 N.3     1  UNL1       -0.0963
     35 N         -20.4763    0.3921   28.4461 N.3     1  UNL1       -0.0775
     36 C         -24.2044    0.3992   28.4435 C.2     1  UNL1        0.3366
     37 C         -23.3628    2.1439   25.5527 C.3     1  UNL1        0.3107
     38 C         -27.6630    0.7041   29.4967 C.3     1  UNL1        0.1991
     39 C         -22.0654    1.7330   27.3718 C.3     1  UNL1        0.0803
     40 O         -26.2471    0.8917   29.3101 O.3     1  UNL1       -0.1779
     41 C         -28.3275   -0.6326   29.3316 C.3     1  UNL1        0.0399
@<TRIPOS>BOND
     1     1    34    1
     2     2     7    1
     3     2     1    1
     4     3     2    2
     5     4     3    1
     6     4     5    2
     7     5     6    1
     8     6     7    2
     9     8     1    1
    10     8     9    1
    11     8    12    1
    12     9    10    1
    13    10    11    1
    14    12    11    1
    15    14    13    1
    16    14    15    1
    17    15    18    2
    18    16    17    1
    19    16    15    1
    20    19    14    2
    21    20    21    2
    22    20    19    1
    23    21    26    1
    24    22    21    1
    25    23    22    1
    26    24    23    1
    27    24    25    1
    28    26    27    1
    29    26    13    2
    30    30    35    1
    31    30    28    1
    32    31    37    1
    33    31    33    1
    34    31    39    1
    35    32    37    1
    36    33    13    1
    37    33    36    1
    38    34    40    1
    39    36    28    2
    40    36    34    1
    41    37    29    1
    42    39    30    1
    43    40    38    1
    44    41    38    1
