@<TRIPOS>MOLECULE
outputs/IAG933/test6/raw/output_3632_IAG933_linker_design_.xyz
 46 52 0 0 0
SMALL
GASTEIGER

@<TRIPOS>ATOM
      1 C         -24.8550   -1.0120   30.1430 C.3     1  UNL1        0.0438
      2 C         -24.9730   -2.5050   29.7880 C.2     1  UNL1       -0.0208
      3 C         -23.9060   -3.1730   29.1460 C.2     1  UNL1       -0.0042
      4 C         -23.9890   -4.5490   28.8530 C.2     1  UNL1       -0.0003
      5 C         -25.1370   -5.2800   29.2050 C.2     1  UNL1       -0.0000
      6 C         -26.2320   -4.6110   29.7840 C.2     1  UNL1       -0.0003
      7 C         -26.1550   -3.2320   30.0650 C.2     1  UNL1       -0.0042
      8 C         -25.3870   -0.6790   31.5710 C.3     1  UNL1        0.0795
      9 C         -25.1890    0.7730   32.0280 C.3     1  UNL1        0.0460
     10 C         -25.3360    0.6840   33.5440 C.3     1  UNL1        0.0226
     11 C         -24.8290   -0.7150   33.9050 C.3     1  UNL1        0.0888
     12 N         -24.7580   -1.4810   32.6460 N.3     1  UNL1       -0.2190
     13 C         -25.6880    1.6140   26.4610 C.2     1  UNL1        0.0916
     14 C         -26.2500    2.9200   26.3950 C.2     1  UNL1        0.0787
     15 C         -25.6420    4.0930   27.1230 C.2     1  UNL1        0.2220
     16 N         -25.6140    5.2520   26.4490 N.2     1  UNL1       -0.2357
     17 C         -25.0260    6.4790   26.9630 C.3     1  UNL1        0.1550
     18 O         -25.1430    3.9660   28.2430 O.2     1  UNL1       -0.4641
     19 C         -27.4380    3.0910   25.6450 C.2     1  UNL1        0.1069
     20 N         -28.0750    2.0890   25.0030 N.2     1  UNL1       -0.2081
     21 C         -27.5430    0.8490   25.0790 C.2     1  UNL1        0.2534
     22 O         -28.1930   -0.2080   24.4770 O.2     1  UNL1       -0.4558
     23 C         -29.4600    0.0050   23.8660 C.3     1  UNL1        0.2426
     24 C         -30.0650   -1.3770   23.5730 C.3     1  UNL1        0.2292
     25 O         -30.7290   -1.8780   24.7210 O.3     1  UNL1       -0.2162
     26 C         -26.3540    0.5760   25.7770 C.2     1  UNL1        0.1974
     27 F         -25.8600   -0.6810   25.7950 F       1  UNL1       -0.1991
     28 C         -24.4386    4.8317   32.1676 C.3     1  UNL1        0.0322
     29 C         -24.0659    5.8871   33.2247 C.3     1  UNL1        0.0346
     30 C         -24.4504    1.2025   27.1676 C.2     1  UNL1        0.2515
     31 C         -23.8865    2.0119   30.0166 C.3     1  UNL1        0.0259
     32 O         -27.2010    1.3370   30.6231 O.3     1  UNL1       -0.2254
     33 C         -21.3264    1.0385   27.2593 C.3     1  UNL1        0.0232
     34 C         -22.3062    1.9992   26.4498 C.3     1  UNL1        0.0937
     35 C         -26.0180    2.1002   31.2899 C.3     1  UNL1        0.1335
     36 C         -26.8943    4.2058   30.3087 C.3     1  UNL1        0.0485
     37 C         -25.5339    3.7365   29.6377 C.3     1  UNL1        0.1700
     38 C         -26.6504    3.5989   31.6789 C.3     1  UNL1        0.0590
     39 C         -25.0998    2.5425   30.0704 C.3     1  UNL1        0.0699
     40 O         -24.5047    0.1478   27.8425 O.2     1  UNL1       -0.2698
     41 C         -25.6561    4.4254   32.4597 C.3     1  UNL1        0.1177
     42 C         -23.0328    2.0393   28.7443 C.3     1  UNL1        0.0759
     43 N         -23.4485    2.1926   27.2857 N.am    1  UNL1       -0.2776
     44 C         -25.3545    5.8526   34.1482 C.3     1  UNL1        0.1421
     45 C         -21.8636    0.9761   28.6785 C.3     1  UNL1        0.0216
     46 O         -25.9429    4.6155   33.7162 O.3     1  UNL1       -0.3562
@<TRIPOS>BOND
     1     2     7    1
     2     2     1    1
     3     3     2    2
     4     4     3    1
     5     4     5    2
     6     5     6    1
     7     6     7    2
     8     8     1    1
     9     8     9    1
    10     8    12    1
    11     9    10    1
    12    10    11    1
    13    12    11    1
    14    13    30    1
    15    14    13    1
    16    14    15    1
    17    15    18    1
    18    16    17    1
    19    16    15    2
    20    18    37    1
    21    19    14    2
    22    20    21    2
    23    20    19    1
    24    21    26    1
    25    22    21    1
    26    23    22    1
    27    24    23    1
    28    24    25    1
    29    26    27    1
    30    26    13    2
    31    28    29    1
    32    29    44    1
    33    30    43   am
    34    30    40    2
    35    33    45    1
    36    34    33    1
    37    34    43    1
    38    35    32    1
    39    35    38    1
    40    35     9    1
    41    37    39    1
    42    37    36    1
    43    38    36    1
    44    38    41    1
    45    39    31    1
    46    39    35    1
    47    41    28    1
    48    41    46    1
    49    42    45    1
    50    42    31    1
    51    43    42    1
    52    46    44    1
