@<TRIPOS>MOLECULE
outputs/IAG933/test6/raw/output_3634_IAG933_linker_design_.xyz
 46 50 0 0 0
SMALL
GASTEIGER

@<TRIPOS>ATOM
      1 C         -24.8550   -1.0120   30.1430 C.3     1  UNL1        0.1181
      2 C         -24.9730   -2.5050   29.7880 C.2     1  UNL1       -0.0026
      3 C         -23.9060   -3.1730   29.1460 C.2     1  UNL1       -0.0026
      4 C         -23.9890   -4.5490   28.8530 C.2     1  UNL1       -0.0003
      5 C         -25.1370   -5.2800   29.2050 C.2     1  UNL1       -0.0000
      6 C         -26.2320   -4.6110   29.7840 C.2     1  UNL1       -0.0003
      7 C         -26.1550   -3.2320   30.0650 C.2     1  UNL1       -0.0026
      8 C         -25.3870   -0.6790   31.5710 C.3     1  UNL1        0.0955
      9 C         -25.1890    0.7730   32.0280 C.3     1  UNL1        0.0209
     10 C         -25.3360    0.6840   33.5440 C.3     1  UNL1        0.0203
     11 C         -24.8290   -0.7150   33.9050 C.3     1  UNL1        0.0888
     12 N         -24.7580   -1.4810   32.6460 N.3     1  UNL1       -0.2174
     13 C         -25.6880    1.6140   26.4610 C.2     1  UNL1        0.0454
     14 C         -26.2500    2.9200   26.3950 C.2     1  UNL1        0.0771
     15 C         -25.6420    4.0930   27.1230 C.2     1  UNL1        0.2664
     16 N         -25.6140    5.2520   26.4490 N.am    1  UNL1       -0.1997
     17 C         -25.0260    6.4790   26.9630 C.3     1  UNL1        0.1388
     18 O         -25.1430    3.9660   28.2430 O.2     1  UNL1       -0.2683
     19 C         -27.4380    3.0910   25.6450 C.2     1  UNL1        0.1067
     20 N         -28.0750    2.0890   25.0030 N.2     1  UNL1       -0.2081
     21 C         -27.5430    0.8490   25.0790 C.2     1  UNL1        0.2533
     22 O         -28.1930   -0.2080   24.4770 O.2     1  UNL1       -0.4558
     23 C         -29.4600    0.0050   23.8660 C.3     1  UNL1        0.2426
     24 C         -30.0650   -1.3770   23.5730 C.3     1  UNL1        0.2292
     25 O         -30.7290   -1.8780   24.7210 O.3     1  UNL1       -0.2162
     26 C         -26.3540    0.5760   25.7770 C.2     1  UNL1        0.1936
     27 F         -25.8600   -0.6810   25.7950 F       1  UNL1       -0.1992
     28 C         -29.4001   -0.3525   29.1096 C.3     1  UNL1        0.1660
     29 N         -25.5266   -0.0290   29.1561 N.am    1  UNL1       -0.2524
     30 O         -31.3641    2.4370   27.7335 O.3     1  UNL1       -0.3509
     31 C         -22.2254    1.0956   27.9252 C.ar    1  UNL1        0.1157
     32 CL        -20.5945    1.1018   28.0491 Cl      1  UNL1       -0.0727
     33 C         -30.4485    0.6269   28.6149 C.3     1  UNL1        0.0934
     34 C         -24.5220    1.3608   27.2658 C.ar    1  UNL1        0.0488
     35 C         -31.1917    0.1452   27.3985 C.3     1  UNL1        0.1862
     36 C         -23.0356    0.3951   28.7379 C.ar    1  UNL1        0.1707
     37 C         -28.0108   -0.4600   29.7154 C.3     1  UNL1        0.1186
     38 O         -27.1401    1.6445   29.4458 O.2     1  UNL1       -0.2744
     39 S         -22.9960    1.9168   26.7337 S.2     1  UNL1       -0.0719
     40 O         -30.3172   -0.5306   26.5776 O.3     1  UNL1       -0.2203
     41 O         -30.2166   -0.9076   30.1529 O.3     1  UNL1       -0.2224
     42 C         -26.8771    0.4770   29.2366 C.2     1  UNL1        0.2322
     43 F         -22.3363   -0.4829   29.6187 F       1  UNL1       -0.2014
     44 C         -24.4405    0.5872   28.4269 C.ar    1  UNL1        0.0891
     45 C         -30.1065    2.0653   28.2873 C.3     1  UNL1        0.1474
     46 C         -31.7572    1.4466   26.8007 C.3     1  UNL1        0.1750
@<TRIPOS>BOND
     1     1    29    1
     2     2     7    1
     3     2     1    1
     4     3     2    2
     5     4     3    1
     6     4     5    2
     7     5     6    1
     8     6     7    2
     9     8     1    1
    10     8     9    1
    11     8    12    1
    12     9    10    1
    13    10    11    1
    14    12    11    1
    15    13    34    1
    16    14    13    1
    17    14    15    1
    18    15    18    2
    19    16    17    1
    20    16    15    1
    21    19    14    2
    22    20    21    2
    23    20    19    1
    24    21    26    1
    25    22    21    1
    26    23    22    1
    27    24    23    1
    28    24    25    1
    29    26    27    1
    30    26    13    2
    31    28    37    1
    32    28    41    1
    33    29    42   am
    34    30    45    1
    35    31    32    1
    36    31    36   ar
    37    33    28    1
    38    34    44   ar
    39    35    40    1
    40    35    33    1
    41    36    43    1
    42    39    34   ar
    43    39    31   ar
    44    42    38    2
    45    42    37    1
    46    44    36   ar
    47    44    29    1
    48    45    33    1
    49    46    35    1
    50    46    30    1
