@<TRIPOS>MOLECULE
outputs/IAG933/test6/raw/output_3639_IAG933_linker_design_.xyz
 41 45 0 0 0
SMALL
GASTEIGER

@<TRIPOS>ATOM
      1 C         -24.8550   -1.0120   30.1430 C.3     1  UNL1        0.1227
      2 C         -24.9730   -2.5050   29.7880 C.2     1  UNL1       -0.0024
      3 C         -23.9060   -3.1730   29.1460 C.2     1  UNL1       -0.0026
      4 C         -23.9890   -4.5490   28.8530 C.2     1  UNL1       -0.0003
      5 C         -25.1370   -5.2800   29.2050 C.2     1  UNL1       -0.0000
      6 C         -26.2320   -4.6110   29.7840 C.2     1  UNL1       -0.0003
      7 C         -26.1550   -3.2320   30.0650 C.2     1  UNL1       -0.0026
      8 C         -25.3870   -0.6790   31.5710 C.3     1  UNL1        0.0956
      9 C         -25.1890    0.7730   32.0280 C.3     1  UNL1        0.0209
     10 C         -25.3360    0.6840   33.5440 C.3     1  UNL1        0.0203
     11 C         -24.8290   -0.7150   33.9050 C.3     1  UNL1        0.0888
     12 N         -24.7580   -1.4810   32.6460 N.3     1  UNL1       -0.2174
     13 C         -25.6880    1.6140   26.4610 C.2     1  UNL1        0.1059
     14 C         -26.2500    2.9200   26.3950 C.2     1  UNL1        0.0928
     15 C         -25.6420    4.0930   27.1230 C.2     1  UNL1        0.2678
     16 N         -25.6140    5.2520   26.4490 N.am    1  UNL1       -0.1997
     17 C         -25.0260    6.4790   26.9630 C.3     1  UNL1        0.1388
     18 O         -25.1430    3.9660   28.2430 O.2     1  UNL1       -0.2683
     19 C         -27.4380    3.0910   25.6450 C.2     1  UNL1        0.1082
     20 N         -28.0750    2.0890   25.0030 N.2     1  UNL1       -0.2080
     21 C         -27.5430    0.8490   25.0790 C.2     1  UNL1        0.2548
     22 O         -28.1930   -0.2080   24.4770 O.2     1  UNL1       -0.4558
     23 C         -29.4600    0.0050   23.8660 C.3     1  UNL1        0.2426
     24 C         -30.0650   -1.3770   23.5730 C.3     1  UNL1        0.2292
     25 O         -30.7290   -1.8780   24.7210 O.3     1  UNL1       -0.2162
     26 C         -26.3540    0.5760   25.7770 C.2     1  UNL1        0.2091
     27 F         -25.8600   -0.6810   25.7950 F       1  UNL1       -0.1977
     28 N         -21.2872    0.8824   27.4003 N.pl3   1  UNL1       -0.2328
     29 C         -23.2206    0.4919   28.4605 C.ar    1  UNL1        0.0298
     30 C         -23.6488    1.5730   26.6494 C.ar    1  UNL1        0.2733
     31 C         -24.6142    0.5374   28.3142 C.ar    1  UNL1        0.1246
     32 O         -23.4519    2.3421   25.5287 O.3     1  UNL1       -0.2720
     33 O         -27.0618    1.4653   29.7655 O.co2   1  UNL1       -0.2219
     34 C         -26.7991    0.3790   29.2807 C.2     1  UNL1        0.4522
     35 C         -22.5767    1.0229   27.3915 C.ar    1  UNL1        0.1197
     36 O         -27.6042   -0.4530   28.7191 O.co2   1  UNL1       -0.2219
     37 C         -21.0810    0.5071   28.6246 C.3     1  UNL1        0.1172
     38 F         -22.2301    2.3373   25.0786 F       1  UNL1        0.0153
     39 C         -22.2561    0.1799   29.3582 C.3     1  UNL1        0.0539
     40 N         -25.4753   -0.0720   29.2087 N.am    1  UNL1       -0.2043
     41 N         -24.7815    1.2597   27.2922 N.ar    1  UNL1       -0.2594
@<TRIPOS>BOND
     1     1    40    1
     2     2     7    1
     3     2     1    1
     4     3     2    2
     5     4     3    1
     6     4     5    2
     7     5     6    1
     8     6     7    2
     9     8     1    1
    10     8     9    1
    11     8    12    1
    12     9    10    1
    13    10    11    1
    14    12    11    1
    15    13    41    1
    16    14    13    1
    17    14    15    1
    18    15    18    2
    19    16    17    1
    20    16    15    1
    21    19    14    2
    22    20    21    2
    23    20    19    1
    24    21    26    1
    25    22    21    1
    26    23    22    1
    27    24    23    1
    28    24    25    1
    29    26    27    1
    30    26    13    2
    31    28    37    1
    32    29    39    1
    33    30    41   ar
    34    30    35   ar
    35    31    29   ar
    36    31    40    1
    37    32    30    1
    38    34    33   ar
    39    35    28    1
    40    35    29   ar
    41    36    34   ar
    42    37    39    1
    43    38    32    1
    44    40    34   am
    45    41    31   ar
