@<TRIPOS>MOLECULE
No_3642-gen_results/8p0m/2024-11-27-11-27-31/
 18 19 0 0 0
SMALL
GASTEIGER

@<TRIPOS>ATOM
      1 C         -28.0162   -0.8135   28.8779 C.ar    1  UNL1       -0.0031
      2 C         -28.4690   -0.7850   29.8287 C.ar    1  UNL1       -0.0003
      3 C         -27.1356    0.2359   28.5352 C.ar    1  UNL1       -0.0071
      4 C         -26.8745    1.2825   29.3982 C.ar    1  UNL1       -0.0031
      5 C         -28.3613    0.1987   30.9244 C.ar    1  UNL1       -0.0000
      6 C         -27.5277    1.2234   30.6356 C.ar    1  UNL1       -0.0003
      7 C         -26.3879    0.2914   27.2334 C.3     1  UNL1        0.1065
      8 CL        -25.4248    1.2427   26.7701 Cl      1  UNL1       -0.1098
      9 C         -27.4824    0.0563   26.1309 C.3     1  UNL1        0.0501
     10 C         -28.7215    0.5274   26.3310 C.ar    1  UNL1        0.0139
     11 C         -29.6158    0.3487   25.2089 C.ar    1  UNL1       -0.0012
     12 C         -30.9663    0.6821   25.4236 C.ar    1  UNL1       -0.0001
     13 C         -31.3803    1.1840   26.6628 C.ar    1  UNL1        0.0031
     14 C         -30.5272    1.3121   27.7074 C.ar    1  UNL1        0.0372
     15 C         -29.2477    0.9398   27.5756 C.ar    1  UNL1        0.1415
     16 O         -28.8241    2.2256   27.9558 O.3     1  UNL1       -0.4507
     17 C         -29.2505    3.1133   28.7372 C.2     1  UNL1        0.1796
     18 C         -28.5055    4.3535   28.7263 C.2     1  UNL1        0.0439
@<TRIPOS>BOND
     1     3     7    1
     2     7     8    1
     3     7     9    1
     4     9    10    1
     5    15    16    1
     6    16    17    1
     7    17    18    2
     8     1     2   ar
     9     2     5   ar
    10     5     6   ar
    11     6     4   ar
    12     4     3   ar
    13     3     1   ar
    14    10    11   ar
    15    11    12   ar
    16    12    13   ar
    17    13    14   ar
    18    14    15   ar
    19    15    10   ar
