@<TRIPOS>MOLECULE
No_3645-gen_results/8p0m/2024-11-27-11-27-31/
 14 14 0 0 0
SMALL
GASTEIGER

@<TRIPOS>ATOM
      1 C         -28.0162   -0.8135   28.8779 C.3     1  UNL1        0.3410
      2 C         -27.0636   -0.1190   28.6079 C.ar    1  UNL1        0.0436
      3 C         -25.7923   -0.4302   29.0761 C.ar    1  UNL1        0.0012
      4 C         -24.5456    0.3494   28.8225 C.ar    1  UNL1        0.0030
      5 C         -24.6586    1.4196   27.8878 C.ar    1  UNL1        0.0390
      6 C         -25.9471    1.6811   27.3792 C.ar    1  UNL1        0.0030
      7 C         -27.0439    0.9739   27.6871 C.ar    1  UNL1        0.0012
      8 F         -29.0018   -0.5422   28.2140 F       1  UNL1       -0.1933
      9 F         -28.3821   -0.6508   30.2566 F       1  UNL1       -0.1933
     10 C         -23.4458    2.1488   27.6118 C.2     1  UNL1        0.1970
     11 C         -22.3465    1.4897   27.3038 C.2     1  UNL1        0.0614
     12 O         -23.6372    3.4163   27.3108 O.2     1  UNL1       -0.2865
     13 C         -21.6640    0.7130   28.3615 C.2     1  UNL1        0.1090
     14 N         -20.4097    0.2908   28.1174 N.pl3   1  UNL1       -0.1265
@<TRIPOS>BOND
     1     1     2    1
     2     1     8    1
     3     1     9    1
     4     5    10    1
     5    10    11    1
     6    10    12    2
     7    11    13    2
     8    13    14    1
     9     2     3   ar
    10     3     4   ar
    11     4     5   ar
    12     5     6   ar
    13     6     7   ar
    14     7     2   ar
