@<TRIPOS>MOLECULE
No_3646-gen_results/8p0m/2024-11-27-11-27-31/
 12 12 0 0 0
SMALL
GASTEIGER

@<TRIPOS>ATOM
      1 C         -28.0162   -0.8135   28.8779 C.3     1  UNL1        0.1404
      2 C         -27.0636   -0.1189   28.6079 C.ar    1  UNL1       -0.0109
      3 C         -25.7647   -0.3897   29.0360 C.ar    1  UNL1       -0.0037
      4 C         -24.5516    0.4058   28.7646 C.ar    1  UNL1        0.0013
      5 C         -24.6957    1.4480   27.7988 C.ar    1  UNL1        0.0209
      6 C         -25.9755    1.7250   27.3077 C.ar    1  UNL1        0.0013
      7 C         -27.0718    1.0134   27.6535 C.ar    1  UNL1       -0.0037
      8 C         -29.2261   -0.0677   29.3149 C.2     1  UNL1        0.3692
      9 O         -30.3513   -0.6802   29.0789 O.co2   1  UNL1       -0.2453
     10 O         -29.2213    1.0176   29.8681 O.co2   1  UNL1       -0.2453
     11 C         -23.4979    2.2209   27.4902 C.2     1  UNL1        0.1221
     12 N         -22.5349    1.9199   27.2543 N.2     1  UNL1       -0.1464
@<TRIPOS>BOND
     1     1     8    1
     2     8     9   ar
     3     8    10   ar
     4     5    11    1
     5    11    12    2
     6     1     2    1
     7     2     3   ar
     8     3     4   ar
     9     4     5   ar
    10     5     6   ar
    11     6     7   ar
    12     7     2   ar
