@<TRIPOS>MOLECULE
No_3649-gen_results/8p0m/2024-11-27-11-27-31/
 25 26 0 0 0
SMALL
GASTEIGER

@<TRIPOS>ATOM
      1 C         -28.0162   -0.8135   28.8779 C.ar    1  UNL1        0.0494
      2 C         -28.4690   -0.7850   29.8287 C.ar    1  UNL1        0.1462
      3 C         -26.5042   -0.7777   28.8766 C.ar    1  UNL1        0.0669
      4 C         -25.8103   -0.8531   30.1028 C.ar    1  UNL1        0.0453
      5 C         -27.9906   -0.8916   31.2257 C.ar    1  UNL1        0.0381
      6 C         -26.6042   -0.8676   31.2652 C.ar    1  UNL1        0.0107
      7 O         -29.9385   -0.8194   29.8358 O.3     1  UNL1       -0.4533
      8 C         -30.6393    0.2340   30.2522 C.ar    1  UNL1        0.1514
      9 C         -31.5896    0.5939   29.5426 C.ar    1  UNL1        0.1150
     10 C         -32.3726    1.7688   29.9178 C.ar    1  UNL1        0.0208
     11 C         -32.0096    2.4414   31.1089 C.ar    1  UNL1        0.0560
     12 C         -30.9404    1.9620   31.8347 C.ar    1  UNL1        0.0157
     13 C         -30.2105    0.9050   31.4622 C.ar    1  UNL1        0.0362
     14 CL        -25.5579   -0.7100   27.4422 Cl      1  UNL1       -0.0816
     15 CL        -32.9552    3.7674   31.5847 Cl      1  UNL1       -0.0825
     16 BR        -23.9677   -0.9221   30.2076 Br      1  UNL1       -0.0481
     17 C         -31.9880   -0.0353   28.2839 C.2     1  UNL1        0.3907
     18 O         -32.8211   -0.8593   28.2911 O.co2   1  UNL1       -0.2404
     19 O         -31.2823    0.2225   27.2054 O.co2   1  UNL1       -0.2404
     20 C         -30.5636    2.6933   33.1463 C.3     1  UNL1        0.1528
     21 N         -29.6814    2.1892   33.8379 N.2     1  UNL1       -0.2641
     22 C         -29.3512    2.6900   35.0654 C.2     1  UNL1        0.0932
     23 C         -28.2300    2.1244   35.8309 C.2     1  UNL1        0.0156
     24 C         -27.4909    1.1129   35.2419 C.2     1  UNL1       -0.0242
     25 C         -27.7098    0.7665   33.9600 C.3     1  UNL1        0.0307
@<TRIPOS>BOND
     1     2     7    1
     2     7     8    1
     3     3    14    1
     4    11    15    1
     5     4    16    1
     6     9    17    1
     7    17    18   ar
     8    17    19   ar
     9    12    20    1
    10    20    21    1
    11    21    22    2
    12    22    23    1
    13    23    24    2
    14    24    25    1
    15     8     9   ar
    16     9    10   ar
    17    10    11   ar
    18    11    12   ar
    19    12    13   ar
    20    13     8   ar
    21     1     2   ar
    22     2     5   ar
    23     5     6   ar
    24     6     4   ar
    25     4     3   ar
    26     3     1   ar
