@<TRIPOS>MOLECULE
No_3650-gen_results/8p0m/2024-11-27-11-27-31/
 22 24 0 0 0
SMALL
GASTEIGER

@<TRIPOS>ATOM
      1 O         -28.1229   -1.3353   28.4874 O.2     1  UNL1       -0.2695
      2 C         -27.0637   -0.8242   28.8687 C.2     1  UNL1        0.2555
      3 C         -26.4017   -0.0623   28.6224 C.ar    1  UNL1        0.0612
      4 N         -26.5721   -1.5844   30.1172 N.am    1  UNL1       -0.2225
      5 C         -26.6982    0.9644   27.6453 C.ar    1  UNL1        0.0640
      6 C         -25.7832    1.8129   27.0351 C.ar    1  UNL1        0.0417
      7 C         -24.4346    1.9091   27.5889 C.ar    1  UNL1        0.1468
      8 C         -24.0815    1.0037   28.5745 C.ar    1  UNL1        0.0583
      9 C         -24.9283    0.0868   29.0484 C.ar    1  UNL1       -0.0068
     10 C         -27.3909   -2.7710   30.6241 C.2     1  UNL1        0.2550
     11 BR        -22.2946    1.0624   29.2085 Br      1  UNL1       -0.0470
     12 C         -25.3396   -1.3732   30.7704 C.3     1  UNL1        0.1062
     13 C         -24.5408   -0.6603   30.1854 C.3     1  UNL1        0.0491
     14 C         -28.4235   -2.4643   31.5579 C.ar    1  UNL1        0.0540
     15 C         -29.4329   -3.4324   31.6565 C.ar    1  UNL1        0.0045
     16 C         -30.5654   -3.1532   32.3772 C.ar    1  UNL1        0.0001
     17 C         -30.9157   -2.1811   32.4318 C.ar    1  UNL1        0.0000
     18 C         -30.0285   -0.9484   32.3822 C.ar    1  UNL1        0.0001
     19 C         -28.7577   -1.1140   31.8690 C.ar    1  UNL1        0.0045
     20 O         -26.9823   -3.8310   30.2672 O.2     1  UNL1       -0.2695
     21 CL        -28.2594    0.9970   26.9651 Cl      1  UNL1       -0.0820
     22 F         -23.5752    2.7939   27.0605 F       1  UNL1       -0.2036
@<TRIPOS>BOND
     1     1     2    2
     2     2     3    1
     3     2     4   am
     4     4    10   am
     5     8    11    1
     6     4    12    1
     7     9    13    1
     8    12    13    1
     9    10    14    1
    10    10    20    2
    11     5    21    1
    12     7    22    1
    13    14    15   ar
    14    15    16   ar
    15    16    17   ar
    16    17    18   ar
    17    18    19   ar
    18    19    14   ar
    19     3     5   ar
    20     5     6   ar
    21     6     7   ar
    22     7     8   ar
    23     8     9   ar
    24     9     3   ar
