@<TRIPOS>MOLECULE
No_3651-gen_results/8p0m/2024-11-27-11-27-31/
 13 13 0 0 0
SMALL
GASTEIGER

@<TRIPOS>ATOM
      1 C         -28.0162   -0.8135   28.8779 C.ar    1  UNL1        0.0048
      2 C         -28.4690   -0.7850   29.8287 C.ar    1  UNL1        0.0002
      3 C         -27.1356    0.2359   28.5352 C.ar    1  UNL1        0.0579
      4 C         -26.3351    0.2900   27.2835 C.2     1  UNL1        0.2792
      5 C         -28.3692    0.1957   30.9236 C.ar    1  UNL1        0.0000
      6 C         -27.5158    1.2655   30.6540 C.ar    1  UNL1        0.0002
      7 C         -26.8411    1.2942   29.4761 C.ar    1  UNL1        0.0048
      8 N         -25.3575    0.4805   26.9830 N.2     1  UNL1       -0.2063
      9 O         -27.2310    0.1304   26.1476 O.2     1  UNL1       -0.2652
     10 C         -24.2966    0.6572   28.0542 C.2     1  UNL1        0.1022
     11 C         -23.3288    1.6996   27.8391 C.2     1  UNL1        0.0207
     12 C         -23.1834    2.1453   26.4938 C.2     1  UNL1        0.0016
     13 C         -24.1776    1.8812   25.5430 C.2     1  UNL1        0.0001
@<TRIPOS>BOND
     1     3     4    1
     2     4     8    2
     3     4     9    1
     4     8    10    1
     5    10    11    2
     6    11    12    1
     7    12    13    2
     8     1     2   ar
     9     2     5   ar
    10     5     6   ar
    11     6     7   ar
    12     7     3   ar
    13     3     1   ar
