@<TRIPOS>MOLECULE
No_3652-gen_results/8p0m/2024-11-27-11-27-31/
 16 17 0 0 0
SMALL
GASTEIGER

@<TRIPOS>ATOM
      1 C         -28.0162   -0.8135   28.8779 C.ar    1  UNL1        0.0411
      2 C         -28.4690   -0.7850   29.8287 C.ar    1  UNL1        0.0599
      3 C         -26.5455   -0.8762   28.8500 C.ar    1  UNL1        0.1440
      4 C         -25.8041   -1.0324   30.0571 C.ar    1  UNL1        0.0664
      5 C         -27.9437   -0.9869   31.2075 C.ar    1  UNL1        0.0116
      6 C         -26.5825   -1.0386   31.2231 C.ar    1  UNL1        0.0063
      7 C         -24.3810   -1.1082   30.0855 C.2     1  UNL1        0.1977
      8 C         -23.7055    0.0955   29.8440 C.ar    1  UNL1        0.0390
      9 C         -22.4285    0.1160   29.2171 C.ar    1  UNL1        0.0032
     10 C         -21.8149    1.2942   28.8765 C.ar    1  UNL1        0.0001
     11 C         -24.1974    1.3766   30.2708 C.ar    1  UNL1        0.0032
     12 C         -23.6703    2.5778   29.8431 C.ar    1  UNL1        0.0001
     13 C         -22.4202    2.5641   29.1385 C.ar    1  UNL1        0.0000
     14 CL        -30.3164   -0.6900   29.8548 Cl      1  UNL1       -0.0822
     15 F         -25.8204   -0.8205   27.7334 F       1  UNL1       -0.2040
     16 O         -23.8357   -2.1856   30.2898 O.2     1  UNL1       -0.2865
@<TRIPOS>BOND
     1     4     7    1
     2     7     8    1
     3     2    14    1
     4     3    15    1
     5     7    16    2
     6     8     9   ar
     7     9    10   ar
     8    10    13   ar
     9    13    12   ar
    10    12    11   ar
    11    11     8   ar
    12     1     2   ar
    13     2     5   ar
    14     5     6   ar
    15     6     4   ar
    16     4     3   ar
    17     3     1   ar
