@<TRIPOS>MOLECULE
outputs/IAG933/test6/raw/output_3654_IAG933_linker_design_.xyz
 41 47 0 0 0
SMALL
GASTEIGER

@<TRIPOS>ATOM
      1 C         -24.8550   -1.0120   30.1430 C.3     1  UNL1        0.0914
      2 C         -24.9730   -2.5050   29.7880 C.2     1  UNL1       -0.0068
      3 C         -23.9060   -3.1730   29.1460 C.2     1  UNL1       -0.0029
      4 C         -23.9890   -4.5490   28.8530 C.2     1  UNL1       -0.0003
      5 C         -25.1370   -5.2800   29.2050 C.2     1  UNL1       -0.0000
      6 C         -26.2320   -4.6110   29.7840 C.2     1  UNL1       -0.0003
      7 C         -26.1550   -3.2320   30.0650 C.2     1  UNL1       -0.0029
      8 C         -25.3870   -0.6790   31.5710 C.3     1  UNL1        0.0912
      9 C         -25.1890    0.7730   32.0280 C.3     1  UNL1        0.0206
     10 C         -25.3360    0.6840   33.5440 C.3     1  UNL1        0.0203
     11 C         -24.8290   -0.7150   33.9050 C.3     1  UNL1        0.0888
     12 N         -24.7580   -1.4810   32.6460 N.3     1  UNL1       -0.2178
     13 C         -25.6880    1.6140   26.4610 C.3     1  UNL1        0.0727
     14 C         -26.2500    2.9200   26.3950 C.2     1  UNL1        0.0549
     15 C         -25.6420    4.0930   27.1230 C.2     1  UNL1        0.2624
     16 N         -25.6140    5.2520   26.4490 N.am    1  UNL1       -0.2000
     17 C         -25.0260    6.4790   26.9630 C.3     1  UNL1        0.1388
     18 O         -25.1430    3.9660   28.2430 O.2     1  UNL1       -0.2687
     19 C         -27.4380    3.0910   25.6450 C.2     1  UNL1        0.1021
     20 N         -28.0750    2.0890   25.0030 N.2     1  UNL1       -0.2119
     21 C         -27.5430    0.8490   25.0790 C.2     1  UNL1        0.2341
     22 O         -28.1930   -0.2080   24.4770 O.2     1  UNL1       -0.4585
     23 C         -29.4600    0.0050   23.8660 C.3     1  UNL1        0.2423
     24 C         -30.0650   -1.3770   23.5730 C.3     1  UNL1        0.2292
     25 O         -30.7290   -1.8780   24.7210 O.3     1  UNL1       -0.2162
     26 C         -26.3540    0.5760   25.7770 C.3     1  UNL1        0.2401
     27 F         -25.8600   -0.6810   25.7950 F       1  UNL1       -0.2269
     28 O         -22.2389    2.1187   25.1311 O.3     1  UNL1       -0.0648
     29 N         -25.3834   -0.0758   29.2477 N.3     1  UNL1       -0.2704
     30 O         -21.5146    1.6704   26.0232 O.3     1  UNL1       -0.1913
     31 C         -24.1118    1.5677   28.3110 C.3     1  UNL1        0.0485
     32 C         -23.5896    1.6384   27.1504 C.3     1  UNL1        0.1591
     33 C         -25.1457    1.5023   27.5383 C.3     1  UNL1        0.0418
     34 C         -23.9705    0.0756   28.8608 C.3     1  UNL1        0.0651
     35 C         -22.2200    1.3382   27.1760 C.3     1  UNL1        0.1828
     36 C         -29.0735   -0.4732   29.5988 C.3     1  UNL1        0.0015
     37 C         -27.9967    0.1317   28.8281 C.3     1  UNL1        0.0173
     38 C         -21.5892    0.7624   28.3122 C.3     1  UNL1        0.0370
     39 C         -26.7364   -0.3740   28.8216 C.3     1  UNL1        0.0723
     40 C         -22.4772    0.1251   29.3902 C.3     1  UNL1        0.0191
     41 O         -23.4203    2.4973   25.7565 O.3     1  UNL1       -0.1938
@<TRIPOS>BOND
     1     1     2    1
     2     1     8    1
     3     2     7    1
     4     3     2    2
     5     4     3    1
     6     4     5    2
     7     5     6    1
     8     6     7    2
     9     8     9    1
    10     8    12    1
    11     9    10    1
    12    10    11    1
    13    12    11    1
    14    13    14    1
    15    13    33    1
    16    14    15    1
    17    15    18    2
    18    16    17    1
    19    16    15    1
    20    19    14    2
    21    20    21    2
    22    20    19    1
    23    21    26    1
    24    22    21    1
    25    23    22    1
    26    24    23    1
    27    24    25    1
    28    26    27    1
    29    26    13    1
    30    28    41    1
    31    28    30    1
    32    29     1    1
    33    30    35    1
    34    31    34    1
    35    32    35    1
    36    32    33    1
    37    32    31    1
    38    33    31    1
    39    34    29    1
    40    34    40    1
    41    34     1    1
    42    35    38    1
    43    37    36    1
    44    38    40    1
    45    39    37    1
    46    39    29    1
    47    41    32    1
