@<TRIPOS>MOLECULE
No_3657-gen_results/8p0m/2024-11-27-11-27-31/
 13 13 0 0 0
SMALL
GASTEIGER

@<TRIPOS>ATOM
      1 C         -28.0162   -0.8135   28.8779 C.ar    1  UNL1        0.0002
      2 C         -27.0636   -0.1189   28.6079 C.ar    1  UNL1        0.0000
      3 C         -26.9716    0.7139   27.5060 C.ar    1  UNL1        0.0003
      4 C         -28.1053    0.7744   26.6421 C.ar    1  UNL1        0.0066
      5 C         -29.2041    0.1179   27.0477 C.ar    1  UNL1        0.0798
      6 C         -30.3488    0.2568   26.2203 C.2     1  UNL1        0.3878
      7 C         -29.1817   -0.6758   28.1173 C.ar    1  UNL1        0.0066
      8 O         -31.3387   -0.2347   26.5001 O.co2   1  UNL1       -0.2406
      9 O         -30.2632    0.8658   25.0069 O.co2   1  UNL1       -0.2406
     10 C         -25.6594    1.4162   27.1447 C.2     1  UNL1        0.0017
     11 C         -24.5223    1.0504   27.7392 C.2     1  UNL1        0.0225
     12 C         -23.3018    1.8033   27.3884 C.2     1  UNL1        0.1221
     13 N         -23.4932    2.6019   26.3063 N.2     1  UNL1       -0.1464
@<TRIPOS>BOND
     1     5     6    1
     2     6     8   ar
     3     6     9   ar
     4     3    10    1
     5    10    11    2
     6    11    12    1
     7    12    13    2
     8     1     2   ar
     9     2     3   ar
    10     3     4   ar
    11     4     5   ar
    12     5     7   ar
    13     7     1   ar
