@<TRIPOS>MOLECULE
No_3661-gen_results/8p0m/2024-11-27-11-27-31/
 20 21 0 0 0
SMALL
GASTEIGER

@<TRIPOS>ATOM
      1 C         -28.0162   -0.8135   28.8779 C.2     1  UNL1       -0.0224
      2 C         -28.4690   -0.7850   29.8287 C.2     1  UNL1       -0.0048
      3 C         -26.5455   -0.8762   28.8500 C.3     1  UNL1        0.0694
      4 C         -25.8041   -1.0324   30.0571 C.3     1  UNL1        0.0938
      5 C         -26.5373   -1.0386   31.2171 C.2     1  UNL1       -0.0113
      6 C         -27.8843   -0.9532   31.1862 C.2     1  UNL1       -0.0037
      7 C         -24.3655   -1.1134   30.0483 C.3     1  UNL1        0.0449
      8 C         -23.6925    0.1188   29.9185 C.3     1  UNL1        0.0039
      9 C         -22.3936    0.1820   29.3480 C.3     1  UNL1        0.0002
     10 C         -21.7660   -1.0836   29.1002 C.3     1  UNL1        0.0026
     11 C         -23.7787   -2.0456   28.9811 C.3     1  UNL1        0.1533
     12 C         -22.4132   -2.1567   28.9040 C.3     1  UNL1        0.0329
     13 C         -23.9101   -1.7264   31.4605 C.3     1  UNL1        0.0041
     14 CL        -25.4693   -1.9845   30.0815 Cl      1  UNL1       -0.1113
     15 C         -25.8591   -0.4839   27.5900 C.3     1  UNL1        0.1478
     16 O         -24.4270   -2.7422   28.2513 O.3     1  UNL1       -0.2231
     17 O         -26.2451   -0.3213   27.9498 O.3     1  UNL1       -0.3558
     18 C         -27.2261    0.8845   27.6528 C.3     1  UNL1        0.1154
     19 C         -26.5413    2.0477   27.8522 C.3     1  UNL1        0.0320
     20 C         -28.2541    0.8382   26.8851 C.3     1  UNL1        0.0320
@<TRIPOS>BOND
     1     1     2    2
     2     1     3    1
     3     3     4    1
     4     4     5    1
     5     2     6    1
     6     5     6    2
     7     4     7    1
     8     7     8    1
     9     9    10    1
    10     7    11    1
    11     7    13    1
    12     4    14    1
    13     3    15    1
    14    11    16    1
    15    15    17    1
    16    17    18    1
    17    18    19    1
    18    18    20    1
    19     8     9    1
    20    10    12    1
    21    12    11    1
