@<TRIPOS>MOLECULE
outputs/IAG933/test6/raw/output_3662_IAG933_linker_design_.xyz
 47 50 0 0 0
SMALL
GASTEIGER

@<TRIPOS>ATOM
      1 C         -24.8550   -1.0120   30.1430 C.3     1  UNL1        0.0422
      2 C         -24.9730   -2.5050   29.7880 C.2     1  UNL1       -0.0210
      3 C         -23.9060   -3.1730   29.1460 C.2     1  UNL1       -0.0042
      4 C         -23.9890   -4.5490   28.8530 C.2     1  UNL1       -0.0003
      5 C         -25.1370   -5.2800   29.2050 C.2     1  UNL1       -0.0000
      6 C         -26.2320   -4.6110   29.7840 C.2     1  UNL1       -0.0003
      7 C         -26.1550   -3.2320   30.0650 C.2     1  UNL1       -0.0042
      8 C         -25.3870   -0.6790   31.5710 C.3     1  UNL1        0.0769
      9 C         -25.1890    0.7730   32.0280 C.3     1  UNL1        0.0192
     10 C         -25.3360    0.6840   33.5440 C.3     1  UNL1        0.0202
     11 C         -24.8290   -0.7150   33.9050 C.3     1  UNL1        0.0887
     12 N         -24.7580   -1.4810   32.6460 N.3     1  UNL1       -0.2191
     13 C         -25.6880    1.6140   26.4610 C.2     1  UNL1        0.0407
     14 C         -26.2500    2.9200   26.3950 C.2     1  UNL1        0.0745
     15 C         -25.6420    4.0930   27.1230 C.2     1  UNL1        0.2236
     16 N         -25.6140    5.2520   26.4490 N.2     1  UNL1       -0.2356
     17 C         -25.0260    6.4790   26.9630 C.3     1  UNL1        0.1550
     18 O         -25.1430    3.9660   28.2430 O.2     1  UNL1       -0.4368
     19 C         -27.4380    3.0910   25.6450 C.2     1  UNL1        0.1068
     20 N         -28.0750    2.0890   25.0030 N.2     1  UNL1       -0.2081
     21 C         -27.5430    0.8490   25.0790 C.2     1  UNL1        0.2533
     22 O         -28.1930   -0.2080   24.4770 O.2     1  UNL1       -0.4558
     23 C         -29.4600    0.0050   23.8660 C.3     1  UNL1        0.2426
     24 C         -30.0650   -1.3770   23.5730 C.3     1  UNL1        0.2292
     25 O         -30.7290   -1.8780   24.7210 O.3     1  UNL1       -0.2162
     26 C         -26.3540    0.5760   25.7770 C.2     1  UNL1        0.1931
     27 F         -25.8600   -0.6810   25.7950 F       1  UNL1       -0.1992
     28 O         -27.4167    4.2675   31.6654 O.2     1  UNL1       -0.1694
     29 C         -29.0088   -1.2936   29.5310 C.3     1  UNL1        0.1421
     30 O         -30.1934   -1.3728   28.8672 O.3     1  UNL1       -0.3538
     31 C         -28.3706   -0.0394   29.4426 C.3     1  UNL1        0.0299
     32 N         -23.8441    1.9750   28.6266 N.3     1  UNL1       -0.1893
     33 C         -28.4987    4.0397   29.2391 C.3     1  UNL1        0.1552
     34 C         -29.3880    1.0581   29.4243 C.3     1  UNL1        0.0050
     35 C         -24.1433    0.8342   29.2921 C.3     1  UNL1        0.2258
     36 C         -22.6123    2.1303   27.8333 C.3     1  UNL1        0.0914
     37 C         -26.9113   -0.0030   29.1892 C.3     1  UNL1        0.0069
     38 S         -27.4309    4.8680   30.3251 S.O2    1  UNL1        0.0317
     39 C         -25.4030   -0.0165   29.1140 C.3     1  UNL1        0.0530
     40 C         -29.7356    2.2373   30.4548 C.3     1  UNL1        0.0020
     41 C         -29.6843    3.6881   30.1848 C.3     1  UNL1        0.0255
     42 O         -27.7874    6.1430   30.2424 O.2     1  UNL1       -0.1694
     43 C         -21.2286    1.4603   27.9398 C.3     1  UNL1        0.0204
     44 C         -25.7438    4.4141   29.5263 C.3     1  UNL1        0.3577
     45 O         -22.9099    0.0524   29.0924 O.3     1  UNL1       -0.2036
     46 C         -30.3102    0.9667   28.4134 C.3     1  UNL1        0.0322
     47 C         -30.7169   -0.3635   28.0996 C.3     1  UNL1        0.1422
@<TRIPOS>BOND
     1     1    39    1
     2     2     7    1
     3     2     1    1
     4     3     2    2
     5     4     3    1
     6     4     5    2
     7     5     6    1
     8     6     7    2
     9     8     1    1
    10     8     9    1
    11     8    12    1
    12     9    10    1
    13    10    11    1
    14    12    11    1
    15    14    13    1
    16    14    15    1
    17    15    18    1
    18    16    17    1
    19    16    15    2
    20    18    44    1
    21    19    14    2
    22    20    21    2
    23    20    19    1
    24    21    26    1
    25    22    21    1
    26    23    22    1
    27    24    23    1
    28    24    25    1
    29    26    27    1
    30    26    13    2
    31    30    29    1
    32    31    37    1
    33    31    29    1
    34    32    35    1
    35    33    41    1
    36    33    38    1
    37    34    31    1
    38    34    40    1
    39    35    45    1
    40    36    43    1
    41    36    32    1
    42    38    28    2
    43    39    37    1
    44    39    35    1
    45    41    40    1
    46    42    38    2
    47    44    38    1
    48    46    34    1
    49    47    46    1
    50    47    30    1
