@<TRIPOS>MOLECULE
No_3667-gen_results/8p0m/2024-11-27-11-27-31/
 14 15 0 0 0
SMALL
GASTEIGER

@<TRIPOS>ATOM
      1 C         -28.0162   -0.8135   28.8779 C.ar    1  UNL1        0.0293
      2 C         -28.4690   -0.7850   29.8287 C.ar    1  UNL1        0.1401
      3 C         -26.5455   -0.8762   28.8500 C.ar    1  UNL1       -0.0016
      4 C         -25.8041   -1.0324   30.0571 C.ar    1  UNL1       -0.0176
      5 C         -27.9437   -0.9869   31.2075 C.ar    1  UNL1        0.0293
      6 C         -26.5825   -1.0386   31.2231 C.ar    1  UNL1       -0.0016
      7 F         -29.9086   -0.7397   29.8642 F       1  UNL1       -0.2042
      8 C         -24.3767   -1.0979   30.0689 C.3     1  UNL1        0.0526
      9 C         -23.5963   -0.5404   29.1043 C.ar    1  UNL1       -0.0178
     10 C         -22.1621   -0.5679   29.2463 C.ar    1  UNL1       -0.0039
     11 C         -24.1269    0.2445   28.0708 C.ar    1  UNL1       -0.0039
     12 C         -23.2879    1.1977   27.3822 C.ar    1  UNL1       -0.0003
     13 C         -21.3271    0.2464   28.4614 C.ar    1  UNL1       -0.0003
     14 C         -21.8676    1.1116   27.5486 C.ar    1  UNL1       -0.0000
@<TRIPOS>BOND
     1     2     7    1
     2     4     8    1
     3     8     9    1
     4     9    10   ar
     5    10    13   ar
     6    13    14   ar
     7    14    12   ar
     8    12    11   ar
     9    11     9   ar
    10     1     2   ar
    11     2     5   ar
    12     5     6   ar
    13     6     4   ar
    14     4     3   ar
    15     3     1   ar
