@<TRIPOS>MOLECULE
outputs/IAG933/test6/raw/output_3668_IAG933_linker_design_.xyz
 41 45 0 0 0
SMALL
GASTEIGER

@<TRIPOS>ATOM
      1 C         -24.8550   -1.0120   30.1430 C.3     1  UNL1        0.0681
      2 C         -24.9730   -2.5050   29.7880 C.2     1  UNL1       -0.0187
      3 C         -23.9060   -3.1730   29.1460 C.2     1  UNL1       -0.0042
      4 C         -23.9890   -4.5490   28.8530 C.2     1  UNL1       -0.0003
      5 C         -25.1370   -5.2800   29.2050 C.2     1  UNL1       -0.0000
      6 C         -26.2320   -4.6110   29.7840 C.2     1  UNL1       -0.0003
      7 C         -26.1550   -3.2320   30.0650 C.2     1  UNL1       -0.0042
      8 C         -25.3870   -0.6790   31.5710 C.3     1  UNL1        0.0816
      9 C         -25.1890    0.7730   32.0280 C.3     1  UNL1        0.0476
     10 C         -25.3360    0.6840   33.5440 C.3     1  UNL1        0.0227
     11 C         -24.8290   -0.7150   33.9050 C.3     1  UNL1        0.0888
     12 N         -24.7580   -1.4810   32.6460 N.3     1  UNL1       -0.2190
     13 C         -25.6880    1.6140   26.4610 C.2     1  UNL1        0.0427
     14 C         -26.2500    2.9200   26.3950 C.2     1  UNL1        0.0748
     15 C         -25.6420    4.0930   27.1230 C.2     1  UNL1        0.2662
     16 N         -25.6140    5.2520   26.4490 N.am    1  UNL1       -0.1997
     17 C         -25.0260    6.4790   26.9630 C.3     1  UNL1        0.1388
     18 O         -25.1430    3.9660   28.2430 O.2     1  UNL1       -0.2683
     19 C         -27.4380    3.0910   25.6450 C.2     1  UNL1        0.1065
     20 N         -28.0750    2.0890   25.0030 N.2     1  UNL1       -0.2081
     21 C         -27.5430    0.8490   25.0790 C.2     1  UNL1        0.2530
     22 O         -28.1930   -0.2080   24.4770 O.2     1  UNL1       -0.4558
     23 C         -29.4600    0.0050   23.8660 C.3     1  UNL1        0.2426
     24 C         -30.0650   -1.3770   23.5730 C.3     1  UNL1        0.2292
     25 O         -30.7290   -1.8780   24.7210 O.3     1  UNL1       -0.2162
     26 C         -26.3540    0.5760   25.7770 C.2     1  UNL1        0.1914
     27 F         -25.8600   -0.6810   25.7950 F       1  UNL1       -0.1995
     28 C         -22.1578    1.5477   27.6176 C.3     1  UNL1        0.1986
     29 C         -24.4856    3.7388   31.7751 C.3     1  UNL1        0.1716
     30 C         -24.5375    5.6952   33.2418 C.3     1  UNL1        0.1742
     31 F         -20.8936    1.7906   27.2985 F       1  UNL1       -0.2342
     32 C         -24.4739    1.2228   26.9002 C.3     1  UNL1        0.1428
     33 C         -23.8407    1.1607   29.4395 C.3     1  UNL1        0.1776
     34 F         -21.8591    0.0837   29.6106 F       1  UNL1       -0.2316
     35 O         -24.3566    2.1888   30.1375 O.3     1  UNL1       -0.3507
     36 C         -22.5301    1.0655   28.8904 C.3     1  UNL1        0.2225
     37 O         -24.3291   -0.1110   27.5461 O.3     1  UNL1       -0.3512
     38 O         -24.7807    4.3150   33.0433 O.3     1  UNL1       -0.3485
     39 C         -24.9716    2.2755   31.4348 C.3     1  UNL1        0.1461
     40 C         -24.6453   -0.0387   28.9727 C.3     1  UNL1        0.1506
     41 C         -23.2099    1.8459   26.6797 C.3     1  UNL1        0.0724
@<TRIPOS>BOND
     1     1     2    1
     2     1     8    1
     3     2     7    1
     4     3     2    2
     5     4     3    1
     6     4     5    2
     7     5     6    1
     8     6     7    2
     9     8     9    1
    10     8    12    1
    11     9    10    1
    12    10    11    1
    13    12    11    1
    14    14    13    1
    15    14    15    1
    16    15    18    2
    17    16    17    1
    18    16    15    1
    19    19    14    2
    20    20    21    2
    21    20    19    1
    22    21    26    1
    23    22    21    1
    24    23    22    1
    25    24    23    1
    26    24    25    1
    27    26    27    1
    28    26    13    2
    29    28    31    1
    30    28    36    1
    31    29    38    1
    32    32    13    1
    33    32    37    1
    34    33    35    1
    35    35    39    1
    36    36    33    1
    37    36    34    1
    38    38    30    1
    39    39    29    1
    40    39     9    1
    41    40    37    1
    42    40    33    1
    43    40     1    1
    44    41    32    1
    45    41    28    1
