@<TRIPOS>MOLECULE
outputs/IAG933/test6/raw/output_3669_IAG933_linker_design_.xyz
 46 49 0 0 0
SMALL
GASTEIGER

@<TRIPOS>ATOM
      1 C         -24.8550   -1.0120   30.1430 C.3     1  UNL1        0.0437
      2 C         -24.9730   -2.5050   29.7880 C.2     1  UNL1       -0.0208
      3 C         -23.9060   -3.1730   29.1460 C.2     1  UNL1       -0.0042
      4 C         -23.9890   -4.5490   28.8530 C.2     1  UNL1       -0.0003
      5 C         -25.1370   -5.2800   29.2050 C.2     1  UNL1       -0.0000
      6 C         -26.2320   -4.6110   29.7840 C.2     1  UNL1       -0.0003
      7 C         -26.1550   -3.2320   30.0650 C.2     1  UNL1       -0.0042
      8 C         -25.3870   -0.6790   31.5710 C.3     1  UNL1        0.0777
      9 C         -25.1890    0.7730   32.0280 C.3     1  UNL1        0.0289
     10 C         -25.3360    0.6840   33.5440 C.3     1  UNL1        0.0208
     11 C         -24.8290   -0.7150   33.9050 C.3     1  UNL1        0.0887
     12 N         -24.7580   -1.4810   32.6460 N.3     1  UNL1       -0.2191
     13 C         -25.6880    1.6140   26.4610 C.3     1  UNL1        0.0723
     14 C         -26.2500    2.9200   26.3950 C.2     1  UNL1        0.0549
     15 C         -25.6420    4.0930   27.1230 C.2     1  UNL1        0.2624
     16 N         -25.6140    5.2520   26.4490 N.am    1  UNL1       -0.2000
     17 C         -25.0260    6.4790   26.9630 C.3     1  UNL1        0.1388
     18 O         -25.1430    3.9660   28.2430 O.2     1  UNL1       -0.2687
     19 C         -27.4380    3.0910   25.6450 C.2     1  UNL1        0.1021
     20 N         -28.0750    2.0890   25.0030 N.2     1  UNL1       -0.2119
     21 C         -27.5430    0.8490   25.0790 C.2     1  UNL1        0.2341
     22 O         -28.1930   -0.2080   24.4770 O.2     1  UNL1       -0.4585
     23 C         -29.4600    0.0050   23.8660 C.3     1  UNL1        0.2423
     24 C         -30.0650   -1.3770   23.5730 C.3     1  UNL1        0.2292
     25 O         -30.7290   -1.8780   24.7210 O.3     1  UNL1       -0.2162
     26 C         -26.3540    0.5760   25.7770 C.3     1  UNL1        0.2401
     27 F         -25.8600   -0.6810   25.7950 F       1  UNL1       -0.2269
     28 C         -27.3627    4.3204   33.5300 C.3     1  UNL1        0.1207
     29 O         -24.9165    3.7855   32.2597 O.3     1  UNL1       -0.3517
     30 C         -26.0075    4.5819   32.7830 C.3     1  UNL1        0.1609
     31 C         -22.8057    2.3109   26.0991 C.3     1  UNL1        0.0878
     32 C         -24.6210    1.6233   30.8003 C.3     1  UNL1        0.1080
     33 C         -23.8094    0.6970   27.7032 C.3     1  UNL1        0.1017
     34 C         -30.8994    1.8830   35.5284 C.3     1  UNL1        0.1094
     35 N         -23.1048    1.7459   28.5487 N.am    1  UNL1       -0.2298
     36 O         -20.8022    1.9587   27.5616 O.2     1  UNL1       -0.2745
     37 C         -29.7585    2.9020   35.3854 C.3     1  UNL1        0.0220
     38 O         -22.5795    0.4431   30.4464 O.2     1  UNL1       -0.2744
     39 C         -24.2047    1.5151   26.4466 C.3     1  UNL1        0.0368
     40 C         -28.5843    2.1530   34.7448 C.3     1  UNL1        0.0203
     41 N         -32.2127    2.4459   35.0225 N.3     1  UNL1       -0.1314
     42 C         -23.3766    1.2671   29.9861 C.2     1  UNL1        0.2334
     43 C         -25.1965    3.1422   30.9287 C.3     1  UNL1        0.1513
     44 C         -22.1328    2.1376   27.3763 C.2     1  UNL1        0.2314
     45 C         -27.0871    2.5808   35.1757 C.3     1  UNL1        0.0888
     46 N         -27.2104    4.0560   34.9755 N.3     1  UNL1       -0.2154
@<TRIPOS>BOND
     1     2     7    1
     2     2     1    1
     3     3     2    2
     4     4     3    1
     5     4     5    2
     6     5     6    1
     7     6     7    2
     8     8     1    1
     9     8     9    1
    10     8    12    1
    11     9    32    1
    12     9    10    1
    13    10    11    1
    14    12    11    1
    15    13    14    1
    16    14    15    1
    17    15    18    2
    18    16    17    1
    19    16    15    1
    20    19    14    2
    21    20    21    2
    22    20    19    1
    23    21    26    1
    24    22    21    1
    25    23    22    1
    26    24    23    1
    27    24    25    1
    28    26    27    1
    29    26    13    1
    30    28    46    1
    31    29    30    1
    32    30    28    1
    33    31    44    1
    34    32    43    1
    35    33    35    1
    36    35    42   am
    37    37    34    1
    38    39    31    1
    39    39    13    1
    40    39    33    1
    41    40    45    1
    42    40    37    1
    43    41    34    1
    44    42    38    2
    45    42    32    1
    46    43    29    1
    47    44    36    2
    48    44    35   am
    49    46    45    1
