@<TRIPOS>MOLECULE
outputs/IAG933/test6/raw/output_3670_IAG933_linker_design_.xyz
 39 42 0 0 0
SMALL
GASTEIGER

@<TRIPOS>ATOM
      1 C         -24.8550   -1.0120   30.1430 C.3     1  UNL1        0.1167
      2 C         -24.9730   -2.5050   29.7880 C.2     1  UNL1       -0.0125
      3 C         -23.9060   -3.1730   29.1460 C.2     1  UNL1       -0.0038
      4 C         -23.9890   -4.5490   28.8530 C.2     1  UNL1       -0.0003
      5 C         -25.1370   -5.2800   29.2050 C.2     1  UNL1       -0.0000
      6 C         -26.2320   -4.6110   29.7840 C.2     1  UNL1       -0.0003
      7 C         -26.1550   -3.2320   30.0650 C.2     1  UNL1       -0.0038
      8 C         -25.3870   -0.6790   31.5710 C.3     1  UNL1        0.0855
      9 C         -25.1890    0.7730   32.0280 C.3     1  UNL1        0.0197
     10 C         -25.3360    0.6840   33.5440 C.3     1  UNL1        0.0203
     11 C         -24.8290   -0.7150   33.9050 C.3     1  UNL1        0.0887
     12 N         -24.7580   -1.4810   32.6460 N.3     1  UNL1       -0.2186
     13 C         -25.6880    1.6140   26.4610 C.3     1  UNL1        0.0974
     14 C         -26.2500    2.9200   26.3950 C.2     1  UNL1        0.0591
     15 C         -25.6420    4.0930   27.1230 C.2     1  UNL1        0.2628
     16 N         -25.6140    5.2520   26.4490 N.am    1  UNL1       -0.2000
     17 C         -25.0260    6.4790   26.9630 C.3     1  UNL1        0.1388
     18 O         -25.1430    3.9660   28.2430 O.2     1  UNL1       -0.2686
     19 C         -27.4380    3.0910   25.6450 C.2     1  UNL1        0.1025
     20 N         -28.0750    2.0890   25.0030 N.2     1  UNL1       -0.2118
     21 C         -27.5430    0.8490   25.0790 C.2     1  UNL1        0.2344
     22 O         -28.1930   -0.2080   24.4770 O.2     1  UNL1       -0.4585
     23 C         -29.4600    0.0050   23.8660 C.3     1  UNL1        0.2423
     24 C         -30.0650   -1.3770   23.5730 C.3     1  UNL1        0.2292
     25 O         -30.7290   -1.8780   24.7210 O.3     1  UNL1       -0.2162
     26 C         -26.3540    0.5760   25.7770 C.3     1  UNL1        0.2442
     27 F         -25.8600   -0.6810   25.7950 F       1  UNL1       -0.2265
     28 F         -23.6518    2.9080   25.0381 F       1  UNL1       -0.1834
     29 C         -25.5368   -0.1683   29.1444 C.2     1  UNL1        0.2506
     30 C         -23.2606    2.1594   26.0464 C.ar    1  UNL1        0.2218
     31 N         -24.7488    0.8829   28.8631 N.am    1  UNL1       -0.1776
     32 N         -21.9327   -0.0934   29.1621 N.pl3   1  UNL1       -0.1227
     33 O         -26.6560   -0.4084   28.7513 O.2     1  UNL1       -0.2726
     34 C         -23.8148    0.9978   27.9421 C.ar    1  UNL1        0.0939
     35 F         -20.2730    1.4424   27.8144 F       1  UNL1       -0.1816
     36 N         -21.9894    2.0914   26.3799 N.ar    1  UNL1       -0.1887
     37 C         -24.2333    1.5583   26.7973 C.ar    1  UNL1        0.0477
     38 C         -21.5676    1.4146   27.4429 C.ar    1  UNL1        0.2422
     39 C         -22.4578    0.7530   28.1989 C.ar    1  UNL1        0.1499
@<TRIPOS>BOND
     1     1    29    1
     2     2     7    1
     3     2     1    1
     4     3     2    2
     5     4     3    1
     6     4     5    2
     7     5     6    1
     8     6     7    2
     9     8     1    1
    10     8     9    1
    11     8    12    1
    12     9    10    1
    13    10    11    1
    14    12    11    1
    15    13    37    1
    16    14    13    1
    17    14    15    1
    18    15    18    2
    19    16    17    1
    20    16    15    1
    21    19    14    2
    22    20    21    2
    23    20    19    1
    24    21    26    1
    25    22    21    1
    26    23    22    1
    27    24    23    1
    28    24    25    1
    29    26    27    1
    30    26    13    1
    31    28    30    1
    32    30    36   ar
    33    30    37   ar
    34    31    29    1
    35    33    29    2
    36    34    39   ar
    37    34    31    1
    38    36    38   ar
    39    37    34   ar
    40    38    35    1
    41    38    39   ar
    42    39    32    1
