@<TRIPOS>MOLECULE
outputs/IAG933/test6/raw/output_3671_IAG933_linker_design_.xyz
 42 46 0 0 0
SMALL
GASTEIGER

@<TRIPOS>ATOM
      1 C         -24.8550   -1.0120   30.1430 C.3     1  UNL1        0.1343
      2 C         -24.9730   -2.5050   29.7880 C.2     1  UNL1       -0.0012
      3 C         -23.9060   -3.1730   29.1460 C.2     1  UNL1       -0.0026
      4 C         -23.9890   -4.5490   28.8530 C.2     1  UNL1       -0.0003
      5 C         -25.1370   -5.2800   29.2050 C.2     1  UNL1       -0.0000
      6 C         -26.2320   -4.6110   29.7840 C.2     1  UNL1       -0.0003
      7 C         -26.1550   -3.2320   30.0650 C.2     1  UNL1       -0.0026
      8 C         -25.3870   -0.6790   31.5710 C.3     1  UNL1        0.0968
      9 C         -25.1890    0.7730   32.0280 C.3     1  UNL1        0.0210
     10 C         -25.3360    0.6840   33.5440 C.3     1  UNL1        0.0203
     11 C         -24.8290   -0.7150   33.9050 C.3     1  UNL1        0.0888
     12 N         -24.7580   -1.4810   32.6460 N.3     1  UNL1       -0.2174
     13 C         -25.6880    1.6140   26.4610 C.2     1  UNL1        0.0396
     14 C         -26.2500    2.9200   26.3950 C.2     1  UNL1        0.0766
     15 C         -25.6420    4.0930   27.1230 C.2     1  UNL1        0.2664
     16 N         -25.6140    5.2520   26.4490 N.am    1  UNL1       -0.1997
     17 C         -25.0260    6.4790   26.9630 C.3     1  UNL1        0.1388
     18 O         -25.1430    3.9660   28.2430 O.2     1  UNL1       -0.2683
     19 C         -27.4380    3.0910   25.6450 C.2     1  UNL1        0.1067
     20 N         -28.0750    2.0890   25.0030 N.2     1  UNL1       -0.2081
     21 C         -27.5430    0.8490   25.0790 C.2     1  UNL1        0.2533
     22 O         -28.1930   -0.2080   24.4770 O.2     1  UNL1       -0.4558
     23 C         -29.4600    0.0050   23.8660 C.3     1  UNL1        0.2426
     24 C         -30.0650   -1.3770   23.5730 C.3     1  UNL1        0.2292
     25 O         -30.7290   -1.8780   24.7210 O.3     1  UNL1       -0.2162
     26 C         -26.3540    0.5760   25.7770 C.2     1  UNL1        0.1931
     27 F         -25.8600   -0.6810   25.7950 F       1  UNL1       -0.1992
     28 C         -24.4822    1.2384   27.2022 C.2     1  UNL1        0.0267
     29 C         -22.1763    2.1293   26.0063 C.2     1  UNL1        0.3415
     30 N         -25.5663   -0.1888   29.0856 N.pl3   1  UNL1       -0.1818
     31 O         -22.6571   -0.1878   29.8650 O.2     1  UNL1       -0.2854
     32 O         -20.9778    1.9436   26.5640 O.3     1  UNL1       -0.4403
     33 C         -23.1891    0.3955   28.8625 C.2     1  UNL1        0.2101
     34 C         -22.5156    1.0648   28.0143 C.2     1  UNL1        0.0678
     35 O         -27.4920   -0.4908   27.7226 O.3     1  UNL1       -0.0501
     36 C         -21.0889    1.3365   27.8089 C.3     1  UNL1        0.2388
     37 S         -27.0010    0.1927   28.8593 S.3     1  UNL1        0.0942
     38 C         -23.1766    1.5400   26.8668 C.2     1  UNL1        0.0797
     39 O         -27.1611    1.5366   29.0019 O.3     1  UNL1       -0.0501
     40 O         -28.0343   -0.1775   29.7752 O.3     1  UNL1       -0.0501
     41 O         -22.2962    2.5703   24.7789 O.2     1  UNL1       -0.2449
     42 C         -24.5215    0.5079   28.3740 C.2     1  UNL1        0.1081
@<TRIPOS>BOND
     1     1    30    1
     2     2     7    1
     3     2     1    1
     4     3     2    2
     5     4     3    1
     6     4     5    2
     7     5     6    1
     8     6     7    2
     9     8     1    1
    10     8     9    1
    11     8    12    1
    12     9    10    1
    13    10    11    1
    14    12    11    1
    15    13    28    1
    16    14    13    1
    17    14    15    1
    18    15    18    2
    19    16    17    1
    20    16    15    1
    21    19    14    2
    22    20    21    2
    23    20    19    1
    24    21    26    1
    25    22    21    1
    26    23    22    1
    27    24    23    1
    28    24    25    1
    29    26    27    1
    30    26    13    2
    31    28    42    2
    32    29    32    1
    33    29    38    1
    34    32    36    1
    35    33    31    2
    36    34    33    1
    37    35    37    1
    38    36    34    1
    39    37    39    1
    40    37    30    1
    41    37    40    1
    42    38    28    1
    43    38    34    2
    44    41    29    2
    45    42    33    1
    46    42    30    1
