@<TRIPOS>MOLECULE
No_3673-gen_results/8p0m/2024-11-27-11-27-31/
 17 17 0 0 0
SMALL
GASTEIGER

@<TRIPOS>ATOM
      1 C         -28.0162   -0.8135   28.8779 C.3     1  UNL1        0.0482
      2 C         -27.0636   -0.1190   28.6079 C.ar    1  UNL1       -0.0205
      3 C         -25.7647   -0.3897   29.0360 C.ar    1  UNL1       -0.0041
      4 C         -24.5516    0.4058   28.7646 C.ar    1  UNL1        0.0043
      5 C         -24.6957    1.4480   27.7988 C.ar    1  UNL1        0.0566
      6 C         -25.9755    1.7250   27.3077 C.ar    1  UNL1        0.0043
      7 C         -27.0718    1.0134   27.6535 C.ar    1  UNL1       -0.0041
      8 C         -29.2260   -0.0677   29.3149 C.3     1  UNL1        0.1037
      9 N         -30.4169   -0.7017   29.1423 N.am    1  UNL1       -0.2483
     10 C         -23.4870    2.1874   27.4849 C.2     1  UNL1        0.2842
     11 N         -23.5540    3.1352   26.6107 N.am    1  UNL1       -0.0837
     12 O         -22.3226    1.8607   27.8818 O.2     1  UNL1       -0.2667
     13 C         -30.8880   -1.5544   30.0284 C.2     1  UNL1        0.0683
     14 C         -31.9695   -2.4460   29.6718 C.2     1  UNL1        0.0175
     15 C         -31.2236   -0.4771   28.0134 C.2     1  UNL1        0.2873
     16 O         -32.1679   -1.2476   27.6274 O.2     1  UNL1       -0.2620
     17 BR        -30.6112    0.9056   26.7691 Br      1  UNL1        0.0149
@<TRIPOS>BOND
     1     1     8    1
     2     8     9    1
     3     5    10    1
     4    10    11   am
     5    10    12    2
     6     9    13    1
     7    13    14    2
     8     9    15   am
     9    15    16    2
    10    15    17    1
    11     1     2    1
    12     2     3   ar
    13     3     4   ar
    14     4     5   ar
    15     5     6   ar
    16     6     7   ar
    17     7     2   ar
