@<TRIPOS>MOLECULE
No_3674-gen_results/8p0m/2024-11-27-11-27-31/
 30 34 0 0 0
SMALL
GASTEIGER

@<TRIPOS>ATOM
      1 C1        -28.0162   -0.8135   28.8779 C.ar    1  <1>         0.0000
      2 C2        -27.0636   -0.1190   28.6079 C.ar    1  <1>         0.0000
      3 C3        -25.7647   -0.3897   29.0360 C.ar    1  <1>         0.0001
      4 C4        -24.5516    0.4058   28.7646 C.ar    1  <1>         0.0029
      5 C5        -23.2300    0.1178   29.2575 C.ar    1  <1>         0.0001
      6 C6        -23.0942   -1.1309   29.8730 C.ar    1  <1>         0.0000
      7 C7        -27.7981   -1.9341   29.8560 C.ar    1  <1>         0.0000
      8 C8        -26.5420   -2.3269   30.2580 C.ar    1  <1>         0.0000
      9 C9        -25.4514   -1.5516   29.9079 C.ar    1  <1>         0.0000
     10 C10       -24.1562   -1.9097   30.2809 C.ar    1  <1>         0.0000
     11 C11       -24.6450    1.6582   27.9464 C.ar    1  <1>         0.0343
     12 C12       -24.8958    2.7559   28.5615 C.ar    1  <1>         0.1416
     13 C13       -25.1728    3.9344   27.8440 C.ar    1  <1>         0.0168
     14 C14       -24.4838    1.5571   26.5889 C.ar    1  <1>         0.0030
     15 C15       -24.6321    2.6939   25.7850 C.ar    1  <1>        -0.0001
     16 C16       -24.8902    3.9231   26.4317 C.ar    1  <1>        -0.0009
     17 O1        -25.0758    2.9107   29.9068 O.3     1  <1>        -0.4511
     18 C17       -25.9144    3.7559   30.5334 C.ar    1  <1>         0.1752
     19 C18       -26.7001    3.1529   31.5348 C.ar    1  <1>         0.1726
     20 C19       -27.9572    3.4256   31.5964 C.ar    1  <1>         0.0400
     21 C20       -28.5094    3.6963   30.7721 C.ar    1  <1>         0.0030
     22 O2        -25.9262    2.3757   32.3650 O.3     1  <1>        -0.4703
     23 C21       -28.1290    4.5955   29.8507 C.ar    1  <1>        -0.0007
     24 C22       -26.9200    4.3128   29.4712 C.ar    1  <1>         0.0199
     25 C23       -26.4036    4.1147   28.0224 C.3     1  <1>         0.0589
     26 C24       -26.2440    1.0452   32.5493 C.3     1  <1>         0.2324
     27 C25       -27.0104    0.6752   33.6682 C.3     1  <1>         0.1995
     28 C26       -27.6312   -0.6257   33.6428 C.2     1  <1>         0.2299
     29 O3        -27.6586   -1.0711   32.5167 O.2     1  <1>        -0.2866
     30 N1        -26.0075    0.8089   34.8234 N.3     1  <1>        -0.1205
@<TRIPOS>BOND
     1     4    11    1
     2    12    17    1
     3    17    18    1
     4    19    22    1
     5    13    25    1
     6    24    25    1
     7    22    26    1
     8    26    27    1
     9    27    28    1
    10    28    29    2
    11    27    30    1
    12     1     2   ar
    13     2     3   ar
    14     9     8   ar
    15     8     7   ar
    16     7     1   ar
    17    18    19   ar
    18    19    20   ar
    19    20    21   ar
    20    21    23   ar
    21    23    24   ar
    22    24    18   ar
    23    11    12   ar
    24    12    13   ar
    25    13    16   ar
    26    16    15   ar
    27    15    14   ar
    28    14    11   ar
    29     3     4   ar
    30     4     5   ar
    31     5     6   ar
    32     6    10   ar
    33    10     9   ar
    34     9     3   ar
