@<TRIPOS>MOLECULE
outputs/IAG933/test6/raw/output_3675_IAG933_linker_design_.xyz
 41 45 0 0 0
SMALL
GASTEIGER

@<TRIPOS>ATOM
      1 C         -24.8550   -1.0120   30.1430 C.3     1  UNL1        0.0733
      2 C         -24.9730   -2.5050   29.7880 C.2     1  UNL1       -0.0181
      3 C         -23.9060   -3.1730   29.1460 C.2     1  UNL1       -0.0041
      4 C         -23.9890   -4.5490   28.8530 C.2     1  UNL1       -0.0003
      5 C         -25.1370   -5.2800   29.2050 C.2     1  UNL1       -0.0000
      6 C         -26.2320   -4.6110   29.7840 C.2     1  UNL1       -0.0003
      7 C         -26.1550   -3.2320   30.0650 C.2     1  UNL1       -0.0041
      8 C         -25.3870   -0.6790   31.5710 C.3     1  UNL1        0.0798
      9 C         -25.1890    0.7730   32.0280 C.3     1  UNL1        0.0193
     10 C         -25.3360    0.6840   33.5440 C.3     1  UNL1        0.0202
     11 C         -24.8290   -0.7150   33.9050 C.3     1  UNL1        0.0887
     12 N         -24.7580   -1.4810   32.6460 N.3     1  UNL1       -0.2190
     13 C         -25.6880    1.6140   26.4610 C.2     1  UNL1        0.0343
     14 C         -26.2500    2.9200   26.3950 C.2     1  UNL1        0.0741
     15 C         -25.6420    4.0930   27.1230 C.2     1  UNL1        0.2662
     16 N         -25.6140    5.2520   26.4490 N.am    1  UNL1       -0.1997
     17 C         -25.0260    6.4790   26.9630 C.3     1  UNL1        0.1388
     18 O         -25.1430    3.9660   28.2430 O.2     1  UNL1       -0.2683
     19 C         -27.4380    3.0910   25.6450 C.2     1  UNL1        0.1065
     20 N         -28.0750    2.0890   25.0030 N.2     1  UNL1       -0.2081
     21 C         -27.5430    0.8490   25.0790 C.2     1  UNL1        0.2530
     22 O         -28.1930   -0.2080   24.4770 O.2     1  UNL1       -0.4558
     23 C         -29.4600    0.0050   23.8660 C.3     1  UNL1        0.2426
     24 C         -30.0650   -1.3770   23.5730 C.3     1  UNL1        0.2292
     25 O         -30.7290   -1.8780   24.7210 O.3     1  UNL1       -0.2162
     26 C         -26.3540    0.5760   25.7770 C.2     1  UNL1        0.1907
     27 F         -25.8600   -0.6810   25.7950 F       1  UNL1       -0.1995
     28 C         -28.4880   -1.2882   30.7266 C.3     1  UNL1        0.0201
     29 C         -29.8030   -2.0058   30.3706 C.3     1  UNL1        0.0042
     30 C         -22.1531    1.8447   26.1689 C.3     1  UNL1        0.0117
     31 N         -26.8402    0.0857   29.1179 N.3     1  UNL1       -0.1985
     32 C         -24.5682    1.2461   27.3551 C.3     1  UNL1        0.1101
     33 C         -23.2228    1.3791   27.3044 C.3     1  UNL1        0.0992
     34 O         -22.5352    0.2792   29.4625 O.2     1  UNL1       -0.2748
     35 N         -24.4950    0.4003   28.2634 N.am    1  UNL1       -0.2637
     36 C         -30.4579   -1.0852   29.3192 C.3     1  UNL1        0.0344
     37 C         -23.2408    0.4431   28.3715 C.2     1  UNL1        0.2283
     38 C         -29.2752   -0.2500   28.7946 C.3     1  UNL1        0.1679
     39 C         -27.9696   -0.8273   29.3426 C.3     1  UNL1        0.1048
     40 O         -29.2376   -0.4536   27.4000 O.3     1  UNL1       -0.2217
     41 C         -25.4945   -0.1493   29.0300 C.3     1  UNL1        0.1550
@<TRIPOS>BOND
     1     1    41    1
     2     2     7    1
     3     2     1    1
     4     3     2    2
     5     4     3    1
     6     4     5    2
     7     5     6    1
     8     6     7    2
     9     8     1    1
    10     8     9    1
    11     8    12    1
    12     9    10    1
    13    10    11    1
    14    12    11    1
    15    14    13    1
    16    14    15    1
    17    15    18    2
    18    16    17    1
    19    16    15    1
    20    19    14    2
    21    20    21    2
    22    20    19    1
    23    21    26    1
    24    22    21    1
    25    23    22    1
    26    24    23    1
    27    24    25    1
    28    26    27    1
    29    26    13    2
    30    29    28    1
    31    32    13    1
    32    32    35    1
    33    33    30    1
    34    33    32    1
    35    33    37    1
    36    35    37   am
    37    35    41    1
    38    36    29    1
    39    37    34    2
    40    38    40    1
    41    38    36    1
    42    38    39    1
    43    39    31    1
    44    39    28    1
    45    41    31    1
