@<TRIPOS>MOLECULE
No_3676-gen_results/8p0m/2024-11-27-11-27-31/
 10 10 0 0 0
SMALL
GASTEIGER

@<TRIPOS>ATOM
      1 C         -28.0162   -0.8135   28.8779 C.ar    1  UNL1        0.0046
      2 C         -28.4690   -0.7850   29.8287 C.ar    1  UNL1        0.0550
      3 C         -27.0871    0.2903   28.6377 C.ar    1  UNL1        0.0001
      4 C         -26.0238    0.3644   29.2526 C.ar    1  UNL1        0.0000
      5 C         -27.9125   -0.3949   31.0017 C.ar    1  UNL1        0.0046
      6 C         -26.6271    0.3127   30.9220 C.ar    1  UNL1        0.0001
      7 C         -29.7286   -1.6459   30.1813 C.2     1  UNL1        0.2648
      8 O         -30.7513   -1.3903   29.5228 O.2     1  UNL1       -0.2684
      9 N         -29.7118   -2.6775   31.1063 N.am    1  UNL1       -0.1998
     10 C         -30.8391   -3.5552   31.2762 C.3     1  UNL1        0.1388
@<TRIPOS>BOND
     1     2     7    1
     2     7     8    2
     3     7     9   am
     4     9    10    1
     5     1     2   ar
     6     2     5   ar
     7     5     6   ar
     8     6     4   ar
     9     4     3   ar
    10     3     1   ar
