@<TRIPOS>MOLECULE
No_3677-gen_results/8p0m/2024-11-27-11-27-31/
 19 20 0 0 0
SMALL
GASTEIGER

@<TRIPOS>ATOM
      1 C         -28.0162   -0.8135   28.8779 C.ar    1  UNL1        0.0177
      2 C         -28.4690   -0.7850   29.8287 C.ar    1  UNL1        0.0014
      3 C         -26.5455   -0.8762   28.8500 C.ar    1  UNL1        0.0854
      4 C         -25.8041   -1.0324   30.0571 C.ar    1  UNL1       -0.0011
      5 C         -26.5373   -1.0386   31.2171 C.ar    1  UNL1       -0.0026
      6 C         -27.8843   -0.9532   31.1862 C.ar    1  UNL1       -0.0002
      7 C         -24.3555   -1.1121   30.0346 C.3     1  UNL1        0.0537
      8 C         -23.6610    0.1027   29.8448 C.ar    1  UNL1       -0.0217
      9 C         -22.4205    0.1575   29.1928 C.ar    1  UNL1       -0.0042
     10 C         -21.8312    1.3420   28.8564 C.ar    1  UNL1       -0.0003
     11 C         -24.1357    1.3453   30.3719 C.ar    1  UNL1       -0.0255
     12 C         -25.3467    1.3667   31.1799 C.3     1  UNL1        0.0307
     13 C         -22.5979    2.5943   28.8678 C.ar    1  UNL1       -0.0003
     14 C         -23.6577    2.5843   29.8584 C.ar    1  UNL1       -0.0046
     15 N         -25.7994   -0.8429   27.6615 N.pl3   1  UNL1       -0.1284
     16 C         -25.9975    2.6541   31.0459 C.3     1  UNL1        0.0304
     17 C         -26.8380    2.7239   29.9636 C.2     1  UNL1       -0.0303
     18 C         -27.2724    4.0240   29.6287 C.2     1  UNL1       -0.0303
     19 C         -28.0209    4.1889   28.4084 C.3     1  UNL1        0.0303
@<TRIPOS>BOND
     1     4     7    1
     2     7     8    1
     3    11    12    1
     4     3    15    1
     5    12    16    1
     6    16    17    1
     7    17    18    2
     8    18    19    1
     9     8     9   ar
    10     9    10   ar
    11    10    13   ar
    12    13    14   ar
    13    14    11   ar
    14    11     8   ar
    15     1     2   ar
    16     2     6   ar
    17     6     5   ar
    18     5     4   ar
    19     4     3   ar
    20     3     1   ar
