@<TRIPOS>MOLECULE
outputs/IAG933/test6/raw/output_3678_IAG933_linker_design_.xyz
 41 45 0 0 0
SMALL
GASTEIGER

@<TRIPOS>ATOM
      1 C         -24.8550   -1.0120   30.1430 C.3     1  UNL1        0.1982
      2 C         -24.9730   -2.5050   29.7880 C.2     1  UNL1        0.0213
      3 C         -23.9060   -3.1730   29.1460 C.2     1  UNL1       -0.0004
      4 C         -23.9890   -4.5490   28.8530 C.2     1  UNL1       -0.0002
      5 C         -25.1370   -5.2800   29.2050 C.2     1  UNL1       -0.0000
      6 C         -26.2320   -4.6110   29.7840 C.2     1  UNL1       -0.0002
      7 C         -26.1550   -3.2320   30.0650 C.2     1  UNL1       -0.0004
      8 C         -25.3870   -0.6790   31.5710 C.3     1  UNL1        0.1197
      9 C         -25.1890    0.7730   32.0280 C.3     1  UNL1        0.0233
     10 C         -25.3360    0.6840   33.5440 C.3     1  UNL1        0.0204
     11 C         -24.8290   -0.7150   33.9050 C.3     1  UNL1        0.0889
     12 N         -24.7580   -1.4810   32.6460 N.3     1  UNL1       -0.2150
     13 C         -25.6880    1.6140   26.4610 C.2     1  UNL1        0.0366
     14 C         -26.2500    2.9200   26.3950 C.2     1  UNL1        0.0740
     15 C         -25.6420    4.0930   27.1230 C.2     1  UNL1        0.2662
     16 N         -25.6140    5.2520   26.4490 N.am    1  UNL1       -0.1997
     17 C         -25.0260    6.4790   26.9630 C.3     1  UNL1        0.1388
     18 O         -25.1430    3.9660   28.2430 O.2     1  UNL1       -0.2683
     19 C         -27.4380    3.0910   25.6450 C.2     1  UNL1        0.1065
     20 N         -28.0750    2.0890   25.0030 N.2     1  UNL1       -0.2081
     21 C         -27.5430    0.8490   25.0790 C.2     1  UNL1        0.2530
     22 O         -28.1930   -0.2080   24.4770 O.2     1  UNL1       -0.4558
     23 C         -29.4600    0.0050   23.8660 C.3     1  UNL1        0.2426
     24 C         -30.0650   -1.3770   23.5730 C.3     1  UNL1        0.2292
     25 O         -30.7290   -1.8780   24.7210 O.3     1  UNL1       -0.2162
     26 C         -26.3540    0.5760   25.7770 C.2     1  UNL1        0.1906
     27 F         -25.8600   -0.6810   25.7950 F       1  UNL1       -0.1995
     28 N         -22.0820   -0.3707   29.8001 N.2     1  UNL1        0.1896
     29 C         -22.8957    0.1482   29.0006 C.2     1  UNL1        0.3720
     30 N         -24.1735   -0.1097   29.2534 N.pl3   1  UNL1       -0.1896
     31 C         -24.6790    1.2190   27.4070 C.3     1  UNL1        0.1553
     32 C         -22.5061    0.9919   27.8359 C.3     1  UNL1        0.2297
     33 C         -21.2180    1.4752   27.3086 C.3     1  UNL1        0.2150
     34 O         -21.4660    2.0192   25.9713 O.3     1  UNL1       -0.2004
     35 N         -23.4379    1.4472   27.0513 N.3     1  UNL1       -0.1146
     36 C         -25.1711    0.7119   28.6331 C.3     1  UNL1        0.1904
     37 C         -26.3925   -0.1473   28.5046 C.3     1  UNL1        0.1368
     38 N         -28.1300    1.3336   29.1257 N.am    1  UNL1       -0.0877
     39 O         -22.9779    2.1512   25.9564 O.3     1  UNL1       -0.1351
     40 C         -27.6216    0.0890   28.9256 C.2     1  UNL1        0.2649
     41 O         -28.2849   -0.9063   29.0635 O.2     1  UNL1       -0.2715
@<TRIPOS>BOND
     1     1     2    1
     2     2     7    1
     3     3     2    2
     4     4     3    1
     5     4     5    2
     6     5     6    1
     7     6     7    2
     8     8     1    1
     9     8     9    1
    10     8    12    1
    11     9    10    1
    12    10    11    1
    13    12    11    1
    14    14    13    1
    15    14    15    1
    16    15    18    2
    17    16    17    1
    18    16    15    1
    19    19    14    2
    20    20    21    2
    21    20    19    1
    22    21    26    1
    23    22    21    1
    24    23    22    1
    25    24    23    1
    26    24    25    1
    27    26    27    1
    28    26    13    2
    29    29    30    1
    30    29    28    2
    31    30     1    1
    32    31    13    1
    33    31    36    1
    34    32    33    1
    35    32    29    1
    36    34    33    1
    37    35    39    1
    38    35    31    1
    39    35    32    1
    40    36    37    1
    41    36    30    1
    42    37    40    1
    43    39    34    1
    44    40    41    2
    45    40    38    1
