@<TRIPOS>MOLECULE
No_3679-gen_results/8p0m/2024-11-27-11-27-31/
 18 20 0 0 0
SMALL
GASTEIGER

@<TRIPOS>ATOM
      1 C         -28.0162   -0.8135   28.8779 C.ar    1  UNL1        0.0193
      2 C         -27.0636   -0.1189   28.6079 C.ar    1  UNL1        0.0810
      3 N         -25.8176   -0.3427   29.0487 N.ar    1  UNL1       -0.2454
      4 C         -24.6506    0.4444   28.7649 C.ar    1  UNL1        0.0809
      5 C         -24.7153    1.3122   27.7191 C.ar    1  UNL1        0.0137
      6 C         -23.6108    2.0864   27.3769 C.ar    1  UNL1        0.0012
      7 C         -22.3585    1.7721   27.9815 C.ar    1  UNL1        0.0001
      8 C         -22.2777    0.8396   28.9969 C.ar    1  UNL1        0.0015
      9 C         -23.4430    0.0891   29.3720 C.ar    1  UNL1        0.0191
     10 C         -29.3323   -0.3029   28.8047 C.ar    1  UNL1        0.0081
     11 C         -29.5223    0.8188   27.9837 C.ar    1  UNL1        0.0799
     12 C         -28.4517    1.5371   27.5059 C.ar    1  UNL1        0.0078
     13 C         -27.1522    1.1755   27.8806 C.ar    1  UNL1        0.0140
     14 C         -26.0034    1.8468   27.4239 C.ar    1  UNL1       -0.0189
     15 C         -26.1346    2.9744   26.5166 C.3     1  UNL1        0.0311
     16 C         -30.9216    1.2566   27.6858 C.2     1  UNL1        0.3878
     17 O         -31.5945    1.7621   28.4679 O.co2   1  UNL1       -0.2406
     18 O         -31.1096    1.3566   26.3971 O.co2   1  UNL1       -0.2406
@<TRIPOS>BOND
     1    14    15    1
     2    11    16    1
     3    16    17   ar
     4    16    18   ar
     5     2     3   ar
     6     3     4   ar
     7     5    14   ar
     8    14    13   ar
     9     4     5   ar
    10     5     6   ar
    11     6     7   ar
    12     7     8   ar
    13     8     9   ar
    14     9     4   ar
    15     1     2   ar
    16     2    13   ar
    17    13    12   ar
    18    12    11   ar
    19    11    10   ar
    20    10     1   ar
