@<TRIPOS>MOLECULE
No_3681-gen_results/8p0m/2024-11-27-11-27-31/
 35 38 0 0 0
SMALL
GASTEIGER

@<TRIPOS>ATOM
      1 C         -28.0162   -0.8135   28.8779 C.ar    1  UNL1        0.0416
      2 C         -27.0636   -0.1189   28.6079 C.ar    1  UNL1        0.1409
      3 N         -25.8176   -0.3427   29.0487 N.ar    1  UNL1       -0.2136
      4 C         -25.6067   -1.4414   29.8929 C.ar    1  UNL1        0.1533
      5 C         -26.6760   -2.2193   30.2363 C.ar    1  UNL1        0.0428
      6 C         -27.8635   -1.9317   29.7671 C.ar    1  UNL1        0.0854
      7 N         -27.1286    1.0356   27.8135 N.pl3   1  UNL1       -0.2510
      8 C         -26.1342    1.9036   27.7281 C.ar    1  UNL1        0.0569
      9 C         -25.4369    2.2886   26.9358 C.ar    1  UNL1        0.0152
     10 C         -24.2527    3.2463   27.0271 C.ar    1  UNL1        0.0013
     11 C         -25.7074    2.5718   29.0993 C.ar    1  UNL1        0.0152
     12 C         -24.7417    3.5090   29.2497 C.ar    1  UNL1        0.0013
     13 C         -23.9944    3.8435   28.1570 C.ar    1  UNL1        0.0001
     14 C         -28.1792    1.1916   26.8955 C.ar    1  UNL1        0.0586
     15 C         -29.1541    1.9036   27.2867 C.ar    1  UNL1        0.0218
     16 C         -28.1127    0.5973   25.6564 C.ar    1  UNL1        0.0332
     17 C         -26.9114    0.0001   25.0747 C.ar    1  UNL1        0.1001
     18 C         -29.1100    0.6943   24.7020 C.ar    1  UNL1        0.0045
     19 C         -30.4146    1.8402   26.7175 C.ar    1  UNL1        0.0810
     20 C         -31.5822    2.5422   27.1591 C.2     1  UNL1        0.3878
     21 C         -30.4416    1.2196   25.3587 C.ar    1  UNL1        0.0068
     22 C         -29.0403   -2.7617   30.1921 C.2     1  UNL1        0.3879
     23 O         -28.8931   -3.9887   30.3374 O.co2   1  UNL1       -0.2405
     24 O         -30.1798   -2.2751   30.3983 O.co2   1  UNL1       -0.2405
     25 O         -31.8803    2.6152   28.1314 O.co2   1  UNL1       -0.2406
     26 O         -32.0791    3.3297   26.2460 O.co2   1  UNL1       -0.2406
     27 C         -29.2437    0.0794   23.5255 C.ar    1  UNL1        0.0207
     28 N         -24.3191   -1.7271   30.2955 N.pl3   1  UNL1       -0.1941
     29 C         -23.6270   -0.8275   31.1137 C.2     1  UNL1        0.0718
     30 C         -22.2227   -0.8491   31.0127 C.2     1  UNL1        0.0179
     31 C         -24.2972   -0.0761   32.1171 C.2     1  UNL1        0.0120
     32 N         -26.9593   -0.7761   24.1102 N.ar    1  UNL1       -0.2423
     33 C         -28.1332   -0.7328   23.3245 C.ar    1  UNL1        0.0989
     34 C         -25.1841    0.5682   32.3032 C.2     1  UNL1       -0.0245
     35 C         -25.8277    1.3392   33.3966 C.3     1  UNL1        0.0307
@<TRIPOS>BOND
     1     2     7    1
     2     7     8    1
     3     7    14    1
     4    19    20    1
     5     6    22    1
     6    22    23   ar
     7    22    24   ar
     8    20    25   ar
     9    20    26   ar
    10     4    28    1
    11    28    29    1
    12    29    30    2
    13    29    31    1
    14    31    34    2
    15    34    35    1
    16     1     2   ar
    17     2     3   ar
    18     3     4   ar
    19     4     5   ar
    20     5     6   ar
    21     6     1   ar
    22     8     9   ar
    23     9    10   ar
    24    10    13   ar
    25    13    12   ar
    26    12    11   ar
    27    11     8   ar
    28    16    17   ar
    29    17    32   ar
    30    32    33   ar
    31    33    27   ar
    32    27    18   ar
    33    14    15   ar
    34    15    19   ar
    35    19    21   ar
    36    21    18   ar
    37    18    16   ar
    38    16    14   ar
