@<TRIPOS>MOLECULE
No_3682-gen_results/8p0m/2024-11-27-11-27-31/
 33 35 0 0 0
SMALL
GASTEIGER

@<TRIPOS>ATOM
      1 N         -28.0544   -1.0498   28.7246 N.am    1  UNL1       -0.1985
      2 C         -27.7460   -0.0733   29.0098 C.2     1  UNL1        0.2457
      3 C         -27.1737    0.7565   28.1070 C.3     1  UNL1        0.1039
      4 C         -25.8200    1.2606   28.2149 C.2     1  UNL1       -0.0196
      5 C         -24.8932    0.8355   27.3882 C.2     1  UNL1       -0.0052
      6 C         -23.5082    1.0340   27.6366 C.2     1  UNL1        0.0811
      7 C         -22.7182    0.3749   28.2967 C.2     1  UNL1       -0.0054
      8 C         -23.2251   -0.7061   29.1132 C.ar    1  UNL1       -0.0027
      9 C         -23.7504   -0.8799   30.0259 C.ar    1  UNL1       -0.0003
     10 C         -24.2412   -2.1438   30.5236 C.ar    1  UNL1       -0.0000
     11 C         -24.3669   -3.0912   29.5450 C.ar    1  UNL1       -0.0000
     12 C         -23.9215   -2.9600   28.3190 C.ar    1  UNL1       -0.0000
     13 C         -23.2884   -1.8243   28.0768 C.ar    1  UNL1       -0.0003
     14 O         -27.8222    0.3458   30.2464 O.2     1  UNL1       -0.2730
     15 C         -27.9142    1.1476   26.9301 C.3     1  UNL1        0.0356
     16 C         -25.2040    0.1765   26.1722 C.3     1  UNL1        0.0527
     17 C         -27.5696    0.5685   25.7266 C.2     1  UNL1       -0.0414
     18 C         -26.2452    0.4129   25.2574 C.2     1  UNL1       -0.0295
     19 N         -23.1880    2.3542   27.1699 N.pl3   1  UNL1       -0.1287
     20 C         -21.2737    0.6609   28.5116 C.3     1  UNL1        0.0324
     21 C         -28.4586    0.6706   24.5936 C.3     1  UNL1        0.0675
     22 C         -29.7925    0.4381   25.0097 C.ar    1  UNL1        0.0633
     23 N         -30.7122    0.2620   24.0808 N.ar    1  UNL1       -0.2478
     24 C         -31.9837    0.3033   24.2247 C.ar    1  UNL1        0.0987
     25 C         -32.6136    0.0014   25.0528 C.ar    1  UNL1        0.0272
     26 C         -31.8048    0.0150   26.4016 C.ar    1  UNL1        0.0825
     27 C         -30.4364    0.2606   26.3240 C.ar    1  UNL1        0.0216
     28 C         -32.4709   -0.1373   27.7014 C.2     1  UNL1        0.3878
     29 O         -32.6959    0.7892   28.4075 O.co2   1  UNL1       -0.2406
     30 O         -32.6716   -1.3591   28.0481 O.co2   1  UNL1       -0.2406
     31 C         -28.4537   -2.0861   29.8760 C.3     1  UNL1        0.1637
     32 C         -27.6956   -3.1809   29.9742 C.2     1  UNL1        0.1193
     33 N         -28.2061   -4.2862   30.7093 N.2     1  UNL1       -0.1495
@<TRIPOS>BOND
     1     1     2   am
     2     2     3    1
     3     3     4    1
     4     4     5    2
     5     5     6    1
     6     6     7    2
     7     7     8    1
     8     2    14    2
     9     3    15    1
    10     5    16    1
    11    15    17    1
    12    16    18    1
    13    17    18    2
    14     6    19    1
    15     7    20    1
    16    17    21    1
    17    21    22    1
    18    26    28    1
    19    28    29   ar
    20    28    30   ar
    21     1    31    1
    22    31    32    1
    23    32    33    2
    24    22    23   ar
    25    23    24   ar
    26    24    25   ar
    27    25    26   ar
    28    26    27   ar
    29    27    22   ar
    30     8     9   ar
    31     9    10   ar
    32    10    11   ar
    33    11    12   ar
    34    12    13   ar
    35    13     8   ar
