@<TRIPOS>MOLECULE
outputs/IAG933/test6/raw/output_3683_IAG933_linker_design_.xyz
 45 48 0 0 0
SMALL
GASTEIGER

@<TRIPOS>ATOM
      1 C         -24.8550   -1.0120   30.1430 C.3     1  UNL1        0.2033
      2 C         -24.9730   -2.5050   29.7880 C.2     1  UNL1        0.0217
      3 C         -23.9060   -3.1730   29.1460 C.2     1  UNL1       -0.0004
      4 C         -23.9890   -4.5490   28.8530 C.2     1  UNL1       -0.0002
      5 C         -25.1370   -5.2800   29.2050 C.2     1  UNL1       -0.0000
      6 C         -26.2320   -4.6110   29.7840 C.2     1  UNL1       -0.0002
      7 C         -26.1550   -3.2320   30.0650 C.2     1  UNL1       -0.0004
      8 C         -25.3870   -0.6790   31.5710 C.3     1  UNL1        0.1201
      9 C         -25.1890    0.7730   32.0280 C.3     1  UNL1        0.0233
     10 C         -25.3360    0.6840   33.5440 C.3     1  UNL1        0.0204
     11 C         -24.8290   -0.7150   33.9050 C.3     1  UNL1        0.0889
     12 N         -24.7580   -1.4810   32.6460 N.3     1  UNL1       -0.2150
     13 C         -25.6880    1.6140   26.4610 C.2     1  UNL1        0.1831
     14 C         -26.2500    2.9200   26.3950 C.2     1  UNL1        0.1140
     15 C         -25.6420    4.0930   27.1230 C.2     1  UNL1        0.2698
     16 N         -25.6140    5.2520   26.4490 N.am    1  UNL1       -0.1996
     17 C         -25.0260    6.4790   26.9630 C.3     1  UNL1        0.1388
     18 O         -25.1430    3.9660   28.2430 O.2     1  UNL1       -0.2682
     19 C         -27.4380    3.0910   25.6450 C.2     1  UNL1        0.1102
     20 N         -28.0750    2.0890   25.0030 N.2     1  UNL1       -0.2078
     21 C         -27.5430    0.8490   25.0790 C.2     1  UNL1        0.2568
     22 O         -28.1930   -0.2080   24.4770 O.2     1  UNL1       -0.4557
     23 C         -29.4600    0.0050   23.8660 C.3     1  UNL1        0.2426
     24 C         -30.0650   -1.3770   23.5730 C.3     1  UNL1        0.2292
     25 O         -30.7290   -1.8780   24.7210 O.3     1  UNL1       -0.2162
     26 C         -26.3540    0.5760   25.7770 C.2     1  UNL1        0.2301
     27 F         -25.8600   -0.6810   25.7950 F       1  UNL1       -0.1956
     28 O         -24.6702    3.9476   32.2259 O.3     1  UNL1       -0.1289
     29 O         -28.1209   -0.7718   28.5783 O.2     1  UNL1       -0.2279
     30 C         -27.4752    0.1060   28.9290 C.1     1  UNL1        0.1706
     31 F         -20.2777    1.1740   28.2599 F       1  UNL1       -0.2025
     32 C         -25.4780    3.5697   31.5162 C.1     1  UNL1        0.0947
     33 N         -24.4254    1.2953   27.0574 N.pl3   1  UNL1       -0.1277
     34 C         -23.6014    0.0123   28.5598 C.2     1  UNL1        0.1045
     35 C         -22.2681    0.1241   28.7216 C.2     1  UNL1        0.1237
     36 C         -21.6134    1.0535   28.0112 C.2     1  UNL1        0.1628
     37 C         -21.9600    1.8111   26.8876 C.2     1  UNL1        0.1032
     38 N         -25.2630    0.1351   29.1704 N.pl3   1  UNL1       -0.1668
     39 F         -23.1124    2.6394   25.3129 F       1  UNL1       -0.1594
     40 C         -26.6961    0.9261   29.2833 C.2     1  UNL1        0.2038
     41 N         -21.8427   -0.7087   29.5366 N.pl3   1  UNL1       -0.1255
     42 C         -26.2825    3.0108   30.6809 C.1     1  UNL1       -0.0495
     43 C         -23.2687    1.8826   26.3926 C.2     1  UNL1        0.2875
     44 C         -24.4357    0.6687   28.2038 C.2     1  UNL1        0.2877
     45 C         -27.0902    2.2515   29.8102 C.3     1  UNL1        0.1570
@<TRIPOS>BOND
     1     1    38    1
     2     2     7    1
     3     2     1    1
     4     3     2    2
     5     4     3    1
     6     4     5    2
     7     5     6    1
     8     6     7    2
     9     8     1    1
    10     8     9    1
    11     8    12    1
    12     9    10    1
    13    10    11    1
    14    12    11    1
    15    13    33    1
    16    14    13    1
    17    14    15    1
    18    15    18    2
    19    16    17    1
    20    16    15    1
    21    19    14    2
    22    20    21    2
    23    20    19    1
    24    21    26    1
    25    22    21    1
    26    23    22    1
    27    24    23    1
    28    24    25    1
    29    26    27    1
    30    26    13    2
    31    29    30    2
    32    30    40    2
    33    32    28    1
    34    33    44    1
    35    34    35    1
    36    35    41    1
    37    36    31    1
    38    36    35    2
    39    37    36    1
    40    38    40    1
    41    39    43    1
    42    40    45    1
    43    42    32    3
    44    43    37    2
    45    43    33    1
    46    44    34    2
    47    44    38    1
    48    45    42    1
