@<TRIPOS>MOLECULE
outputs/IAG933/test6/raw/output_3688_IAG933_linker_design_.xyz
 44 46 0 0 0
SMALL
GASTEIGER

@<TRIPOS>ATOM
      1 C         -24.8550   -1.0120   30.1430 C.3     1  UNL1        0.0619
      2 C         -24.9730   -2.5050   29.7880 C.2     1  UNL1       -0.0193
      3 C         -23.9060   -3.1730   29.1460 C.2     1  UNL1       -0.0042
      4 C         -23.9890   -4.5490   28.8530 C.2     1  UNL1       -0.0003
      5 C         -25.1370   -5.2800   29.2050 C.2     1  UNL1       -0.0000
      6 C         -26.2320   -4.6110   29.7840 C.2     1  UNL1       -0.0003
      7 C         -26.1550   -3.2320   30.0650 C.2     1  UNL1       -0.0042
      8 C         -25.3870   -0.6790   31.5710 C.3     1  UNL1        0.0786
      9 C         -25.1890    0.7730   32.0280 C.3     1  UNL1        0.0193
     10 C         -25.3360    0.6840   33.5440 C.3     1  UNL1        0.0202
     11 C         -24.8290   -0.7150   33.9050 C.3     1  UNL1        0.0887
     12 N         -24.7580   -1.4810   32.6460 N.3     1  UNL1       -0.2191
     13 C         -25.6880    1.6140   26.4610 C.3     1  UNL1        0.1290
     14 C         -26.2500    2.9200   26.3950 C.2     1  UNL1        0.0696
     15 C         -25.6420    4.0930   27.1230 C.2     1  UNL1        0.2637
     16 N         -25.6140    5.2520   26.4490 N.am    1  UNL1       -0.2000
     17 C         -25.0260    6.4790   26.9630 C.3     1  UNL1        0.1388
     18 O         -25.1430    3.9660   28.2430 O.2     1  UNL1       -0.2686
     19 C         -27.4380    3.0910   25.6450 C.2     1  UNL1        0.1035
     20 N         -28.0750    2.0890   25.0030 N.2     1  UNL1       -0.2118
     21 C         -27.5430    0.8490   25.0790 C.2     1  UNL1        0.2355
     22 O         -28.1930   -0.2080   24.4770 O.2     1  UNL1       -0.4585
     23 C         -29.4600    0.0050   23.8660 C.3     1  UNL1        0.2423
     24 C         -30.0650   -1.3770   23.5730 C.3     1  UNL1        0.2292
     25 O         -30.7290   -1.8780   24.7210 O.3     1  UNL1       -0.2162
     26 C         -26.3540    0.5760   25.7770 C.3     1  UNL1        0.2546
     27 F         -25.8600   -0.6810   25.7950 F       1  UNL1       -0.2254
     28 C         -26.8229    0.2530   29.0176 C.2     1  UNL1        0.2563
     29 C         -22.8289    1.9312   25.9534 C.3     1  UNL1        0.0259
     30 C         -25.3470   -0.1247   28.7930 C.3     1  UNL1        0.1424
     31 C         -30.1130    0.1643   27.2830 C.3     1  UNL1        0.1102
     32 C         -30.6716    1.5231   27.6605 C.2     1  UNL1        0.2432
     33 O         -30.1742    2.2555   28.6290 O.2     1  UNL1       -0.2733
     34 C         -33.2914    2.1785   28.9314 C.3     1  UNL1        0.1327
     35 C         -32.6043    2.7463   27.7509 C.3     1  UNL1        0.1356
     36 O         -23.0436    1.3015   29.6221 O.2     1  UNL1       -0.2868
     37 N         -24.8078    1.0224   27.6006 N.3     1  UNL1       -0.2557
     38 N         -34.4452    1.4898   28.2261 N.3     1  UNL1       -0.1294
     39 N         -31.9652    1.6512   27.0681 N.am    1  UNL1       -0.2038
     40 N         -27.8598   -0.5799   28.6147 N.am    1  UNL1       -0.2038
     41 O         -27.0330    1.3550   29.5119 O.2     1  UNL1       -0.2719
     42 C         -23.2492    1.0012   27.2002 C.3     1  UNL1        0.1237
     43 C         -22.6713    0.7328   28.6054 C.2     1  UNL1        0.2230
     44 C         -29.2996   -0.3437   28.4950 C.3     1  UNL1        0.1248
@<TRIPOS>BOND
     1     1    30    1
     2     2     7    1
     3     2     1    1
     4     3     2    2
     5     4     3    1
     6     4     5    2
     7     5     6    1
     8     6     7    2
     9     8     1    1
    10     8     9    1
    11     8    12    1
    12     9    10    1
    13    10    11    1
    14    12    11    1
    15    13    37    1
    16    14    13    1
    17    14    15    1
    18    15    18    2
    19    16    17    1
    20    16    15    1
    21    19    14    2
    22    20    21    2
    23    20    19    1
    24    21    26    1
    25    22    21    1
    26    23    22    1
    27    24    23    1
    28    24    25    1
    29    26    27    1
    30    26    13    1
    31    28    41    2
    32    30    28    1
    33    31    32    1
    34    31    44    1
    35    32    33    2
    36    35    34    1
    37    37    30    1
    38    38    34    1
    39    39    32    1
    40    39    35    1
    41    40    28    1
    42    42    29    1
    43    42    37    1
    44    42    43    1
    45    43    36    2
    46    44    40    1
