@<TRIPOS>MOLECULE
No_369-gen_results/8p0m/2024-11-27-11-27-31/
 27 28 0 0 0
SMALL
GASTEIGER

@<TRIPOS>ATOM
      1 C         -28.0162   -0.8135   28.8779 C.ar    1  UNL1        0.0228
      2 C         -28.4690   -0.7850   29.8287 C.ar    1  UNL1        0.0810
      3 C         -26.5455   -0.8762   28.8500 C.ar    1  UNL1        0.0684
      4 C         -25.8974   -0.8267   29.8894 C.ar    1  UNL1       -0.0069
      5 C         -26.4945   -0.7976   31.1740 C.ar    1  UNL1       -0.0028
      6 C         -27.8589   -0.7585   31.1651 C.ar    1  UNL1        0.0063
      7 C         -24.3633   -0.8582   29.9307 C.3     1  UNL1        0.0277
      8 C         -23.7449    0.4534   29.9553 C.3     1  UNL1        0.0052
      9 C         -23.3689    1.0344   28.7772 C.3     1  UNL1        0.0116
     10 C         -23.9958    2.1466   28.1657 C.3     1  UNL1        0.1040
     11 C         -24.8686    2.8570   28.8526 C.3     1  UNL1        0.0225
     12 C         -25.0770    2.5012   30.2591 C.3     1  UNL1        0.1040
     13 C         -24.9082    1.4087   30.6311 C.3     1  UNL1        0.0116
     14 C         -23.5826    2.5252   26.8139 C.2     1  UNL1        0.3643
     15 N         -25.8656   -0.8574   27.5625 N.pl3   1  UNL1       -0.1924
     16 O         -22.7281    1.8065   26.2437 O.co2   1  UNL1       -0.2457
     17 O         -24.3326    3.3983   26.1385 O.co2   1  UNL1       -0.2457
     18 C         -22.5655    0.5087   30.9986 C.3     1  UNL1        0.0004
     19 C         -26.0884    3.4691   30.9308 C.2     1  UNL1        0.3643
     20 O         -26.6390    4.2611   30.5540 O.co2   1  UNL1       -0.2457
     21 O         -26.1651    3.0992   32.2402 O.co2   1  UNL1       -0.2457
     22 C         -30.0772   -0.7378   29.9421 C.2     1  UNL1        0.3878
     23 O         -30.6673    0.2288   30.6253 O.co2   1  UNL1       -0.2406
     24 O         -30.7086   -1.4830   29.2740 O.co2   1  UNL1       -0.2406
     25 C         -26.1592   -0.1383   26.4681 C.2     1  UNL1        0.1809
     26 N         -26.8941    0.8453   26.2554 N.2     1  UNL1       -0.2503
     27 C         -27.0407    1.4603   25.0937 C.3     1  UNL1        0.1533
@<TRIPOS>BOND
     1     4     7    1
     2     7     8    1
     3     8     9    1
     4     9    10    1
     5    10    11    1
     6     8    13    1
     7    12    13    1
     8    10    14    1
     9     3    15    1
    10    14    16   ar
    11    14    17   ar
    12     8    18    1
    13    12    19    1
    14    19    20   ar
    15    19    21   ar
    16     2    22    1
    17    22    23   ar
    18    22    24   ar
    19    15    25    1
    20    25    26    2
    21    26    27    1
    22    11    12    1
    23     1     2   ar
    24     2     6   ar
    25     6     5   ar
    26     5     4   ar
    27     4     3   ar
    28     3     1   ar
