@<TRIPOS>MOLECULE
No_3692-gen_results/8p0m/2024-11-27-11-27-31/
 10 10 0 0 0
SMALL
GASTEIGER

@<TRIPOS>ATOM
      1 C         -28.0162   -0.8135   28.8779 C.ar    1  UNL1        0.0000
      2 C         -27.0636   -0.1189   28.6079 C.ar    1  UNL1        0.0001
      3 C         -25.7647   -0.3897   29.0360 C.ar    1  UNL1        0.0046
      4 C         -25.5296   -1.5302   29.9014 C.ar    1  UNL1        0.0001
      5 C         -26.6577   -2.2915   30.2035 C.ar    1  UNL1        0.0000
      6 C         -27.8548   -1.9555   29.7630 C.ar    1  UNL1        0.0000
      7 C         -24.5349    0.4128   28.7431 C.2     1  UNL1        0.0603
      8 C         -24.0543    1.3255   29.5757 C.2     1  UNL1        0.2788
      9 F         -24.5360    1.6219   30.6931 F       1  UNL1       -0.1720
     10 F         -22.7296    1.0946   29.9455 F       1  UNL1       -0.1720
@<TRIPOS>BOND
     1     3     7    1
     2     7     8    2
     3     8     9    1
     4     8    10    1
     5     1     2   ar
     6     2     3   ar
     7     3     4   ar
     8     4     5   ar
     9     5     6   ar
    10     6     1   ar
