@<TRIPOS>MOLECULE
outputs/IAG933/test6/raw/output_3695_IAG933_linker_design_.xyz
 42 46 0 0 0
SMALL
GASTEIGER

@<TRIPOS>ATOM
      1 C         -24.8550   -1.0120   30.1430 C.3     1  UNL1        0.1115
      2 C         -24.9730   -2.5050   29.7880 C.2     1  UNL1       -0.0030
      3 C         -23.9060   -3.1730   29.1460 C.2     1  UNL1       -0.0026
      4 C         -23.9890   -4.5490   28.8530 C.2     1  UNL1       -0.0003
      5 C         -25.1370   -5.2800   29.2050 C.2     1  UNL1       -0.0000
      6 C         -26.2320   -4.6110   29.7840 C.2     1  UNL1       -0.0003
      7 C         -26.1550   -3.2320   30.0650 C.2     1  UNL1       -0.0026
      8 C         -25.3870   -0.6790   31.5710 C.3     1  UNL1        0.0950
      9 C         -25.1890    0.7730   32.0280 C.3     1  UNL1        0.0209
     10 C         -25.3360    0.6840   33.5440 C.3     1  UNL1        0.0203
     11 C         -24.8290   -0.7150   33.9050 C.3     1  UNL1        0.0888
     12 N         -24.7580   -1.4810   32.6460 N.3     1  UNL1       -0.2174
     13 C         -25.6880    1.6140   26.4610 C.2     1  UNL1        0.0393
     14 C         -26.2500    2.9200   26.3950 C.2     1  UNL1        0.0766
     15 C         -25.6420    4.0930   27.1230 C.2     1  UNL1        0.2664
     16 N         -25.6140    5.2520   26.4490 N.am    1  UNL1       -0.1997
     17 C         -25.0260    6.4790   26.9630 C.3     1  UNL1        0.1388
     18 O         -25.1430    3.9660   28.2430 O.2     1  UNL1       -0.2683
     19 C         -27.4380    3.0910   25.6450 C.2     1  UNL1        0.1067
     20 N         -28.0750    2.0890   25.0030 N.2     1  UNL1       -0.2081
     21 C         -27.5430    0.8490   25.0790 C.2     1  UNL1        0.2533
     22 O         -28.1930   -0.2080   24.4770 O.2     1  UNL1       -0.4558
     23 C         -29.4600    0.0050   23.8660 C.3     1  UNL1        0.2426
     24 C         -30.0650   -1.3770   23.5730 C.3     1  UNL1        0.2292
     25 O         -30.7290   -1.8780   24.7210 O.3     1  UNL1       -0.2162
     26 C         -26.3540    0.5760   25.7770 C.2     1  UNL1        0.1931
     27 F         -25.8600   -0.6810   25.7950 F       1  UNL1       -0.1992
     28 C         -28.3842   -0.5554   28.3813 C.2     1  UNL1       -0.0026
     29 C         -23.3186    1.8540   26.0672 C.2     1  UNL1        0.0013
     30 C         -21.9875    1.8684   26.4964 C.2     1  UNL1       -0.0002
     31 C         -24.0910    0.6355   28.0932 C.2     1  UNL1        0.0443
     32 C         -29.6675   -0.0824   28.5217 C.2     1  UNL1       -0.0003
     33 N         -24.9899   -0.0517   28.9345 N.pl3   1  UNL1       -0.3003
     34 C         -22.3227    0.0791   29.7398 C.3     1  UNL1        0.0323
     35 C         -21.7066    1.2594   27.7258 C.2     1  UNL1       -0.0030
     36 C         -28.9192    1.9636   29.5502 C.2     1  UNL1       -0.0003
     37 C         -24.3448    1.3738   26.9083 C.2     1  UNL1        0.0155
     38 C         -27.4264    0.3438   28.8028 C.2     1  UNL1       -0.0024
     39 C         -26.1180    0.0385   28.8948 C.3     1  UNL1        0.1179
     40 C         -27.6070    1.5757   29.3573 C.2     1  UNL1       -0.0026
     41 C         -29.9446    1.1275   29.1466 C.2     1  UNL1       -0.0000
     42 C         -22.7594    0.6640   28.4506 C.2     1  UNL1       -0.0085
@<TRIPOS>BOND
     1     1    33    1
     2     2     7    1
     3     2     1    1
     4     3     2    2
     5     4     3    1
     6     4     5    2
     7     5     6    1
     8     6     7    2
     9     8     1    1
    10     8     9    1
    11     8    12    1
    12     9    10    1
    13    10    11    1
    14    12    11    1
    15    13    37    1
    16    14    13    1
    17    14    15    1
    18    15    18    2
    19    16    17    1
    20    16    15    1
    21    19    14    2
    22    20    21    2
    23    20    19    1
    24    21    26    1
    25    22    21    1
    26    23    22    1
    27    24    23    1
    28    24    25    1
    29    26    27    1
    30    26    13    2
    31    28    32    2
    32    28    38    1
    33    29    30    2
    34    29    37    1
    35    30    35    1
    36    31    42    1
    37    31    33    1
    38    32    41    1
    39    35    42    2
    40    37    31    2
    41    38    39    1
    42    38    40    2
    43    39    33    1
    44    40    36    1
    45    41    36    2
    46    42    34    1
