@<TRIPOS>MOLECULE
outputs/IAG933/test6/raw/output_3697_IAG933_linker_design_.xyz
 46 49 0 0 0
SMALL
GASTEIGER

@<TRIPOS>ATOM
      1 C         -24.8550   -1.0120   30.1430 C.3     1  UNL1        0.0586
      2 C         -24.9730   -2.5050   29.7880 C.2     1  UNL1       -0.0195
      3 C         -23.9060   -3.1730   29.1460 C.2     1  UNL1       -0.0042
      4 C         -23.9890   -4.5490   28.8530 C.2     1  UNL1       -0.0003
      5 C         -25.1370   -5.2800   29.2050 C.2     1  UNL1       -0.0000
      6 C         -26.2320   -4.6110   29.7840 C.2     1  UNL1       -0.0003
      7 C         -26.1550   -3.2320   30.0650 C.2     1  UNL1       -0.0042
      8 C         -25.3870   -0.6790   31.5710 C.3     1  UNL1        0.0785
      9 C         -25.1890    0.7730   32.0280 C.3     1  UNL1        0.0192
     10 C         -25.3360    0.6840   33.5440 C.3     1  UNL1        0.0202
     11 C         -24.8290   -0.7150   33.9050 C.3     1  UNL1        0.0887
     12 N         -24.7580   -1.4810   32.6460 N.3     1  UNL1       -0.2191
     13 C         -25.6880    1.6140   26.4610 C.3     1  UNL1        0.0920
     14 C         -26.2500    2.9200   26.3950 C.2     1  UNL1        0.0589
     15 C         -25.6420    4.0930   27.1230 C.2     1  UNL1        0.2628
     16 N         -25.6140    5.2520   26.4490 N.am    1  UNL1       -0.2000
     17 C         -25.0260    6.4790   26.9630 C.3     1  UNL1        0.1388
     18 O         -25.1430    3.9660   28.2430 O.2     1  UNL1       -0.2686
     19 C         -27.4380    3.0910   25.6450 C.2     1  UNL1        0.1025
     20 N         -28.0750    2.0890   25.0030 N.2     1  UNL1       -0.2118
     21 C         -27.5430    0.8490   25.0790 C.2     1  UNL1        0.2344
     22 O         -28.1930   -0.2080   24.4770 O.2     1  UNL1       -0.4585
     23 C         -29.4600    0.0050   23.8660 C.3     1  UNL1        0.2423
     24 C         -30.0650   -1.3770   23.5730 C.3     1  UNL1        0.2292
     25 O         -30.7290   -1.8780   24.7210 O.3     1  UNL1       -0.2162
     26 C         -26.3540    0.5760   25.7770 C.3     1  UNL1        0.2440
     27 F         -25.8600   -0.6810   25.7950 F       1  UNL1       -0.2265
     28 C         -24.2442    1.5857   26.3933 C.2     1  UNL1       -0.0137
     29 C         -24.9467   -0.1844   28.8433 C.3     1  UNL1        0.1048
     30 C         -23.7588    2.0180   25.1111 C.2     1  UNL1        0.0359
     31 C         -28.5909    3.5964   29.9674 C.3     1  UNL1        0.0353
     32 C         -28.1945    0.7382   30.3549 C.3     1  UNL1        0.0894
     33 C         -29.5373    1.1145   29.9165 C.3     1  UNL1        0.0392
     34 C         -21.9869    1.6712   27.1355 C.3     1  UNL1        0.3470
     35 C         -30.9954    3.3711   29.7688 C.3     1  UNL1        0.0353
     36 C         -27.4695   -0.1500   29.3467 C.2     1  UNL1        0.2414
     37 C         -23.6979    0.5662   28.6441 C.3     1  UNL1        0.0502
     38 C         -23.2815    1.2648   27.3749 C.2     1  UNL1        0.0280
     39 F         -29.8569    2.5572   31.7175 F       1  UNL1       -0.2400
     40 N         -26.3351    0.4016   28.8541 N.am    1  UNL1       -0.2065
     41 C         -29.7564    2.6322   30.3456 C.3     1  UNL1        0.1344
     42 O         -28.0232   -1.1719   29.0609 O.2     1  UNL1       -0.2733
     43 C         -22.4263    2.2248   24.9283 C.2     1  UNL1        0.1753
     44 C         -30.1297    0.8550   28.5274 C.3     1  UNL1        0.0032
     45 O         -21.5845    2.1315   25.9500 O.2     1  UNL1       -0.4431
     46 F         -21.0839    1.6089   28.0827 F       1  UNL1       -0.1837
@<TRIPOS>BOND
     1     1    29    1
     2     2     7    1
     3     2     1    1
     4     3     2    2
     5     4     3    1
     6     4     5    2
     7     5     6    1
     8     6     7    2
     9     8     1    1
    10     8     9    1
    11     8    12    1
    12     9    10    1
    13    10    11    1
    14    12    11    1
    15    13    28    1
    16    14    13    1
    17    14    15    1
    18    15    18    2
    19    16    17    1
    20    16    15    1
    21    19    14    2
    22    20    21    2
    23    20    19    1
    24    21    26    1
    25    22    21    1
    26    23    22    1
    27    24    23    1
    28    24    25    1
    29    26    27    1
    30    26    13    1
    31    28    38    2
    32    29    37    1
    33    29    40    1
    34    30    28    1
    35    31    41    1
    36    33    44    1
    37    33    41    1
    38    33    32    1
    39    34    38    1
    40    34    46    1
    41    35    41    1
    42    36    32    1
    43    38    37    1
    44    40    36    1
    45    41    39    1
    46    42    36    2
    47    43    30    2
    48    43    45    1
    49    45    34    1
