@<TRIPOS>MOLECULE
No_3699-gen_results/8p0m/2024-11-27-11-27-31/
 12 12 0 0 0
SMALL
GASTEIGER

@<TRIPOS>ATOM
      1 C         -28.0162   -0.8135   28.8779 C.ar    1  UNL1       -0.0043
      2 C         -28.4690   -0.7850   29.8287 C.ar    1  UNL1       -0.0003
      3 C         -27.1356    0.2359   28.5352 C.ar    1  UNL1       -0.0222
      4 C         -26.8050    1.0509   29.2763 C.ar    1  UNL1       -0.0043
      5 C         -28.2372    0.1503   30.9300 C.ar    1  UNL1       -0.0000
      6 C         -27.3522    1.1239   30.6071 C.ar    1  UNL1       -0.0003
      7 C         -26.4705    0.1962   27.1308 C.3     1  UNL1        0.0267
      8 C         -25.0393    0.1871   27.1090 C.3     1  UNL1        0.0050
      9 C         -27.1793    0.3412   25.9392 C.3     1  UNL1        0.0300
     10 C         -28.5297    0.4415   25.9272 C.2     1  UNL1       -0.0304
     11 C         -29.1225    0.4562   24.6435 C.2     1  UNL1       -0.0303
     12 C         -28.3319    0.3602   23.5267 C.3     1  UNL1        0.0303
@<TRIPOS>BOND
     1     3     7    1
     2     7     8    1
     3     7     9    1
     4     9    10    1
     5    10    11    2
     6    11    12    1
     7     1     2   ar
     8     2     5   ar
     9     5     6   ar
    10     6     4   ar
    11     4     3   ar
    12     3     1   ar
