@<TRIPOS>MOLECULE
outputs/IAG933/test6/raw/output_370_IAG933_linker_design_.xyz
 42 46 0 0 0
SMALL
GASTEIGER

@<TRIPOS>ATOM
      1 C         -24.8550   -1.0120   30.1430 C.3     1  UNL1        0.1163
      2 C         -24.9730   -2.5050   29.7880 C.2     1  UNL1       -0.0125
      3 C         -23.9060   -3.1730   29.1460 C.2     1  UNL1       -0.0038
      4 C         -23.9890   -4.5490   28.8530 C.2     1  UNL1       -0.0003
      5 C         -25.1370   -5.2800   29.2050 C.2     1  UNL1       -0.0000
      6 C         -26.2320   -4.6110   29.7840 C.2     1  UNL1       -0.0003
      7 C         -26.1550   -3.2320   30.0650 C.2     1  UNL1       -0.0038
      8 C         -25.3870   -0.6790   31.5710 C.3     1  UNL1        0.0855
      9 C         -25.1890    0.7730   32.0280 C.3     1  UNL1        0.0197
     10 C         -25.3360    0.6840   33.5440 C.3     1  UNL1        0.0203
     11 C         -24.8290   -0.7150   33.9050 C.3     1  UNL1        0.0887
     12 N         -24.7580   -1.4810   32.6460 N.3     1  UNL1       -0.2186
     13 C         -25.6880    1.6140   26.4610 C.2     1  UNL1        0.0360
     14 C         -26.2500    2.9200   26.3950 C.2     1  UNL1        0.0742
     15 C         -25.6420    4.0930   27.1230 C.2     1  UNL1        0.2662
     16 N         -25.6140    5.2520   26.4490 N.am    1  UNL1       -0.1997
     17 C         -25.0260    6.4790   26.9630 C.3     1  UNL1        0.1388
     18 O         -25.1430    3.9660   28.2430 O.2     1  UNL1       -0.2683
     19 C         -27.4380    3.0910   25.6450 C.2     1  UNL1        0.1065
     20 N         -28.0750    2.0890   25.0030 N.2     1  UNL1       -0.2081
     21 C         -27.5430    0.8490   25.0790 C.2     1  UNL1        0.2530
     22 O         -28.1930   -0.2080   24.4770 O.2     1  UNL1       -0.4558
     23 C         -29.4600    0.0050   23.8660 C.3     1  UNL1        0.2426
     24 C         -30.0650   -1.3770   23.5730 C.3     1  UNL1        0.2292
     25 O         -30.7290   -1.8780   24.7210 O.3     1  UNL1       -0.2162
     26 C         -26.3540    0.5760   25.7770 C.2     1  UNL1        0.1907
     27 F         -25.8600   -0.6810   25.7950 F       1  UNL1       -0.1995
     28 O         -26.9067   -0.5792   28.9960 O.2     1  UNL1       -0.2729
     29 N         -25.2079    0.7149   28.4318 N.am    1  UNL1       -0.2018
     30 C         -25.7607   -0.2767   29.1502 C.2     1  UNL1        0.2466
     31 C         -22.4816    0.0637   28.9513 C.3     1  UNL1        0.1477
     32 C         -22.4969    1.4879   28.0387 C.3     1  UNL1        0.0710
     33 C         -23.5883    1.7835   27.3504 C.3     1  UNL1        0.1202
     34 O         -20.2483    1.2613   27.8734 O.3     1  UNL1       -0.3510
     35 C         -23.4006    2.2604   25.9190 C.2     1  UNL1        0.3123
     36 O         -22.3086   -0.3580   29.6762 O.3     1  UNL1       -0.3510
     37 C         -20.2204   -0.0701   28.4604 C.3     1  UNL1        0.1740
     38 C         -21.3296    1.7462   27.4896 C.3     1  UNL1        0.1453
     39 F         -23.0508    1.3672   25.0514 F       1  UNL1       -0.1636
     40 C         -24.8078    1.3203   27.1600 C.3     1  UNL1        0.1297
     41 O         -23.2359    3.4549   25.7775 O.2     1  UNL1       -0.2590
     42 C         -21.6227   -0.5104   28.9932 C.3     1  UNL1        0.1717
@<TRIPOS>BOND
     1     1    30    1
     2     2     7    1
     3     2     1    1
     4     3     2    2
     5     4     3    1
     6     4     5    2
     7     5     6    1
     8     6     7    2
     9     8     1    1
    10     8     9    1
    11     8    12    1
    12     9    10    1
    13    10    11    1
    14    12    11    1
    15    13    40    1
    16    14    13    1
    17    14    15    1
    18    15    18    2
    19    16    17    1
    20    16    15    1
    21    19    14    2
    22    20    21    2
    23    20    19    1
    24    21    26    1
    25    22    21    1
    26    23    22    1
    27    24    23    1
    28    24    25    1
    29    26    27    1
    30    26    13    2
    31    28    30    2
    32    29    30    1
    33    31    42    1
    34    31    36    1
    35    32    33    1
    36    32    31    1
    37    33    35    1
    38    34    37    1
    39    38    34    1
    40    38    32    1
    41    39    35    1
    42    40    33    1
    43    40    29    1
    44    41    35    2
    45    42    37    1
    46    42    36    1
