@<TRIPOS>MOLECULE
No_3701-gen_results/8p0m/2024-11-27-11-27-31/
 13 14 0 0 0
SMALL
GASTEIGER

@<TRIPOS>ATOM
      1 C         -28.0162   -0.8135   28.8779 C.ar    1  UNL1       -0.0003
      2 C         -28.4690   -0.7850   29.8287 C.ar    1  UNL1       -0.0000
      3 C         -26.5042   -0.7777   28.8766 C.ar    1  UNL1       -0.0043
      4 C         -25.8103   -0.8531   30.1028 C.ar    1  UNL1       -0.0228
      5 C         -27.9906   -0.8916   31.2257 C.ar    1  UNL1       -0.0003
      6 C         -24.3976   -0.8364   30.1775 C.3     1  UNL1        0.0189
      7 C         -26.5754   -0.8899   31.2661 C.ar    1  UNL1       -0.0043
      8 C         -23.7964    0.4357   29.9090 C.3     1  UNL1        0.0040
      9 C         -22.4944    0.4757   29.3632 C.3     1  UNL1        0.0003
     10 C         -21.7757   -0.7201   29.1864 C.3     1  UNL1        0.0000
     11 C         -23.7016   -1.8641   29.2768 C.3     1  UNL1        0.0040
     12 C         -22.3273   -1.8527   29.1411 C.3     1  UNL1        0.0003
     13 C         -23.8755   -1.2363   31.6870 C.3     1  UNL1        0.0044
@<TRIPOS>BOND
     1     4     6    1
     2     6     8    1
     3     9    10    1
     4     6    11    1
     5    11    12    1
     6     6    13    1
     7     8     9    1
     8    10    12    1
     9     1     2   ar
    10     2     5   ar
    11     5     7   ar
    12     7     4   ar
    13     4     3   ar
    14     3     1   ar
