@<TRIPOS>MOLECULE
No_3706-gen_results/8p0m/2024-11-27-11-27-31/
 20 20 0 0 0
SMALL
GASTEIGER

@<TRIPOS>ATOM
      1 C         -28.0162   -0.8135   28.8779 C.ar    1  UNL1        0.0552
      2 C         -27.0636   -0.1189   28.6079 C.ar    1  UNL1        0.0046
      3 C         -26.9716    0.7139   27.5060 C.ar    1  UNL1        0.0004
      4 C         -28.1053    0.7744   26.6421 C.ar    1  UNL1        0.0066
      5 C         -29.2008    0.1044   27.0527 C.ar    1  UNL1        0.0799
      6 C         -28.0219   -1.5899   30.0879 C.2     1  UNL1        0.2648
      7 C         -29.1640   -0.6394   28.1484 C.ar    1  UNL1        0.0111
      8 N         -28.8376   -1.8977   30.7662 N.am    1  UNL1       -0.2013
      9 O         -26.7856   -1.9477   30.5474 O.2     1  UNL1       -0.2684
     10 C         -28.8380   -2.8804   31.8973 C.3     1  UNL1        0.1201
     11 C         -30.3883    0.2139   26.1798 C.2     1  UNL1        0.3878
     12 O         -30.4197    0.2955   24.9970 O.co2   1  UNL1       -0.2406
     13 O         -31.5758    0.0487   26.7758 O.co2   1  UNL1       -0.2406
     14 C         -30.1493   -3.5932   32.1171 C.3     1  UNL1        0.0495
     15 C         -31.0188   -3.0886   32.4264 C.2     1  UNL1       -0.0243
     16 C         -31.8743   -2.5717   31.8069 C.2     1  UNL1       -0.0045
     17 C         -33.1057   -1.8319   32.2429 C.2     1  UNL1       -0.0003
     18 C         -33.9659   -1.1772   31.3758 C.2     1  UNL1       -0.0000
     19 C         -33.6469   -1.2119   29.9874 C.2     1  UNL1       -0.0000
     20 C         -32.5204   -1.8644   29.5077 C.2     1  UNL1       -0.0000
@<TRIPOS>BOND
     1     1     6    1
     2     6     8   am
     3     6     9    2
     4     8    10    1
     5     5    11    1
     6    11    12   ar
     7    11    13   ar
     8    10    14    1
     9    14    15    1
    10    15    16    2
    11    16    17    1
    12    17    18    2
    13    18    19    1
    14    19    20    2
    15     1     2   ar
    16     2     3   ar
    17     3     4   ar
    18     4     5   ar
    19     5     7   ar
    20     7     1   ar
