@<TRIPOS>MOLECULE
outputs/IAG933/test6/raw/output_3707_IAG933_linker_design_.xyz
 43 47 0 0 0
SMALL
GASTEIGER

@<TRIPOS>ATOM
      1 C         -24.8550   -1.0120   30.1430 C.3     1  UNL1        0.0640
      2 C         -24.9730   -2.5050   29.7880 C.2     1  UNL1       -0.0191
      3 C         -23.9060   -3.1730   29.1460 C.2     1  UNL1       -0.0042
      4 C         -23.9890   -4.5490   28.8530 C.2     1  UNL1       -0.0003
      5 C         -25.1370   -5.2800   29.2050 C.2     1  UNL1       -0.0000
      6 C         -26.2320   -4.6110   29.7840 C.2     1  UNL1       -0.0003
      7 C         -26.1550   -3.2320   30.0650 C.2     1  UNL1       -0.0042
      8 C         -25.3870   -0.6790   31.5710 C.3     1  UNL1        0.0789
      9 C         -25.1890    0.7730   32.0280 C.3     1  UNL1        0.0193
     10 C         -25.3360    0.6840   33.5440 C.3     1  UNL1        0.0202
     11 C         -24.8290   -0.7150   33.9050 C.3     1  UNL1        0.0887
     12 N         -24.7580   -1.4810   32.6460 N.3     1  UNL1       -0.2191
     13 C         -25.6880    1.6140   26.4610 C.2     1  UNL1        0.0399
     14 C         -26.2500    2.9200   26.3950 C.2     1  UNL1        0.0766
     15 C         -25.6420    4.0930   27.1230 C.2     1  UNL1        0.2664
     16 N         -25.6140    5.2520   26.4490 N.am    1  UNL1       -0.1997
     17 C         -25.0260    6.4790   26.9630 C.3     1  UNL1        0.1388
     18 O         -25.1430    3.9660   28.2430 O.2     1  UNL1       -0.2683
     19 C         -27.4380    3.0910   25.6450 C.2     1  UNL1        0.1067
     20 N         -28.0750    2.0890   25.0030 N.2     1  UNL1       -0.2081
     21 C         -27.5430    0.8490   25.0790 C.2     1  UNL1        0.2533
     22 O         -28.1930   -0.2080   24.4770 O.2     1  UNL1       -0.4558
     23 C         -29.4600    0.0050   23.8660 C.3     1  UNL1        0.2426
     24 C         -30.0650   -1.3770   23.5730 C.3     1  UNL1        0.2292
     25 O         -30.7290   -1.8780   24.7210 O.3     1  UNL1       -0.2162
     26 C         -26.3540    0.5760   25.7770 C.2     1  UNL1        0.1931
     27 F         -25.8600   -0.6810   25.7950 F       1  UNL1       -0.1992
     28 C         -25.3569   -0.0185   29.1100 C.3     1  UNL1        0.1400
     29 C         -23.3453    1.6822   26.7692 C.2     1  UNL1        0.0922
     30 C         -28.8980    2.2928   29.1421 C.3     1  UNL1        0.0091
     31 N         -23.0916    0.6601   28.6166 N.2     1  UNL1       -0.2369
     32 F         -21.1730    1.7186   27.7331 F       1  UNL1       -0.2042
     33 O         -27.9444   -1.3089   29.1991 O.2     1  UNL1       -0.2733
     34 C         -27.7830   -0.0366   29.2016 C.2     1  UNL1        0.2412
     35 C         -22.4835    1.2939   27.7035 C.3     1  UNL1        0.2969
     36 C         -30.0412    2.8348   28.2952 C.3     1  UNL1        0.0005
     37 C         -24.5289    1.2980   27.1593 C.2     1  UNL1        0.0285
     38 C         -30.3247    1.7133   27.3279 C.3     1  UNL1        0.0005
     39 N         -26.6123    0.5186   29.2267 N.am    1  UNL1       -0.2007
     40 C         -24.3897    0.5935   28.3256 C.2     1  UNL1        0.0777
     41 CL        -22.9107    2.4482   25.3447 Cl      1  UNL1       -0.0820
     42 C         -29.8488    0.3979   27.8363 C.3     1  UNL1        0.0091
     43 C         -28.9781    0.7586   29.0465 C.3     1  UNL1        0.0782
@<TRIPOS>BOND
     1     1    28    1
     2     2     7    1
     3     2     1    1
     4     3     2    2
     5     4     3    1
     6     4     5    2
     7     5     6    1
     8     6     7    2
     9     8     1    1
    10     8     9    1
    11     8    12    1
    12     9    10    1
    13    10    11    1
    14    12    11    1
    15    13    37    1
    16    14    13    1
    17    14    15    1
    18    15    18    2
    19    16    17    1
    20    16    15    1
    21    19    14    2
    22    20    21    2
    23    20    19    1
    24    21    26    1
    25    22    21    1
    26    23    22    1
    27    24    23    1
    28    24    25    1
    29    26    27    1
    30    26    13    2
    31    28    39    1
    32    29    37    2
    33    29    35    1
    34    33    34    2
    35    34    39    1
    36    35    32    1
    37    35    31    1
    38    36    30    1
    39    37    40    1
    40    38    42    1
    41    38    36    1
    42    40    31    2
    43    40    28    1
    44    41    29    1
    45    42    43    1
    46    43    30    1
    47    43    34    1
