@<TRIPOS>MOLECULE
No_3709-gen_results/8p0m/2024-11-27-11-27-31/
 12 12 0 0 0
SMALL
GASTEIGER

@<TRIPOS>ATOM
      1 C         -28.0162   -0.8135   28.8779 C.ar    1  UNL1        0.0066
      2 C         -27.0636   -0.1189   28.6079 C.ar    1  UNL1       -0.0001
      3 C         -26.9287    1.1713   29.0083 C.ar    1  UNL1       -0.0000
      4 C         -27.9560    1.7411   29.7840 C.ar    1  UNL1        0.0002
      5 C         -29.0569   -0.3271   29.7466 C.ar    1  UNL1        0.0798
      6 C         -30.1704   -1.1582   30.1327 C.2     1  UNL1        0.3878
      7 C         -28.9772    0.9577   30.1786 C.ar    1  UNL1        0.0066
      8 O         -30.0265   -2.3585   30.3247 O.co2   1  UNL1       -0.2406
      9 O         -31.3614   -0.6885   30.2973 O.co2   1  UNL1       -0.2406
     10 C         -25.8664   -0.6062   27.7743 C.2     1  UNL1       -0.0046
     11 C         -25.0689    0.2534   27.0285 C.2     1  UNL1       -0.0258
     12 C         -25.0603    1.5998   27.4055 C.3     1  UNL1        0.0307
@<TRIPOS>BOND
     1     5     6    1
     2     6     8   ar
     3     6     9   ar
     4     2    10    1
     5    10    11    2
     6    11    12    1
     7     1     2   ar
     8     2     3   ar
     9     3     4   ar
    10     4     7   ar
    11     7     5   ar
    12     5     1   ar
