@<TRIPOS>MOLECULE
outputs/IAG933/test6/raw/output_371_IAG933_linker_design_.xyz
 39 42 0 0 0
SMALL
GASTEIGER

@<TRIPOS>ATOM
      1 C         -24.8550   -1.0120   30.1430 C.3     1  UNL1        0.2058
      2 C         -24.9730   -2.5050   29.7880 C.2     1  UNL1        0.0218
      3 C         -23.9060   -3.1730   29.1460 C.2     1  UNL1       -0.0004
      4 C         -23.9890   -4.5490   28.8530 C.2     1  UNL1       -0.0002
      5 C         -25.1370   -5.2800   29.2050 C.2     1  UNL1       -0.0000
      6 C         -26.2320   -4.6110   29.7840 C.2     1  UNL1       -0.0002
      7 C         -26.1550   -3.2320   30.0650 C.2     1  UNL1       -0.0004
      8 C         -25.3870   -0.6790   31.5710 C.3     1  UNL1        0.1202
      9 C         -25.1890    0.7730   32.0280 C.3     1  UNL1        0.0233
     10 C         -25.3360    0.6840   33.5440 C.3     1  UNL1        0.0204
     11 C         -24.8290   -0.7150   33.9050 C.3     1  UNL1        0.0889
     12 N         -24.7580   -1.4810   32.6460 N.3     1  UNL1       -0.2150
     13 C         -25.6880    1.6140   26.4610 C.2     1  UNL1        0.0337
     14 C         -26.2500    2.9200   26.3950 C.2     1  UNL1        0.0735
     15 C         -25.6420    4.0930   27.1230 C.2     1  UNL1        0.2661
     16 N         -25.6140    5.2520   26.4490 N.am    1  UNL1       -0.1997
     17 C         -25.0260    6.4790   26.9630 C.3     1  UNL1        0.1388
     18 O         -25.1430    3.9660   28.2430 O.2     1  UNL1       -0.2683
     19 C         -27.4380    3.0910   25.6450 C.2     1  UNL1        0.1064
     20 N         -28.0750    2.0890   25.0030 N.2     1  UNL1       -0.2081
     21 C         -27.5430    0.8490   25.0790 C.2     1  UNL1        0.2530
     22 O         -28.1930   -0.2080   24.4770 O.2     1  UNL1       -0.4558
     23 C         -29.4600    0.0050   23.8660 C.3     1  UNL1        0.2426
     24 C         -30.0650   -1.3770   23.5730 C.3     1  UNL1        0.2292
     25 O         -30.7290   -1.8780   24.7210 O.3     1  UNL1       -0.2162
     26 C         -26.3540    0.5760   25.7770 C.2     1  UNL1        0.1901
     27 F         -25.8600   -0.6810   25.7950 F       1  UNL1       -0.1996
     28 O         -20.6730    0.0953   28.3849 O.3     1  UNL1       -0.2063
     29 C         -22.8030   -0.0715   29.2577 C.2     1  UNL1        0.3926
     30 F         -21.1527    1.6702   26.3631 F       1  UNL1       -0.2258
     31 C         -23.4783    1.8864   26.5766 C.2     1  UNL1        0.2010
     32 C         -21.9236    0.4906   28.2437 C.3     1  UNL1        0.3006
     33 C         -22.2536    1.4878   27.1069 C.3     1  UNL1        0.2607
     34 O         -26.2174    0.6590   28.7460 O.2     1  UNL1       -0.2459
     35 N         -22.1501   -0.4717   30.2884 N.2     1  UNL1        0.1914
     36 O         -23.4744    2.6736   25.5815 O.2     1  UNL1       -0.2922
     37 N         -24.1479   -0.1952   29.2143 N.am    1  UNL1       -0.1366
     38 C         -24.9569    0.5102   28.3488 C.2     1  UNL1        0.3243
     39 C         -24.5181    1.3774   27.2113 C.3     1  UNL1        0.1865
@<TRIPOS>BOND
     1     1     2    1
     2     2     7    1
     3     3     2    2
     4     4     3    1
     5     4     5    2
     6     5     6    1
     7     6     7    2
     8     8     1    1
     9     8     9    1
    10     8    12    1
    11     9    10    1
    12    10    11    1
    13    12    11    1
    14    14    13    1
    15    14    15    1
    16    15    18    2
    17    16    17    1
    18    16    15    1
    19    19    14    2
    20    20    21    2
    21    20    19    1
    22    21    26    1
    23    22    21    1
    24    23    22    1
    25    24    23    1
    26    24    25    1
    27    26    27    1
    28    26    13    2
    29    29    35    2
    30    31    33    1
    31    31    39    1
    32    32    28    1
    33    32    29    1
    34    33    30    1
    35    33    32    1
    36    36    31    2
    37    37    29    1
    38    37     1    1
    39    38    34    2
    40    38    37   am
    41    39    13    1
    42    39    38    1
