@<TRIPOS>MOLECULE
outputs/IAG933/test6/raw/output_3710_IAG933_linker_design_.xyz
 46 49 0 0 0
SMALL
GASTEIGER

@<TRIPOS>ATOM
      1 C         -24.8550   -1.0120   30.1430 C.3     1  UNL1        0.0619
      2 C         -24.9730   -2.5050   29.7880 C.2     1  UNL1       -0.0193
      3 C         -23.9060   -3.1730   29.1460 C.2     1  UNL1       -0.0042
      4 C         -23.9890   -4.5490   28.8530 C.2     1  UNL1       -0.0003
      5 C         -25.1370   -5.2800   29.2050 C.2     1  UNL1       -0.0000
      6 C         -26.2320   -4.6110   29.7840 C.2     1  UNL1       -0.0003
      7 C         -26.1550   -3.2320   30.0650 C.2     1  UNL1       -0.0042
      8 C         -25.3870   -0.6790   31.5710 C.3     1  UNL1        0.0786
      9 C         -25.1890    0.7730   32.0280 C.3     1  UNL1        0.0193
     10 C         -25.3360    0.6840   33.5440 C.3     1  UNL1        0.0202
     11 C         -24.8290   -0.7150   33.9050 C.3     1  UNL1        0.0887
     12 N         -24.7580   -1.4810   32.6460 N.3     1  UNL1       -0.2191
     13 C         -25.6880    1.6140   26.4610 C.2     1  UNL1        0.0354
     14 C         -26.2500    2.9200   26.3950 C.2     1  UNL1        0.0742
     15 C         -25.6420    4.0930   27.1230 C.2     1  UNL1        0.2662
     16 N         -25.6140    5.2520   26.4490 N.am    1  UNL1       -0.1997
     17 C         -25.0260    6.4790   26.9630 C.3     1  UNL1        0.1388
     18 O         -25.1430    3.9660   28.2430 O.2     1  UNL1       -0.2683
     19 C         -27.4380    3.0910   25.6450 C.2     1  UNL1        0.1065
     20 N         -28.0750    2.0890   25.0030 N.2     1  UNL1       -0.2081
     21 C         -27.5430    0.8490   25.0790 C.2     1  UNL1        0.2530
     22 O         -28.1930   -0.2080   24.4770 O.2     1  UNL1       -0.4558
     23 C         -29.4600    0.0050   23.8660 C.3     1  UNL1        0.2426
     24 C         -30.0650   -1.3770   23.5730 C.3     1  UNL1        0.2292
     25 O         -30.7290   -1.8780   24.7210 O.3     1  UNL1       -0.2162
     26 C         -26.3540    0.5760   25.7770 C.2     1  UNL1        0.1907
     27 F         -25.8600   -0.6810   25.7950 F       1  UNL1       -0.1995
     28 C         -28.2744    0.2808   29.7022 C.2     1  UNL1        0.2249
     29 C         -22.9396    2.0571   25.6465 C.3     1  UNL1        0.0278
     30 C         -25.7219   -0.1140   29.2204 C.3     1  UNL1        0.1431
     31 C         -27.1656   -0.3297   28.8912 C.2     1  UNL1        0.2248
     32 C         -29.9488    4.9237   30.3685 C.3     1  UNL1        0.0015
     33 N         -29.1588    2.1789   30.6863 N.3     1  UNL1       -0.2661
     34 C         -23.3105    1.5177   27.0521 C.2     1  UNL1       -0.0284
     35 C         -28.6191    1.5928   29.5981 C.3     1  UNL1        0.1454
     36 N         -24.8582    0.1677   28.1663 N.3     1  UNL1       -0.2040
     37 C         -22.3360    1.4777   28.0213 C.2     1  UNL1       -0.0326
     38 O         -27.5140   -0.9971   27.9555 O.2     1  UNL1       -0.2868
     39 C         -24.5992    1.1235   27.3157 C.3     1  UNL1        0.1159
     40 C         -28.2752    2.8247   31.4886 C.3     1  UNL1        0.0725
     41 C         -20.8937    1.6221   27.6441 C.3     1  UNL1        0.0301
     42 C         -30.9189    3.7365   30.5524 C.3     1  UNL1        0.0173
     43 C         -28.5316    4.6961   29.7520 C.3     1  UNL1        0.0015
     44 O         -28.8237   -0.3505   30.6011 O.2     1  UNL1       -0.2868
     45 C         -30.3012    2.5279   31.1218 C.3     1  UNL1        0.0725
     46 C         -27.5489    3.8125   30.5704 C.3     1  UNL1        0.0173
@<TRIPOS>BOND
     1     1    30    1
     2     2     7    1
     3     2     1    1
     4     3     2    2
     5     4     3    1
     6     4     5    2
     7     5     6    1
     8     6     7    2
     9     8     1    1
    10     8     9    1
    11     8    12    1
    12     9    10    1
    13    10    11    1
    14    12    11    1
    15    13    39    1
    16    14    13    1
    17    14    15    1
    18    15    18    2
    19    16    17    1
    20    16    15    1
    21    19    14    2
    22    20    21    2
    23    20    19    1
    24    21    26    1
    25    22    21    1
    26    23    22    1
    27    24    23    1
    28    24    25    1
    29    26    27    1
    30    26    13    2
    31    28    44    2
    32    29    34    1
    33    30    36    1
    34    31    30    1
    35    31    28    1
    36    32    42    1
    37    33    45    1
    38    33    40    1
    39    34    37    2
    40    35    28    1
    41    35    33    1
    42    38    31    2
    43    39    34    1
    44    39    36    1
    45    41    37    1
    46    42    45    1
    47    43    32    1
    48    43    46    1
    49    46    40    1
