@<TRIPOS>MOLECULE
outputs/IAG933/test6/raw/output_3712_IAG933_linker_design_.xyz
 42 45 0 0 0
SMALL
GASTEIGER

@<TRIPOS>ATOM
      1 C         -24.8550   -1.0120   30.1430 C.3     1  UNL1        0.1538
      2 C         -24.9730   -2.5050   29.7880 C.2     1  UNL1        0.0059
      3 C         -23.9060   -3.1730   29.1460 C.2     1  UNL1       -0.0019
      4 C         -23.9890   -4.5490   28.8530 C.2     1  UNL1       -0.0002
      5 C         -25.1370   -5.2800   29.2050 C.2     1  UNL1       -0.0000
      6 C         -26.2320   -4.6110   29.7840 C.2     1  UNL1       -0.0002
      7 C         -26.1550   -3.2320   30.0650 C.2     1  UNL1       -0.0019
      8 C         -25.3870   -0.6790   31.5710 C.3     1  UNL1        0.1056
      9 C         -25.1890    0.7730   32.0280 C.3     1  UNL1        0.0413
     10 C         -25.3360    0.6840   33.5440 C.3     1  UNL1        0.0218
     11 C         -24.8290   -0.7150   33.9050 C.3     1  UNL1        0.0888
     12 N         -24.7580   -1.4810   32.6460 N.3     1  UNL1       -0.2166
     13 C         -25.6880    1.6140   26.4610 C.3     1  UNL1        0.0922
     14 C         -26.2500    2.9200   26.3950 C.2     1  UNL1        0.0589
     15 C         -25.6420    4.0930   27.1230 C.2     1  UNL1        0.2628
     16 N         -25.6140    5.2520   26.4490 N.am    1  UNL1       -0.2000
     17 C         -25.0260    6.4790   26.9630 C.3     1  UNL1        0.1388
     18 O         -25.1430    3.9660   28.2430 O.2     1  UNL1       -0.2686
     19 C         -27.4380    3.0910   25.6450 C.2     1  UNL1        0.1025
     20 N         -28.0750    2.0890   25.0030 N.2     1  UNL1       -0.2118
     21 C         -27.5430    0.8490   25.0790 C.2     1  UNL1        0.2344
     22 O         -28.1930   -0.2080   24.4770 O.2     1  UNL1       -0.4585
     23 C         -29.4600    0.0050   23.8660 C.3     1  UNL1        0.2423
     24 C         -30.0650   -1.3770   23.5730 C.3     1  UNL1        0.2292
     25 O         -30.7290   -1.8780   24.7210 O.3     1  UNL1       -0.2162
     26 C         -26.3540    0.5760   25.7770 C.3     1  UNL1        0.2440
     27 F         -25.8600   -0.6810   25.7950 F       1  UNL1       -0.2265
     28 C         -22.8711    0.9012   28.5177 C.2     1  UNL1        0.1201
     29 C         -24.8846    4.8427   32.8694 C.3     1  UNL1        0.2035
     30 C         -24.4725    1.9448   31.6256 C.3     1  UNL1        0.1367
     31 O         -25.6005   -0.2645   29.2404 O.3     1  UNL1       -0.3456
     32 C         -22.1240    2.1383   25.8700 C.2     1  UNL1       -0.0045
     33 C         -21.2564    1.7919   26.8810 C.2     1  UNL1       -0.0190
     34 O         -26.4341    3.2174   31.5621 O.3     1  UNL1       -0.0909
     35 N         -25.2264    3.1694   31.6197 N.3     1  UNL1       -0.0184
     36 C         -25.0368   -0.1133   28.1358 C.3     1  UNL1        0.1706
     37 C         -23.4992    2.1067   25.7508 C.2     1  UNL1       -0.0044
     38 F         -22.9737    0.5855   29.7802 F       1  UNL1       -0.2088
     39 C         -24.3856    1.5314   26.6581 C.2     1  UNL1       -0.0148
     40 O         -24.4142    4.1963   31.9073 O.3     1  UNL1       -0.2536
     41 C         -21.5924    1.3276   28.1395 C.3     1  UNL1        0.0822
     42 C         -24.0000    0.8383   27.7721 C.2     1  UNL1        0.0274
@<TRIPOS>BOND
     1     1    31    1
     2     2     7    1
     3     2     1    1
     4     3     2    2
     5     4     3    1
     6     4     5    2
     7     5     6    1
     8     6     7    2
     9     8     1    1
    10     8     9    1
    11     8    12    1
    12     9    30    1
    13     9    10    1
    14    10    11    1
    15    12    11    1
    16    13    39    1
    17    14    13    1
    18    14    15    1
    19    15    18    2
    20    16    17    1
    21    16    15    1
    22    19    14    2
    23    20    21    2
    24    20    19    1
    25    21    26    1
    26    22    21    1
    27    23    22    1
    28    24    23    1
    29    24    25    1
    30    26    27    1
    31    26    13    1
    32    28    38    1
    33    32    33    2
    34    33    41    1
    35    34    35    1
    36    35    30    1
    37    35    40    1
    38    36    31    1
    39    37    32    1
    40    37    39    2
    41    39    42    1
    42    40    29    1
    43    41    28    1
    44    42    36    1
    45    42    28    2
