@<TRIPOS>MOLECULE
outputs/IAG933/test6/raw/output_3714_IAG933_linker_design_.xyz
 47 51 0 0 0
SMALL
GASTEIGER

@<TRIPOS>ATOM
      1 C         -24.8550   -1.0120   30.1430 C.3     1  UNL1        0.1551
      2 C         -24.9730   -2.5050   29.7880 C.2     1  UNL1        0.0060
      3 C         -23.9060   -3.1730   29.1460 C.2     1  UNL1       -0.0019
      4 C         -23.9890   -4.5490   28.8530 C.2     1  UNL1       -0.0002
      5 C         -25.1370   -5.2800   29.2050 C.2     1  UNL1       -0.0000
      6 C         -26.2320   -4.6110   29.7840 C.2     1  UNL1       -0.0002
      7 C         -26.1550   -3.2320   30.0650 C.2     1  UNL1       -0.0019
      8 C         -25.3870   -0.6790   31.5710 C.3     1  UNL1        0.1042
      9 C         -25.1890    0.7730   32.0280 C.3     1  UNL1        0.0217
     10 C         -25.3360    0.6840   33.5440 C.3     1  UNL1        0.0203
     11 C         -24.8290   -0.7150   33.9050 C.3     1  UNL1        0.0888
     12 N         -24.7580   -1.4810   32.6460 N.3     1  UNL1       -0.2166
     13 C         -25.6880    1.6140   26.4610 C.2     1  UNL1        0.0373
     14 C         -26.2500    2.9200   26.3950 C.2     1  UNL1        0.0741
     15 C         -25.6420    4.0930   27.1230 C.2     1  UNL1        0.2219
     16 N         -25.6140    5.2520   26.4490 N.2     1  UNL1       -0.2357
     17 C         -25.0260    6.4790   26.9630 C.3     1  UNL1        0.1550
     18 O         -25.1430    3.9660   28.2430 O.2     1  UNL1       -0.4598
     19 C         -27.4380    3.0910   25.6450 C.2     1  UNL1        0.1068
     20 N         -28.0750    2.0890   25.0030 N.2     1  UNL1       -0.2081
     21 C         -27.5430    0.8490   25.0790 C.2     1  UNL1        0.2533
     22 O         -28.1930   -0.2080   24.4770 O.2     1  UNL1       -0.4558
     23 C         -29.4600    0.0050   23.8660 C.3     1  UNL1        0.2426
     24 C         -30.0650   -1.3770   23.5730 C.3     1  UNL1        0.2292
     25 O         -30.7290   -1.8780   24.7210 O.3     1  UNL1       -0.2162
     26 C         -26.3540    0.5760   25.7770 C.2     1  UNL1        0.1929
     27 F         -25.8600   -0.6810   25.7950 F       1  UNL1       -0.1992
     28 C         -22.8726    0.7573   28.6993 C.3     1  UNL1        0.2185
     29 C         -23.0921    1.7105   26.7343 C.2     1  UNL1        0.0333
     30 F         -22.3286   -0.1420   29.4598 F       1  UNL1       -0.2319
     31 C         -24.3024    1.0968   28.6615 C.3     1  UNL1        0.2029
     32 C         -22.6441    2.0768   25.4849 C.3     1  UNL1        0.3375
     33 C         -23.9435    4.4648   30.4709 C.3     1  UNL1        0.1521
     34 N         -24.7434    2.1264   29.5730 N.3     1  UNL1       -0.1885
     35 C         -24.9071    4.8973   29.3301 C.3     1  UNL1        0.2187
     36 O         -25.4077    5.2240   32.3925 O.2     1  UNL1       -0.2589
     37 F         -23.2915    4.8250   32.7326 F       1  UNL1       -0.1634
     38 F         -21.4827    2.5225   25.1947 F       1  UNL1       -0.1936
     39 C         -24.4247    1.4304   27.2009 C.2     1  UNL1        0.0206
     40 C         -24.1663    2.9087   30.6987 C.3     1  UNL1        0.1055
     41 C         -20.8002    1.8600   27.9006 C.2     1  UNL1        0.3168
     42 O         -19.8888    0.9826   28.1064 O.2     1  UNL1       -0.2587
     43 C         -24.3144    4.9366   31.9252 C.2     1  UNL1        0.3152
     44 C         -22.1739    1.4776   27.7367 C.3     1  UNL1        0.1511
     45 O         -25.1871   -0.0351   29.0972 O.3     1  UNL1       -0.3337
     46 F         -23.5005    1.8599   24.4398 F       1  UNL1       -0.1936
     47 F         -20.4197    3.0723   27.9505 F       1  UNL1       -0.1632
@<TRIPOS>BOND
     1     1    45    1
     2     2     7    1
     3     2     1    1
     4     3     2    2
     5     4     3    1
     6     4     5    2
     7     5     6    1
     8     6     7    2
     9     8     1    1
    10     8     9    1
    11     8    12    1
    12     9    10    1
    13    10    11    1
    14    12    11    1
    15    13    39    1
    16    14    13    1
    17    14    15    1
    18    15    18    1
    19    16    17    1
    20    16    15    2
    21    18    35    1
    22    19    14    2
    23    20    21    2
    24    20    19    1
    25    21    26    1
    26    22    21    1
    27    23    22    1
    28    24    23    1
    29    24    25    1
    30    26    27    1
    31    26    13    2
    32    28    30    1
    33    29    39    2
    34    29    44    1
    35    31    28    1
    36    31    45    1
    37    31    34    1
    38    32    29    1
    39    33    40    1
    40    33    43    1
    41    34    40    1
    42    35    33    1
    43    38    32    1
    44    39    31    1
    45    41    47    1
    46    41    42    2
    47    43    36    2
    48    43    37    1
    49    44    41    1
    50    44    28    1
    51    46    32    1
