@<TRIPOS>MOLECULE
No_3715-gen_results/8p0m/2024-11-27-11-27-31/
 16 16 0 0 0
SMALL
GASTEIGER

@<TRIPOS>ATOM
      1 C         -28.0162   -0.8135   28.8779 C.3     1  UNL1        0.0403
      2 C         -27.0636   -0.1189   28.6079 C.ar    1  UNL1       -0.0212
      3 C         -27.0010    0.6913   27.4910 C.ar    1  UNL1       -0.0043
      4 C         -25.8548    1.4825   27.0830 C.ar    1  UNL1        0.0035
      5 C         -24.6901    1.4526   27.8807 C.ar    1  UNL1        0.0714
      6 C         -24.7379    0.6010   29.0416 C.ar    1  UNL1        0.0035
      7 C         -25.8234   -0.1688   29.3887 C.ar    1  UNL1       -0.0043
      8 C         -28.7350   -0.4637   30.1419 C.3     1  UNL1        0.0811
      9 C         -29.8111   -1.3049   30.6008 C.1     1  UNL1       -0.0861
     10 C         -23.5152    2.1989   27.5480 C.3     1  UNL1        0.4186
     11 F         -22.8107    2.5430   28.4825 F       1  UNL1       -0.1659
     12 F         -23.6847    3.1812   26.6557 F       1  UNL1       -0.1659
     13 F         -22.6016    1.3202   26.8839 F       1  UNL1       -0.1659
     14 C         -30.8846   -1.3032   30.4253 C.1     1  UNL1       -0.0638
     15 C         -31.5170   -0.1797   29.8214 C.2     1  UNL1        0.0493
     16 C         -32.7445   -0.2151   29.2909 C.2     1  UNL1        0.0095
@<TRIPOS>BOND
     1     1     2    1
     2     1     8    1
     3     8     9    1
     4     5    10    1
     5    10    11    1
     6    10    12    1
     7    10    13    1
     8     9    14    3
     9    14    15    1
    10    15    16    2
    11     2     3   ar
    12     3     4   ar
    13     4     5   ar
    14     5     6   ar
    15     6     7   ar
    16     7     2   ar
