@<TRIPOS>MOLECULE
outputs/IAG933/test6/raw/output_3717_IAG933_linker_design_.xyz
 46 50 0 0 0
SMALL
GASTEIGER

@<TRIPOS>ATOM
      1 C         -24.8550   -1.0120   30.1430 C.3     1  UNL1        0.1549
      2 C         -24.9730   -2.5050   29.7880 C.2     1  UNL1        0.0060
      3 C         -23.9060   -3.1730   29.1460 C.2     1  UNL1       -0.0019
      4 C         -23.9890   -4.5490   28.8530 C.2     1  UNL1       -0.0002
      5 C         -25.1370   -5.2800   29.2050 C.2     1  UNL1       -0.0000
      6 C         -26.2320   -4.6110   29.7840 C.2     1  UNL1       -0.0002
      7 C         -26.1550   -3.2320   30.0650 C.2     1  UNL1       -0.0019
      8 C         -25.3870   -0.6790   31.5710 C.3     1  UNL1        0.1042
      9 C         -25.1890    0.7730   32.0280 C.3     1  UNL1        0.0217
     10 C         -25.3360    0.6840   33.5440 C.3     1  UNL1        0.0203
     11 C         -24.8290   -0.7150   33.9050 C.3     1  UNL1        0.0888
     12 N         -24.7580   -1.4810   32.6460 N.3     1  UNL1       -0.2166
     13 C         -25.6880    1.6140   26.4610 C.2     1  UNL1        0.0378
     14 C         -26.2500    2.9200   26.3950 C.2     1  UNL1        0.0722
     15 C         -25.6420    4.0930   27.1230 C.2     1  UNL1        0.2252
     16 N         -25.6140    5.2520   26.4490 N.2     1  UNL1       -0.2356
     17 C         -25.0260    6.4790   26.9630 C.3     1  UNL1        0.1550
     18 O         -25.1430    3.9660   28.2430 O.2     1  UNL1       -0.4234
     19 C         -27.4380    3.0910   25.6450 C.2     1  UNL1        0.1065
     20 N         -28.0750    2.0890   25.0030 N.2     1  UNL1       -0.2081
     21 C         -27.5430    0.8490   25.0790 C.2     1  UNL1        0.2530
     22 O         -28.1930   -0.2080   24.4770 O.2     1  UNL1       -0.4558
     23 C         -29.4600    0.0050   23.8660 C.3     1  UNL1        0.2426
     24 C         -30.0650   -1.3770   23.5730 C.3     1  UNL1        0.2292
     25 O         -30.7290   -1.8780   24.7210 O.3     1  UNL1       -0.2162
     26 C         -26.3540    0.5760   25.7770 C.2     1  UNL1        0.1908
     27 F         -25.8600   -0.6810   25.7950 F       1  UNL1       -0.1995
     28 N         -25.7134    2.0751   29.5551 N.3     1  UNL1       -0.1233
     29 C         -24.5878    1.2176   27.4654 C.3     1  UNL1        0.1480
     30 C         -29.8572    5.0325   32.8143 C.3     1  UNL1        0.0307
     31 O         -21.0107    1.6375   27.7913 O.co2   1  UNL1       -0.2223
     32 C         -26.7325    5.0988   30.9116 C.2     1  UNL1       -0.0014
     33 C         -28.1910    3.7815   29.6530 C.2     1  UNL1        0.0028
     34 C         -29.2566    4.2198   30.4584 C.2     1  UNL1       -0.0046
     35 C         -22.1317    1.2245   28.0190 C.2     1  UNL1        0.4476
     36 O         -25.4961   -0.1955   29.1487 O.3     1  UNL1       -0.3342
     37 C         -27.3714    6.5117   32.9071 C.3     1  UNL1        0.0307
     38 C         -22.8823    2.1724   25.6894 C.3     1  UNL1        0.1188
     39 N         -23.2348    1.7301   27.1758 N.am    1  UNL1       -0.2353
     40 O         -24.5460    3.8814   30.4398 O.3     1  UNL1       -0.1594
     41 O         -22.4226    0.5143   28.9774 O.co2   1  UNL1       -0.2223
     42 C         -28.9663    4.9538   31.6297 C.2     1  UNL1       -0.0258
     43 C         -24.8897    1.0449   28.9775 C.3     1  UNL1        0.2175
     44 C         -25.5338    3.4389   29.5584 C.3     1  UNL1        0.3494
     45 C         -27.7074    5.5306   31.7579 C.2     1  UNL1       -0.0259
     46 C         -26.8686    4.1211   29.9846 C.2     1  UNL1        0.0605
@<TRIPOS>BOND
     1     1    36    1
     2     2     7    1
     3     2     1    1
     4     3     2    2
     5     4     3    1
     6     4     5    2
     7     5     6    1
     8     6     7    2
     9     8     1    1
    10     8     9    1
    11     8    12    1
    12     9    10    1
    13    10    11    1
    14    12    11    1
    15    13    29    1
    16    14    13    1
    17    14    15    1
    18    15    18    1
    19    16    17    1
    20    16    15    2
    21    18    44    1
    22    19    14    2
    23    20    21    2
    24    20    19    1
    25    21    26    1
    26    22    21    1
    27    23    22    1
    28    24    23    1
    29    24    25    1
    30    26    27    1
    31    26    13    2
    32    28    44    1
    33    29    39    1
    34    29    43    1
    35    31    35   ar
    36    32    45    1
    37    33    46    1
    38    33    34    2
    39    34    42    1
    40    35    41   ar
    41    38    39    1
    42    39    35   am
    43    42    45    2
    44    42    30    1
    45    43    36    1
    46    43    28    1
    47    44    46    1
    48    44    40    1
    49    45    37    1
    50    46    32    2
