@<TRIPOS>MOLECULE
outputs/IAG933/test6/raw/output_372_IAG933_linker_design_.xyz
 45 48 0 0 0
SMALL
GASTEIGER

@<TRIPOS>ATOM
      1 C         -24.8550   -1.0120   30.1430 C.3     1  UNL1        0.0451
      2 C         -24.9730   -2.5050   29.7880 C.2     1  UNL1       -0.0207
      3 C         -23.9060   -3.1730   29.1460 C.2     1  UNL1       -0.0042
      4 C         -23.9890   -4.5490   28.8530 C.2     1  UNL1       -0.0003
      5 C         -25.1370   -5.2800   29.2050 C.2     1  UNL1       -0.0000
      6 C         -26.2320   -4.6110   29.7840 C.2     1  UNL1       -0.0003
      7 C         -26.1550   -3.2320   30.0650 C.2     1  UNL1       -0.0042
      8 C         -25.3870   -0.6790   31.5710 C.3     1  UNL1        0.0918
      9 C         -25.1890    0.7730   32.0280 C.3     1  UNL1        0.0790
     10 C         -25.3360    0.6840   33.5440 C.3     1  UNL1        0.0363
     11 C         -24.8290   -0.7150   33.9050 C.3     1  UNL1        0.0901
     12 N         -24.7580   -1.4810   32.6460 N.3     1  UNL1       -0.2177
     13 C         -25.6880    1.6140   26.4610 C.3     1  UNL1        0.1538
     14 C         -26.2500    2.9200   26.3950 C.2     1  UNL1        0.0719
     15 C         -25.6420    4.0930   27.1230 C.2     1  UNL1        0.2638
     16 N         -25.6140    5.2520   26.4490 N.am    1  UNL1       -0.2000
     17 C         -25.0260    6.4790   26.9630 C.3     1  UNL1        0.1388
     18 O         -25.1430    3.9660   28.2430 O.2     1  UNL1       -0.2686
     19 C         -27.4380    3.0910   25.6450 C.2     1  UNL1        0.1035
     20 N         -28.0750    2.0890   25.0030 N.2     1  UNL1       -0.2118
     21 C         -27.5430    0.8490   25.0790 C.2     1  UNL1        0.2356
     22 O         -28.1930   -0.2080   24.4770 O.2     1  UNL1       -0.4585
     23 C         -29.4600    0.0050   23.8660 C.3     1  UNL1        0.2423
     24 C         -30.0650   -1.3770   23.5730 C.3     1  UNL1        0.2292
     25 O         -30.7290   -1.8780   24.7210 O.3     1  UNL1       -0.2162
     26 C         -26.3540    0.5760   25.7770 C.3     1  UNL1        0.2568
     27 F         -25.8600   -0.6810   25.7950 F       1  UNL1       -0.2253
     28 C         -23.4799    1.8814   27.0634 C.3     1  UNL1        0.0847
     29 C         -25.0004    5.0412   33.8201 C.2     1  UNL1        0.0161
     30 C         -26.3461    3.1499   31.7835 C.3     1  UNL1        0.1868
     31 O         -27.1659    5.3810   30.6532 O.3     1  UNL1       -0.2169
     32 C         -23.4485    7.0725   32.6573 C.2     1  UNL1        0.0013
     33 C         -27.4006    3.9462   30.9001 C.3     1  UNL1        0.2202
     34 C         -23.4065    6.8805   34.0384 C.2     1  UNL1        0.0001
     35 C         -22.3971    1.9151   28.1740 C.3     1  UNL1        0.0184
     36 O         -25.5897    0.9391   28.9327 O.3     1  UNL1       -0.2637
     37 C         -24.8574    5.1215   32.4352 C.2     1  UNL1        0.0669
     38 N         -25.1478    3.9995   31.6639 N.pl3   1  UNL1       -0.2201
     39 N         -26.2596    1.7679   31.3727 N.3     1  UNL1       -0.2276
     40 C         -21.1457    1.1373   27.7266 C.3     1  UNL1        0.0015
     41 C         -24.2391    6.2474   31.8418 C.2     1  UNL1        0.0161
     42 N         -24.7778    1.2448   27.4717 N.3     1  UNL1       -0.1596
     43 C         -26.8812    1.1998   30.1003 C.3     1  UNL1        0.2444
     44 C         -23.0632    2.2815   25.6137 C.3     1  UNL1        0.0198
     45 C         -24.2315    5.9104   34.6093 C.2     1  UNL1        0.0013
@<TRIPOS>BOND
     1     2     7    1
     2     2     1    1
     3     3     2    2
     4     4     3    1
     5     4     5    2
     6     5     6    1
     7     6     7    2
     8     8     1    1
     9     8     9    1
    10     8    12    1
    11     9    39    1
    12     9    10    1
    13    10    11    1
    14    12    11    1
    15    13    42    1
    16    14    13    1
    17    14    15    1
    18    15    18    2
    19    16    17    1
    20    16    15    1
    21    19    14    2
    22    20    21    2
    23    20    19    1
    24    21    26    1
    25    22    21    1
    26    23    22    1
    27    24    23    1
    28    24    25    1
    29    26    27    1
    30    26    13    1
    31    28    44    1
    32    28    42    1
    33    28    35    1
    34    29    45    1
    35    30    33    1
    36    31    33    1
    37    32    34    1
    38    34    45    2
    39    36    43    1
    40    37    29    2
    41    38    30    1
    42    38    37    1
    43    39    30    1
    44    40    35    1
    45    41    37    1
    46    41    32    2
    47    42    36    1
    48    43    39    1
