@<TRIPOS>MOLECULE
outputs/IAG933/test6/raw/output_3720_IAG933_linker_design_.xyz
 50 54 0 0 0
SMALL
GASTEIGER

@<TRIPOS>ATOM
      1 C         -24.8550   -1.0120   30.1430 C.3     1  UNL1        0.2040
      2 C         -24.9730   -2.5050   29.7880 C.2     1  UNL1        0.0186
      3 C         -23.9060   -3.1730   29.1460 C.2     1  UNL1       -0.0008
      4 C         -23.9890   -4.5490   28.8530 C.2     1  UNL1       -0.0002
      5 C         -25.1370   -5.2800   29.2050 C.2     1  UNL1       -0.0000
      6 C         -26.2320   -4.6110   29.7840 C.2     1  UNL1       -0.0002
      7 C         -26.1550   -3.2320   30.0650 C.2     1  UNL1       -0.0008
      8 C         -25.3870   -0.6790   31.5710 C.3     1  UNL1        0.1170
      9 C         -25.1890    0.7730   32.0280 C.3     1  UNL1        0.0229
     10 C         -25.3360    0.6840   33.5440 C.3     1  UNL1        0.0204
     11 C         -24.8290   -0.7150   33.9050 C.3     1  UNL1        0.0888
     12 N         -24.7580   -1.4810   32.6460 N.3     1  UNL1       -0.2154
     13 C         -25.6880    1.6140   26.4610 C.2     1  UNL1        0.0441
     14 C         -26.2500    2.9200   26.3950 C.2     1  UNL1        0.0767
     15 C         -25.6420    4.0930   27.1230 C.2     1  UNL1        0.2664
     16 N         -25.6140    5.2520   26.4490 N.am    1  UNL1       -0.1997
     17 C         -25.0260    6.4790   26.9630 C.3     1  UNL1        0.1388
     18 O         -25.1430    3.9660   28.2430 O.2     1  UNL1       -0.2683
     19 C         -27.4380    3.0910   25.6450 C.2     1  UNL1        0.1067
     20 N         -28.0750    2.0890   25.0030 N.2     1  UNL1       -0.2081
     21 C         -27.5430    0.8490   25.0790 C.2     1  UNL1        0.2533
     22 O         -28.1930   -0.2080   24.4770 O.2     1  UNL1       -0.4546
     23 C         -29.4600    0.0050   23.8660 C.3     1  UNL1        0.2544
     24 C         -30.0650   -1.3770   23.5730 C.3     1  UNL1        0.2559
     25 O         -30.7290   -1.8780   24.7210 O.3     1  UNL1       -0.4413
     26 C         -26.3540    0.5760   25.7770 C.2     1  UNL1        0.1932
     27 F         -25.8600   -0.6810   25.7950 F       1  UNL1       -0.1992
     28 C         -32.1491    0.0745   28.1342 C.2     1  UNL1        0.1448
     29 O         -32.8293   -1.7919   25.6404 O.2     1  UNL1       -0.2448
     30 C         -22.8092    0.3575   28.9874 C.2     1  UNL1        0.1740
     31 C         -29.7244    2.8088   29.1839 C.3     1  UNL1        0.0343
     32 C         -24.1709    0.5284   28.4486 C.2     1  UNL1        0.1692
     33 O         -23.7484    1.6633   24.7215 O.3     1  UNL1        0.0284
     34 C         -29.9833   -0.2938   27.0481 C.2     1  UNL1        0.0461
     35 F         -22.5365   -0.3411   30.1255 F       1  UNL1       -0.2010
     36 C         -24.3589    1.3359   27.1482 C.2     1  UNL1        0.0767
     37 O         -25.2196    0.0091   29.1866 O.2     1  UNL1       -0.4709
     38 C         -28.0239    0.0523   29.7750 C.3     1  UNL1        0.2525
     39 C         -21.6341    0.8959   28.3762 C.2     1  UNL1        0.0360
     40 C         -30.2794    1.4761   28.7075 C.2     1  UNL1        0.0151
     41 C         -21.7783    1.6853   27.2354 C.2     1  UNL1        0.0435
     42 C         -29.4788    0.5738   28.0031 C.2     1  UNL1        0.1351
     43 C         -31.6181    1.0844   28.9022 C.2     1  UNL1        0.0359
     44 O         -33.3732   -0.3216   28.5376 O.2     1  UNL1       -0.4712
     45 C         -23.0835    1.8130   26.5924 C.2     1  UNL1        0.1890
     46 C         -31.3696   -0.5112   27.0190 C.2     1  UNL1        0.1125
     47 C         -34.0292    0.5218   29.5411 C.3     1  UNL1        0.2525
     48 C         -31.7386   -1.4061   25.7539 C.2     1  UNL1        0.3444
     49 O         -28.1323    0.5480   28.4068 O.2     1  UNL1       -0.4717
     50 O         -23.0523    2.3057   25.3730 O.2     1  UNL1       -0.3029
@<TRIPOS>BOND
     1     1    37    1
     2     2     7    1
     3     2     1    1
     4     3     2    2
     5     4     3    1
     6     4     5    2
     7     5     6    1
     8     6     7    2
     9     8     1    1
    10     8     9    1
    11     8    12    1
    12     9    10    1
    13    10    11    1
    14    12    11    1
    15    13    36    1
    16    14    13    1
    17    14    15    1
    18    15    18    2
    19    16    17    1
    20    16    15    1
    21    19    14    2
    22    20    21    2
    23    20    19    1
    24    21    26    1
    25    22    21    1
    26    23    22    1
    27    24    23    1
    28    24    25    1
    29    25    48    1
    30    26    27    1
    31    26    13    2
    32    28    44    1
    33    28    43    1
    34    29    48    2
    35    30    35    1
    36    32    30    1
    37    32    37    1
    38    33    50    1
    39    34    42    2
    40    36    32    2
    41    39    30    2
    42    40    43    2
    43    40    31    1
    44    41    39    1
    45    42    49    1
    46    42    40    1
    47    44    47    1
    48    45    36    1
    49    45    41    2
    50    46    34    1
    51    46    28    2
    52    48    46    1
    53    49    38    1
    54    50    45    1
