@<TRIPOS>MOLECULE
No_3724-gen_results/8p0m/2024-11-27-11-27-31/
 16 17 0 0 0
SMALL
GASTEIGER

@<TRIPOS>ATOM
      1 C         -28.0162   -0.8135   28.8779 C.ar    1  UNL1        0.0066
      2 C         -28.4690   -0.7850   29.8287 C.ar    1  UNL1        0.0798
      3 C         -26.5455   -0.8762   28.8500 C.ar    1  UNL1        0.0003
      4 C         -25.8041   -1.0324   30.0571 C.ar    1  UNL1        0.0013
      5 C         -27.9437   -0.9869   31.2075 C.ar    1  UNL1        0.0066
      6 C         -26.5825   -1.0386   31.2231 C.ar    1  UNL1        0.0003
      7 C         -24.3810   -1.1082   30.0855 C.ar    1  UNL1        0.0168
      8 C         -23.6421   -1.1177   29.0486 C.ar    1  UNL1        0.0013
      9 C         -22.1825   -0.9779   29.1035 C.ar    1  UNL1        0.0001
     10 C         -23.6394   -0.1093   30.9364 C.ar    1  UNL1        0.0891
     11 N         -24.2238    0.2128   32.1769 N.pl3   1  UNL1       -0.1281
     12 C         -22.8339    0.8434   30.4499 C.ar    1  UNL1        0.0181
     13 C         -21.6692    0.0208   29.7205 C.ar    1  UNL1        0.0014
     14 C         -30.0927   -0.7313   29.8763 C.2     1  UNL1        0.3878
     15 O         -30.6329    0.2434   30.4673 O.co2   1  UNL1       -0.2406
     16 O         -30.7062   -1.6009   29.2724 O.co2   1  UNL1       -0.2406
@<TRIPOS>BOND
     1     4     7    1
     2    10    11    1
     3     2    14    1
     4    14    15   ar
     5    14    16   ar
     6     7     8   ar
     7     8     9   ar
     8     9    13   ar
     9    13    12   ar
    10    12    10   ar
    11    10     7   ar
    12     1     2   ar
    13     2     5   ar
    14     5     6   ar
    15     6     4   ar
    16     4     3   ar
    17     3     1   ar
