@<TRIPOS>MOLECULE
No_3726-gen_results/8p0m/2024-11-27-11-27-31/
 12 12 0 0 0
SMALL
GASTEIGER

@<TRIPOS>ATOM
      1 C         -28.0162   -0.8135   28.8779 C.ar    1  UNL1        0.0365
      2 C         -28.4690   -0.7850   29.8287 C.ar    1  UNL1        0.0368
      3 C         -26.5042   -0.7777   28.8766 C.ar    1  UNL1        0.1450
      4 C         -25.8103   -0.8531   30.1028 C.ar    1  UNL1        0.0839
      5 C         -27.9906   -0.8916   31.2257 C.ar    1  UNL1        0.0070
      6 C         -26.6042   -0.8676   31.2652 C.ar    1  UNL1        0.0074
      7 BR        -30.4622   -0.8398   29.8385 Br      1  UNL1       -0.0489
      8 C         -24.3620   -0.8196   30.1394 C.2     1  UNL1        0.2844
      9 N         -23.7002   -1.4503   30.7788 N.am    1  UNL1       -0.0886
     10 O         -23.7609    0.0464   29.3336 O.2     1  UNL1       -0.2668
     11 N         -22.5376   -1.3458   31.1716 N.3     1  UNL1        0.0074
     12 F         -25.8028   -0.7729   27.7714 F       1  UNL1       -0.2040
@<TRIPOS>BOND
     1     2     7    1
     2     4     8    1
     3     8     9   am
     4     8    10    2
     5     9    11    1
     6     3    12    1
     7     1     2   ar
     8     2     5   ar
     9     5     6   ar
    10     6     4   ar
    11     4     3   ar
    12     3     1   ar
