@<TRIPOS>MOLECULE
outputs/IAG933/test6/raw/output_3729_IAG933_linker_design_.xyz
 41 44 0 0 0
SMALL
GASTEIGER

@<TRIPOS>ATOM
      1 C         -24.8550   -1.0120   30.1430 C.3     1  UNL1        0.0504
      2 C         -24.9730   -2.5050   29.7880 C.2     1  UNL1       -0.0206
      3 C         -23.9060   -3.1730   29.1460 C.2     1  UNL1       -0.0042
      4 C         -23.9890   -4.5490   28.8530 C.2     1  UNL1       -0.0003
      5 C         -25.1370   -5.2800   29.2050 C.2     1  UNL1       -0.0000
      6 C         -26.2320   -4.6110   29.7840 C.2     1  UNL1       -0.0003
      7 C         -26.1550   -3.2320   30.0650 C.2     1  UNL1       -0.0042
      8 C         -25.3870   -0.6790   31.5710 C.3     1  UNL1        0.0774
      9 C         -25.1890    0.7730   32.0280 C.3     1  UNL1        0.0192
     10 C         -25.3360    0.6840   33.5440 C.3     1  UNL1        0.0202
     11 C         -24.8290   -0.7150   33.9050 C.3     1  UNL1        0.0887
     12 N         -24.7580   -1.4810   32.6460 N.3     1  UNL1       -0.2191
     13 C         -25.6880    1.6140   26.4610 C.2     1  UNL1        0.0193
     14 C         -26.2500    2.9200   26.3950 C.2     1  UNL1        0.0727
     15 C         -25.6420    4.0930   27.1230 C.2     1  UNL1        0.2661
     16 N         -25.6140    5.2520   26.4490 N.am    1  UNL1       -0.1997
     17 C         -25.0260    6.4790   26.9630 C.3     1  UNL1        0.1388
     18 O         -25.1430    3.9660   28.2430 O.2     1  UNL1       -0.2683
     19 C         -27.4380    3.0910   25.6450 C.2     1  UNL1        0.1064
     20 N         -28.0750    2.0890   25.0030 N.2     1  UNL1       -0.2081
     21 C         -27.5430    0.8490   25.0790 C.2     1  UNL1        0.2530
     22 O         -28.1930   -0.2080   24.4770 O.2     1  UNL1       -0.4558
     23 C         -29.4600    0.0050   23.8660 C.3     1  UNL1        0.2426
     24 C         -30.0650   -1.3770   23.5730 C.3     1  UNL1        0.2292
     25 O         -30.7290   -1.8780   24.7210 O.3     1  UNL1       -0.2162
     26 C         -26.3540    0.5760   25.7770 C.2     1  UNL1        0.1892
     27 F         -25.8600   -0.6810   25.7950 F       1  UNL1       -0.1996
     28 C         -21.2560    0.0074   28.8175 C.3     1  UNL1        0.4689
     29 C         -25.5161   -0.1071   29.1911 C.3     1  UNL1        0.1251
     30 O         -27.6651    0.9957   29.4011 O.co2   1  UNL1       -0.2456
     31 O         -27.6786   -1.0470   28.8370 O.co2   1  UNL1       -0.2456
     32 C         -24.5871    0.6733   28.5277 C.3     1  UNL1        0.0929
     33 O         -21.6900   -0.6752   29.9857 O.2     1  UNL1       -0.2625
     34 C         -22.2450    1.2126   28.7174 C.3     1  UNL1        0.2838
     35 N         -23.5808    0.9371   29.2000 N.3     1  UNL1       -0.1855
     36 C         -27.0051   -0.0283   29.1717 C.2     1  UNL1        0.3661
     37 O         -19.9899    0.4140   28.3876 O.2     1  UNL1       -0.2625
     38 C         -23.1903    1.2866   26.6512 C.3     1  UNL1        0.1225
     39 C         -24.5929    1.2701   27.2103 C.3     1  UNL1        0.0687
     40 O         -22.1965    1.6682   27.4573 O.3     1  UNL1       -0.3357
     41 C         -23.0165    2.1030   25.4244 C.3     1  UNL1        0.0325
@<TRIPOS>BOND
     1     1    29    1
     2     2     7    1
     3     2     1    1
     4     3     2    2
     5     4     3    1
     6     4     5    2
     7     5     6    1
     8     6     7    2
     9     8     1    1
    10     8     9    1
    11     8    12    1
    12     9    10    1
    13    10    11    1
    14    12    11    1
    15    14    13    1
    16    14    15    1
    17    15    18    2
    18    16    17    1
    19    16    15    1
    20    19    14    2
    21    20    21    2
    22    20    19    1
    23    21    26    1
    24    22    21    1
    25    23    22    1
    26    24    23    1
    27    24    25    1
    28    26    27    1
    29    26    13    2
    30    28    33    1
    31    29    36    1
    32    31    36   ar
    33    32    29    1
    34    32    35    1
    35    34    28    1
    36    34    35    1
    37    36    30   ar
    38    37    28    1
    39    38    41    1
    40    38    39    1
    41    38    40    1
    42    39    13    1
    43    39    32    1
    44    40    34    1
