@<TRIPOS>MOLECULE
outputs/IAG933/test6/raw/output_3730_IAG933_linker_design_.xyz
 45 48 0 0 0
SMALL
GASTEIGER

@<TRIPOS>ATOM
      1 C         -24.8550   -1.0120   30.1430 C.3     1  UNL1        0.0947
      2 C         -24.9730   -2.5050   29.7880 C.2     1  UNL1       -0.0162
      3 C         -23.9060   -3.1730   29.1460 C.2     1  UNL1       -0.0041
      4 C         -23.9890   -4.5490   28.8530 C.2     1  UNL1       -0.0003
      5 C         -25.1370   -5.2800   29.2050 C.2     1  UNL1       -0.0000
      6 C         -26.2320   -4.6110   29.7840 C.2     1  UNL1       -0.0003
      7 C         -26.1550   -3.2320   30.0650 C.2     1  UNL1       -0.0041
      8 C         -25.3870   -0.6790   31.5710 C.3     1  UNL1        0.0818
      9 C         -25.1890    0.7730   32.0280 C.3     1  UNL1        0.0194
     10 C         -25.3360    0.6840   33.5440 C.3     1  UNL1        0.0202
     11 C         -24.8290   -0.7150   33.9050 C.3     1  UNL1        0.0887
     12 N         -24.7580   -1.4810   32.6460 N.3     1  UNL1       -0.2190
     13 C         -25.6880    1.6140   26.4610 C.3     1  UNL1        0.0862
     14 C         -26.2500    2.9200   26.3950 C.2     1  UNL1        0.0562
     15 C         -25.6420    4.0930   27.1230 C.2     1  UNL1        0.2625
     16 N         -25.6140    5.2520   26.4490 N.am    1  UNL1       -0.2000
     17 C         -25.0260    6.4790   26.9630 C.3     1  UNL1        0.1388
     18 O         -25.1430    3.9660   28.2430 O.2     1  UNL1       -0.2687
     19 C         -27.4380    3.0910   25.6450 C.2     1  UNL1        0.1022
     20 N         -28.0750    2.0890   25.0030 N.2     1  UNL1       -0.2119
     21 C         -27.5430    0.8490   25.0790 C.2     1  UNL1        0.2341
     22 O         -28.1930   -0.2080   24.4770 O.2     1  UNL1       -0.4585
     23 C         -29.4600    0.0050   23.8660 C.3     1  UNL1        0.2423
     24 C         -30.0650   -1.3770   23.5730 C.3     1  UNL1        0.2292
     25 O         -30.7290   -1.8780   24.7210 O.3     1  UNL1       -0.2162
     26 C         -26.3540    0.5760   25.7770 C.3     1  UNL1        0.2413
     27 F         -25.8600   -0.6810   25.7950 F       1  UNL1       -0.2268
     28 N         -30.3059    3.0228   32.5659 N.2     1  UNL1       -0.2112
     29 C         -29.8584    1.8793   32.1654 C.3     1  UNL1        0.2259
     30 C         -28.0176   -0.1597   28.1485 C.2     1  UNL1        0.1711
     31 N         -29.5294    1.7270   30.8607 N.am    1  UNL1       -0.2470
     32 C         -24.2747    1.3305   26.7871 C.3     1  UNL1        0.0841
     33 N         -24.3597    0.5039   28.1323 N.3     1  UNL1       -0.2261
     34 C         -30.8567    5.8565   32.1424 C.3     1  UNL1        0.2544
     35 C         -29.9318    2.9925   30.2749 C.2     1  UNL1        0.3039
     36 C         -22.0756    0.9482   27.8260 C.1     1  UNL1        0.0913
     37 C         -25.5178   -0.1303   29.0170 C.3     1  UNL1        0.2343
     38 C         -29.0528    0.5320   28.7319 C.2     1  UNL1        0.0355
     39 O         -30.0021    3.2803   29.1021 O.2     1  UNL1       -0.2647
     40 O         -30.9968    4.8735   31.1887 O.2     1  UNL1       -0.4533
     41 C         -30.3946    3.7033   31.4129 C.2     1  UNL1        0.2777
     42 C         -23.0042    0.2155   28.6939 C.3     1  UNL1        0.1821
     43 C         -29.0257    0.6771   30.0825 C.3     1  UNL1        0.1254
     44 O         -26.9134   -0.6903   28.8634 O.2     1  UNL1       -0.4604
     45 N         -21.1786    1.5180   27.2583 N.1     1  UNL1       -0.1944
@<TRIPOS>BOND
     1     1    37    1
     2     2     7    1
     3     2     1    1
     4     3     2    2
     5     4     3    1
     6     4     5    2
     7     5     6    1
     8     6     7    2
     9     8     1    1
    10     8     9    1
    11     8    12    1
    12     9    10    1
    13    10    11    1
    14    12    11    1
    15    13    32    1
    16    14    13    1
    17    14    15    1
    18    15    18    2
    19    16    17    1
    20    16    15    1
    21    19    14    2
    22    20    21    2
    23    20    19    1
    24    21    26    1
    25    22    21    1
    26    23    22    1
    27    24    23    1
    28    24    25    1
    29    26    27    1
    30    26    13    1
    31    29    28    1
    32    30    38    2
    33    30    44    1
    34    31    29    1
    35    32    33    1
    36    33    42    1
    37    33    37    1
    38    35    31   am
    39    35    41    1
    40    36    42    1
    41    37    44    1
    42    38    43    1
    43    39    35    2
    44    40    41    1
    45    40    34    1
    46    41    28    2
    47    43    31    1
    48    45    36    3
