@<TRIPOS>MOLECULE
outputs/IAG933/test6/raw/output_3733_IAG933_linker_design_.xyz
 46 50 0 0 0
SMALL
GASTEIGER

@<TRIPOS>ATOM
      1 C         -24.8550   -1.0120   30.1430 C.3     1  UNL1        0.1153
      2 C         -24.9730   -2.5050   29.7880 C.2     1  UNL1       -0.0029
      3 C         -23.9060   -3.1730   29.1460 C.2     1  UNL1       -0.0026
      4 C         -23.9890   -4.5490   28.8530 C.2     1  UNL1       -0.0003
      5 C         -25.1370   -5.2800   29.2050 C.2     1  UNL1       -0.0000
      6 C         -26.2320   -4.6110   29.7840 C.2     1  UNL1       -0.0003
      7 C         -26.1550   -3.2320   30.0650 C.2     1  UNL1       -0.0026
      8 C         -25.3870   -0.6790   31.5710 C.3     1  UNL1        0.0952
      9 C         -25.1890    0.7730   32.0280 C.3     1  UNL1        0.0209
     10 C         -25.3360    0.6840   33.5440 C.3     1  UNL1        0.0203
     11 C         -24.8290   -0.7150   33.9050 C.3     1  UNL1        0.0888
     12 N         -24.7580   -1.4810   32.6460 N.3     1  UNL1       -0.2174
     13 C         -25.6880    1.6140   26.4610 C.3     1  UNL1        0.0746
     14 C         -26.2500    2.9200   26.3950 C.2     1  UNL1        0.0551
     15 C         -25.6420    4.0930   27.1230 C.2     1  UNL1        0.2624
     16 N         -25.6140    5.2520   26.4490 N.am    1  UNL1       -0.2000
     17 C         -25.0260    6.4790   26.9630 C.3     1  UNL1        0.1388
     18 O         -25.1430    3.9660   28.2430 O.2     1  UNL1       -0.2687
     19 C         -27.4380    3.0910   25.6450 C.2     1  UNL1        0.1021
     20 N         -28.0750    2.0890   25.0030 N.2     1  UNL1       -0.2119
     21 C         -27.5430    0.8490   25.0790 C.2     1  UNL1        0.2341
     22 O         -28.1930   -0.2080   24.4770 O.2     1  UNL1       -0.4585
     23 C         -29.4600    0.0050   23.8660 C.3     1  UNL1        0.2423
     24 C         -30.0650   -1.3770   23.5730 C.3     1  UNL1        0.2292
     25 O         -30.7290   -1.8780   24.7210 O.3     1  UNL1       -0.2162
     26 C         -26.3540    0.5760   25.7770 C.3     1  UNL1        0.2403
     27 F         -25.8600   -0.6810   25.7950 F       1  UNL1       -0.2269
     28 C         -28.6668    3.0932   29.3720 C.3     1  UNL1        0.1595
     29 C         -29.0372    0.6597   28.0930 C.3     1  UNL1        0.1059
     30 N         -28.0450    0.7100   29.1888 N.3     1  UNL1       -0.2510
     31 C         -21.7981    1.2414   27.0998 C.2     1  UNL1        0.1820
     32 C         -24.9491    1.1014   29.1816 C.2     1  UNL1        0.2500
     33 C         -30.2731    1.4600   28.5343 C.3     1  UNL1        0.1595
     34 O         -29.9246    2.4148   29.5740 O.3     1  UNL1       -0.3508
     35 C         -27.6651    2.0462   29.7725 C.3     1  UNL1        0.1059
     36 C         -21.5154    0.0295   29.3401 C.2     1  UNL1        0.0034
     37 O         -25.0310    2.0496   29.9811 O.2     1  UNL1       -0.2699
     38 C         -23.5757    0.8859   28.6382 C.2     1  UNL1        0.0527
     39 C         -20.9698    0.6253   28.0565 C.2     1  UNL1        0.0407
     40 C         -22.7763    0.2090   29.5456 C.2     1  UNL1        0.0044
     41 C         -24.2438    1.4944   26.4471 C.3     1  UNL1        0.0375
     42 N         -25.6260   -0.0882   29.2480 N.am    1  UNL1       -0.2582
     43 O         -22.4507    2.0950   25.2918 O.3     1  UNL1        0.0284
     44 O         -21.3593    1.5472   26.0920 O.2     1  UNL1       -0.3033
     45 C         -27.0400   -0.3389   28.7674 C.3     1  UNL1        0.1715
     46 C         -23.3083    1.2807   27.3335 C.2     1  UNL1        0.0205
@<TRIPOS>BOND
     1     1    42    1
     2     2     7    1
     3     2     1    1
     4     3     2    2
     5     4     3    1
     6     4     5    2
     7     5     6    1
     8     6     7    2
     9     8     1    1
    10     8     9    1
    11     8    12    1
    12     9    10    1
    13    10    11    1
    14    12    11    1
    15    13    41    1
    16    14    13    1
    17    14    15    1
    18    15    18    2
    19    16    17    1
    20    16    15    1
    21    19    14    2
    22    20    21    2
    23    20    19    1
    24    21    26    1
    25    22    21    1
    26    23    22    1
    27    24    23    1
    28    24    25    1
    29    26    27    1
    30    26    13    1
    31    28    34    1
    32    28    35    1
    33    29    33    1
    34    29    30    1
    35    30    35    1
    36    31    46    2
    37    31    39    1
    38    32    42   am
    39    32    37    2
    40    33    34    1
    41    36    40    1
    42    38    32    1
    43    38    40    2
    44    39    36    2
    45    41    46    1
    46    43    44    1
    47    44    31    1
    48    45    30    1
    49    45    42    1
    50    46    38    1
