@<TRIPOS>MOLECULE
No_3735-gen_results/8p0m/2024-11-27-11-27-31/
 13 14 0 0 0
SMALL
GASTEIGER

@<TRIPOS>ATOM
      1 C         -28.0162   -0.8135   28.8779 C.ar    1  UNL1        0.0000
      2 C         -28.4690   -0.7850   29.8287 C.ar    1  UNL1        0.0000
      3 C         -27.1356    0.2359   28.5352 C.ar    1  UNL1        0.0000
      4 C         -26.3351    0.2900   27.2835 C.ar    1  UNL1        0.0001
      5 C         -28.3692    0.1957   30.9236 C.ar    1  UNL1        0.0000
      6 C         -27.5158    1.2655   30.6540 C.ar    1  UNL1        0.0000
      7 C         -26.8411    1.2942   29.4761 C.ar    1  UNL1        0.0001
      8 C         -25.3612    0.7751   26.9673 C.ar    1  UNL1        0.0046
      9 C         -24.8302    1.7669   28.0168 C.ar    1  UNL1        0.0567
     10 C         -25.5666    2.0015   29.2021 C.ar    1  UNL1        0.0046
     11 C         -23.6194    2.6086   27.6652 C.2     1  UNL1        0.2842
     12 N         -22.9140    2.9038   28.4966 N.am    1  UNL1       -0.0837
     13 O         -23.4767    2.9743   26.4716 O.2     1  UNL1       -0.2667
@<TRIPOS>BOND
     1     9    11    1
     2    11    12   am
     3    11    13    2
     4     1     2   ar
     5     2     5   ar
     6     5     6   ar
     7     6     7   ar
     8     3     1   ar
     9     3     4   ar
    10     4     8   ar
    11     8     9   ar
    12     9    10   ar
    13    10     7   ar
    14     7     3   ar
