@<TRIPOS>MOLECULE
No_3736-gen_results/8p0m/2024-11-27-11-27-31/
 18 19 0 0 0
SMALL
GASTEIGER

@<TRIPOS>ATOM
      1 O         -28.1229   -1.3353   28.4874 O.2     1  UNL1       -0.2726
      2 C         -27.4806   -0.4044   28.7094 C.2     1  UNL1        0.2508
      3 C         -27.1904    0.2460   29.5268 C.3     1  UNL1        0.1050
      4 N         -26.6021   -0.1576   27.5515 N.am    1  UNL1       -0.1603
      5 C         -25.6421    0.9031   27.5822 C.ar    1  UNL1        0.1549
      6 C         -25.5004    1.6142   28.7368 C.ar    1  UNL1        0.0313
      7 C         -26.2674    1.2888   29.8086 C.3     1  UNL1        0.0444
      8 N         -24.8851    1.1487   26.4884 N.ar    1  UNL1       -0.1946
      9 C         -23.8891    2.1357   26.6599 C.ar    1  UNL1        0.2578
     10 N         -23.6784    2.7954   27.7133 N.ar    1  UNL1       -0.2098
     11 C         -24.4110    2.5980   28.7501 C.ar    1  UNL1        0.1005
     12 N         -23.1052    2.3871   25.5451 N.pl3   1  UNL1       -0.0860
     13 C         -28.0663   -0.0325   30.8939 C.2     1  UNL1       -0.0170
     14 C         -27.7296    0.0830   31.9339 C.2     1  UNL1       -0.0044
     15 C         -27.6785    0.1912   32.9380 C.2     1  UNL1       -0.0034
     16 C         -27.2214    0.5497   34.2588 C.2     1  UNL1       -0.0058
     17 C         -26.7697    0.5746   35.3043 C.3     1  UNL1        0.1354
     18 N         -26.8501    1.7759   35.6398 N.3     1  UNL1       -0.1262
@<TRIPOS>BOND
     1     1     2    2
     2     2     3    1
     3     2     4   am
     4     4     5    1
     5     6     7    1
     6     9    12    1
     7     3    13    1
     8    13    14    2
     9    14    15    1
    10    15    16    2
    11    16    17    1
    12    17    18    1
    13     3     7    1
    14     5     8   ar
    15     8     9   ar
    16     9    10   ar
    17    10    11   ar
    18    11     6   ar
    19     6     5   ar
