@<TRIPOS>MOLECULE
No_3737-gen_results/8p0m/2024-11-27-11-27-31/
 11 11 0 0 0
SMALL
GASTEIGER

@<TRIPOS>ATOM
      1 CL        -28.1493   -0.8198   28.9079 Cl      1  UNL1       -0.0822
      2 C         -27.8339    0.4961   29.0598 C.ar    1  UNL1        0.0577
      3 C         -27.5135    1.2383   28.0485 C.ar    1  UNL1        0.0113
      4 C         -27.0548    2.6251   28.1330 C.ar    1  UNL1        0.0047
      5 C         -26.9438    3.1838   29.4305 C.ar    1  UNL1        0.0715
      6 C         -27.2205    2.3582   30.5116 C.ar    1  UNL1        0.0047
      7 C         -27.5987    1.0586   30.3700 C.ar    1  UNL1        0.0113
      8 C         -26.4783    4.5613   29.5893 C.3     1  UNL1        0.4186
      9 F         -27.2854    5.4317   29.5451 F       1  UNL1       -0.1659
     10 F         -25.8949    4.6232   30.8452 F       1  UNL1       -0.1659
     11 F         -25.3825    4.6831   28.7577 F       1  UNL1       -0.1659
@<TRIPOS>BOND
     1     1     2    1
     2     5     8    1
     3     8     9    1
     4     8    10    1
     5     8    11    1
     6     2     3   ar
     7     3     4   ar
     8     4     5   ar
     9     5     6   ar
    10     6     7   ar
    11     7     2   ar
