@<TRIPOS>MOLECULE
No_3739-gen_results/8p0m/2024-11-27-11-27-31/
 27 29 0 0 0
SMALL
GASTEIGER

@<TRIPOS>ATOM
      1 C         -28.0162   -0.8135   28.8779 C.ar    1  UNL1       -0.0039
      2 C         -28.4690   -0.7850   29.8287 C.ar    1  UNL1       -0.0003
      3 C         -27.0871    0.2903   28.6377 C.ar    1  UNL1       -0.0178
      4 C         -26.8317    1.2487   29.5869 C.ar    1  UNL1       -0.0039
      5 C         -28.3914    0.0801   31.0065 C.ar    1  UNL1       -0.0000
      6 C         -27.4940    1.1521   30.7841 C.ar    1  UNL1       -0.0003
      7 C         -26.3172    0.3994   27.3653 C.3     1  UNL1        0.0528
      8 C         -24.9405    0.2550   27.5028 C.2     1  UNL1       -0.0197
      9 C         -26.9129    0.5860   26.1397 C.3     1  UNL1        0.0600
     10 C         -28.2688    0.7168   25.9850 C.ar    1  UNL1       -0.0170
     11 C         -28.7657    0.7315   24.6860 C.ar    1  UNL1       -0.0039
     12 C         -30.1595    0.8701   24.4627 C.ar    1  UNL1       -0.0001
     13 C         -30.9938    0.9584   25.5406 C.ar    1  UNL1        0.0066
     14 C         -30.5076    0.9507   26.8390 C.ar    1  UNL1        0.0795
     15 C         -29.1995    0.8714   27.0780 C.ar    1  UNL1        0.0027
     16 C         -26.0349    0.6779   25.0155 C.2     1  UNL1        0.0199
     17 C         -24.0803    1.2786   27.2140 C.2     1  UNL1        0.0426
     18 C         -23.9405    1.7296   25.8033 C.2     1  UNL1        0.0418
     19 C         -24.6710    1.4122   24.8824 C.1     1  UNL1       -0.1050
     20 C         -31.5383    1.1329   27.9374 C.2     1  UNL1        0.3877
     21 O         -32.4862    1.6585   27.7538 O.co2   1  UNL1       -0.2406
     22 O         -31.0265    1.0371   29.1951 O.co2   1  UNL1       -0.2406
     23 C         -22.9088    1.5555   28.1359 C.3     1  UNL1        0.2836
     24 N         -21.7917    1.8985   27.6180 N.2     1  UNL1       -0.2269
     25 F         -23.1860    1.5101   29.3433 F       1  UNL1       -0.1982
     26 BR        -22.0086    0.9241   28.0703 Br      1  UNL1       -0.0162
     27 C         -21.0384    2.3710   26.8324 C.2     1  UNL1        0.1174
@<TRIPOS>BOND
     1     3     7    1
     2     7     8    1
     3     7     9    1
     4     9    10    1
     5     9    16    1
     6     8    17    2
     7    17    18    1
     8    16    19    2
     9    18    19    2
    10    14    20    1
    11    20    21   ar
    12    20    22   ar
    13    17    23    1
    14    23    24    1
    15    23    25    1
    16    23    26    1
    17    24    27    2
    18     1     2   ar
    19     2     5   ar
    20     5     6   ar
    21     6     4   ar
    22     4     3   ar
    23     3     1   ar
    24    10    11   ar
    25    11    12   ar
    26    12    13   ar
    27    13    14   ar
    28    14    15   ar
    29    15    10   ar
