@<TRIPOS>MOLECULE
outputs/IAG933/test6/raw/output_374_IAG933_linker_design_.xyz
 42 45 0 0 0
SMALL
GASTEIGER

@<TRIPOS>ATOM
      1 C         -24.8550   -1.0120   30.1430 C.3     1  UNL1        0.1197
      2 C         -24.9730   -2.5050   29.7880 C.2     1  UNL1       -0.0025
      3 C         -23.9060   -3.1730   29.1460 C.2     1  UNL1       -0.0026
      4 C         -23.9890   -4.5490   28.8530 C.2     1  UNL1       -0.0003
      5 C         -25.1370   -5.2800   29.2050 C.2     1  UNL1       -0.0000
      6 C         -26.2320   -4.6110   29.7840 C.2     1  UNL1       -0.0003
      7 C         -26.1550   -3.2320   30.0650 C.2     1  UNL1       -0.0026
      8 C         -25.3870   -0.6790   31.5710 C.3     1  UNL1        0.0955
      9 C         -25.1890    0.7730   32.0280 C.3     1  UNL1        0.0209
     10 C         -25.3360    0.6840   33.5440 C.3     1  UNL1        0.0203
     11 C         -24.8290   -0.7150   33.9050 C.3     1  UNL1        0.0888
     12 N         -24.7580   -1.4810   32.6460 N.3     1  UNL1       -0.2174
     13 C         -25.6880    1.6140   26.4610 C.2     1  UNL1        0.0394
     14 C         -26.2500    2.9200   26.3950 C.2     1  UNL1        0.0766
     15 C         -25.6420    4.0930   27.1230 C.2     1  UNL1        0.2664
     16 N         -25.6140    5.2520   26.4490 N.am    1  UNL1       -0.1997
     17 C         -25.0260    6.4790   26.9630 C.3     1  UNL1        0.1388
     18 O         -25.1430    3.9660   28.2430 O.2     1  UNL1       -0.2683
     19 C         -27.4380    3.0910   25.6450 C.2     1  UNL1        0.1067
     20 N         -28.0750    2.0890   25.0030 N.2     1  UNL1       -0.2081
     21 C         -27.5430    0.8490   25.0790 C.2     1  UNL1        0.2533
     22 O         -28.1930   -0.2080   24.4770 O.2     1  UNL1       -0.4558
     23 C         -29.4600    0.0050   23.8660 C.3     1  UNL1        0.2426
     24 C         -30.0650   -1.3770   23.5730 C.3     1  UNL1        0.2292
     25 O         -30.7290   -1.8780   24.7210 O.3     1  UNL1       -0.2162
     26 C         -26.3540    0.5760   25.7770 C.2     1  UNL1        0.1931
     27 F         -25.8600   -0.6810   25.7950 F       1  UNL1       -0.1992
     28 O         -27.4935    0.0162   28.5846 O.2     1  UNL1       -0.2500
     29 C         -21.8162    1.1595   27.8937 C.2     1  UNL1        0.1801
     30 F         -20.4991    1.0824   28.1998 F       1  UNL1       -0.2007
     31 N         -26.8584    1.9958   29.5717 N.am    1  UNL1       -0.1272
     32 C         -24.1921    0.6544   28.2955 C.2     1  UNL1        0.0969
     33 C         -27.9950    2.7672   29.5590 C.2     1  UNL1        0.2496
     34 C         -29.3397    2.2619   29.1014 C.3     1  UNL1        0.0969
     35 C         -22.8036    0.5481   28.6991 C.2     1  UNL1        0.2364
     36 C         -22.0090    1.8050   26.6894 C.2     1  UNL1        0.0330
     37 N         -25.2309    0.0445   29.1221 N.am    1  UNL1       -0.2348
     38 C         -23.3213    1.9312   26.2737 C.2     1  UNL1        0.0038
     39 O         -27.9191    3.9781   29.8540 O.2     1  UNL1       -0.2728
     40 C         -24.3943    1.3863   27.0632 C.2     1  UNL1        0.0196
     41 C         -26.5880    0.6861   29.0907 C.2     1  UNL1        0.3339
     42 O         -22.4229   -0.0927   29.7809 O.2     1  UNL1       -0.2828
@<TRIPOS>BOND
     1     1    37    1
     2     2     7    1
     3     2     1    1
     4     3     2    2
     5     4     3    1
     6     4     5    2
     7     5     6    1
     8     6     7    2
     9     8     1    1
    10     8     9    1
    11     8    12    1
    12     9    10    1
    13    10    11    1
    14    12    11    1
    15    13    40    1
    16    14    13    1
    17    14    15    1
    18    15    18    2
    19    16    17    1
    20    16    15    1
    21    19    14    2
    22    20    21    2
    23    20    19    1
    24    21    26    1
    25    22    21    1
    26    23    22    1
    27    24    23    1
    28    24    25    1
    29    26    27    1
    30    26    13    2
    31    28    41    2
    32    29    30    1
    33    29    35    1
    34    32    35    2
    35    32    37    1
    36    33    31    1
    37    33    39    2
    38    34    33    1
    39    35    42    1
    40    36    29    2
    41    38    36    1
    42    38    40    2
    43    40    32    1
    44    41    37   am
    45    41    31    1
