@<TRIPOS>MOLECULE
outputs/IAG933/test6/raw/output_3740_IAG933_linker_design_.xyz
 43 46 0 0 0
SMALL
GASTEIGER

@<TRIPOS>ATOM
      1 C         -24.8550   -1.0120   30.1430 C.3     1  UNL1        0.0698
      2 C         -24.9730   -2.5050   29.7880 C.2     1  UNL1       -0.0184
      3 C         -23.9060   -3.1730   29.1460 C.2     1  UNL1       -0.0041
      4 C         -23.9890   -4.5490   28.8530 C.2     1  UNL1       -0.0003
      5 C         -25.1370   -5.2800   29.2050 C.2     1  UNL1       -0.0000
      6 C         -26.2320   -4.6110   29.7840 C.2     1  UNL1       -0.0003
      7 C         -26.1550   -3.2320   30.0650 C.2     1  UNL1       -0.0041
      8 C         -25.3870   -0.6790   31.5710 C.3     1  UNL1        0.0795
      9 C         -25.1890    0.7730   32.0280 C.3     1  UNL1        0.0193
     10 C         -25.3360    0.6840   33.5440 C.3     1  UNL1        0.0202
     11 C         -24.8290   -0.7150   33.9050 C.3     1  UNL1        0.0887
     12 N         -24.7580   -1.4810   32.6460 N.3     1  UNL1       -0.2190
     13 C         -25.6880    1.6140   26.4610 C.3     1  UNL1        0.0922
     14 C         -26.2500    2.9200   26.3950 C.2     1  UNL1        0.0589
     15 C         -25.6420    4.0930   27.1230 C.2     1  UNL1        0.2628
     16 N         -25.6140    5.2520   26.4490 N.am    1  UNL1       -0.2000
     17 C         -25.0260    6.4790   26.9630 C.3     1  UNL1        0.1388
     18 O         -25.1430    3.9660   28.2430 O.2     1  UNL1       -0.2686
     19 C         -27.4380    3.0910   25.6450 C.2     1  UNL1        0.1025
     20 N         -28.0750    2.0890   25.0030 N.2     1  UNL1       -0.2118
     21 C         -27.5430    0.8490   25.0790 C.2     1  UNL1        0.2344
     22 O         -28.1930   -0.2080   24.4770 O.2     1  UNL1       -0.4585
     23 C         -29.4600    0.0050   23.8660 C.3     1  UNL1        0.2423
     24 C         -30.0650   -1.3770   23.5730 C.3     1  UNL1        0.2292
     25 O         -30.7290   -1.8780   24.7210 O.3     1  UNL1       -0.2162
     26 C         -26.3540    0.5760   25.7770 C.3     1  UNL1        0.2440
     27 F         -25.8600   -0.6810   25.7950 F       1  UNL1       -0.2265
     28 C         -27.4526    0.1748   29.5365 C.3     1  UNL1        0.1425
     29 C         -21.9331    1.8857   26.5289 C.2     1  UNL1        0.0030
     30 O         -26.6793    3.5230   32.2901 O.co2   1  UNL1       -0.2457
     31 C         -22.6102    0.9077   28.6082 C.2     1  UNL1        0.1937
     32 O         -26.4285    5.1698   30.8797 O.co2   1  UNL1       -0.2457
     33 C         -28.4533    2.1828   30.8084 C.3     1  UNL1        0.0144
     34 C         -23.9083    0.8327   28.1202 C.2     1  UNL1        0.0403
     35 C         -24.2627    1.4820   26.9153 C.2     1  UNL1       -0.0137
     36 C         -24.9702   -0.0437   28.8763 C.3     1  UNL1        0.1455
     37 C         -21.5948    1.4192   27.8060 C.2     1  UNL1        0.0418
     38 C         -23.2362    1.9362   26.0594 C.2     1  UNL1       -0.0039
     39 C         -28.1486    3.6173   30.4241 C.3     1  UNL1        0.1141
     40 C         -28.4252    1.3547   29.5782 C.3     1  UNL1        0.0327
     41 O         -22.2976    0.4918   29.8730 O.2     1  UNL1       -0.2868
     42 O         -26.2394    0.6316   28.9225 O.3     1  UNL1       -0.3514
     43 C         -27.0096    4.1327   31.2541 C.2     1  UNL1        0.3649
@<TRIPOS>BOND
     1     1    36    1
     2     2     7    1
     3     2     1    1
     4     3     2    2
     5     4     3    1
     6     4     5    2
     7     5     6    1
     8     6     7    2
     9     8     1    1
    10     8     9    1
    11     8    12    1
    12     9    10    1
    13    10    11    1
    14    12    11    1
    15    13    35    1
    16    14    13    1
    17    14    15    1
    18    15    18    2
    19    16    17    1
    20    16    15    1
    21    19    14    2
    22    20    21    2
    23    20    19    1
    24    21    26    1
    25    22    21    1
    26    23    22    1
    27    24    23    1
    28    24    25    1
    29    26    27    1
    30    26    13    1
    31    28    40    1
    32    29    37    1
    33    31    41    1
    34    32    43   ar
    35    34    31    1
    36    34    36    1
    37    35    34    2
    38    36    42    1
    39    37    31    2
    40    38    29    2
    41    38    35    1
    42    39    33    1
    43    39    43    1
    44    40    33    1
    45    42    28    1
    46    43    30   ar
