@<TRIPOS>MOLECULE
outputs/IAG933/test6/raw/output_3741_IAG933_linker_design_.xyz
 45 49 0 0 0
SMALL
GASTEIGER

@<TRIPOS>ATOM
      1 C         -24.8550   -1.0120   30.1430 C.3     1  UNL1        0.0962
      2 C         -24.9730   -2.5050   29.7880 C.2     1  UNL1       -0.0064
      3 C         -23.9060   -3.1730   29.1460 C.2     1  UNL1       -0.0029
      4 C         -23.9890   -4.5490   28.8530 C.2     1  UNL1       -0.0003
      5 C         -25.1370   -5.2800   29.2050 C.2     1  UNL1       -0.0000
      6 C         -26.2320   -4.6110   29.7840 C.2     1  UNL1       -0.0003
      7 C         -26.1550   -3.2320   30.0650 C.2     1  UNL1       -0.0029
      8 C         -25.3870   -0.6790   31.5710 C.3     1  UNL1        0.0916
      9 C         -25.1890    0.7730   32.0280 C.3     1  UNL1        0.0206
     10 C         -25.3360    0.6840   33.5440 C.3     1  UNL1        0.0203
     11 C         -24.8290   -0.7150   33.9050 C.3     1  UNL1        0.0888
     12 N         -24.7580   -1.4810   32.6460 N.3     1  UNL1       -0.2178
     13 C         -25.6880    1.6140   26.4610 C.2     1  UNL1        0.0169
     14 C         -26.2500    2.9200   26.3950 C.2     1  UNL1        0.0726
     15 C         -25.6420    4.0930   27.1230 C.2     1  UNL1        0.2661
     16 N         -25.6140    5.2520   26.4490 N.am    1  UNL1       -0.1997
     17 C         -25.0260    6.4790   26.9630 C.3     1  UNL1        0.1388
     18 O         -25.1430    3.9660   28.2430 O.2     1  UNL1       -0.2683
     19 C         -27.4380    3.0910   25.6450 C.2     1  UNL1        0.1064
     20 N         -28.0750    2.0890   25.0030 N.2     1  UNL1       -0.2081
     21 C         -27.5430    0.8490   25.0790 C.2     1  UNL1        0.2530
     22 O         -28.1930   -0.2080   24.4770 O.2     1  UNL1       -0.4558
     23 C         -29.4600    0.0050   23.8660 C.3     1  UNL1        0.2426
     24 C         -30.0650   -1.3770   23.5730 C.3     1  UNL1        0.2292
     25 O         -30.7290   -1.8780   24.7210 O.3     1  UNL1       -0.2162
     26 C         -26.3540    0.5760   25.7770 C.2     1  UNL1        0.1891
     27 F         -25.8600   -0.6810   25.7950 F       1  UNL1       -0.1996
     28 N         -25.2299   -0.1828   28.9848 N.3     1  UNL1       -0.2701
     29 C         -22.0548    1.6027   26.8920 C.3     1  UNL1        0.0004
     30 C         -30.8644   -0.8023   28.7271 C.3     1  UNL1        0.0746
     31 C         -31.7633   -3.1279   29.3398 C.3     1  UNL1        0.1181
     32 C         -29.4871   -2.3032   30.1899 C.3     1  UNL1        0.0746
     33 C         -24.6097    1.3007   27.3396 C.3     1  UNL1        0.0395
     34 C         -26.6514    0.2660   29.0451 C.3     1  UNL1        0.0738
     35 C         -31.9727   -5.5102   29.1386 C.3     1  UNL1        0.1740
     36 C         -23.2833    1.2374   29.2189 C.3     1  UNL1        0.0163
     37 C         -22.1974    1.3617   28.4028 C.3     1  UNL1        0.0014
     38 C         -30.3476   -3.4694   29.7187 C.3     1  UNL1        0.0469
     39 C         -24.1846    0.4814   28.3153 C.3     1  UNL1        0.0618
     40 C         -23.1511    1.5573   26.2678 C.3     1  UNL1        0.0058
     41 C         -28.9099   -0.1023   30.0747 C.3     1  UNL1        0.0735
     42 C         -32.0634   -1.7517   28.7148 C.3     1  UNL1        0.0469
     43 N         -30.0975   -0.9914   30.0054 N.3     1  UNL1       -0.2725
     44 C         -27.6785   -0.8244   29.5205 C.3     1  UNL1        0.0346
     45 O         -32.4759   -4.2467   28.8355 O.3     1  UNL1       -0.3535
@<TRIPOS>BOND
     1     1    28    1
     2     2     7    1
     3     2     1    1
     4     3     2    2
     5     4     3    1
     6     4     5    2
     7     5     6    1
     8     6     7    2
     9     8     1    1
    10     8     9    1
    11     8    12    1
    12     9    10    1
    13    10    11    1
    14    12    11    1
    15    14    13    1
    16    14    15    1
    17    15    18    2
    18    16    17    1
    19    16    15    1
    20    19    14    2
    21    20    21    2
    22    20    19    1
    23    21    26    1
    24    22    21    1
    25    23    22    1
    26    24    23    1
    27    24    25    1
    28    26    27    1
    29    26    13    2
    30    28    34    1
    31    29    37    1
    32    30    43    1
    33    31    45    1
    34    31    38    1
    35    33    13    1
    36    33    39    1
    37    34    44    1
    38    37    36    1
    39    38    32    1
    40    39    28    1
    41    39    36    1
    42    40    29    1
    43    40    33    1
    44    42    30    1
    45    42    31    1
    46    43    41    1
    47    43    32    1
    48    44    41    1
    49    45    35    1
