@<TRIPOS>MOLECULE
No_3746-gen_results/8p0m/2024-11-27-11-27-31/
 4 3 0 0 0
SMALL
GASTEIGER

@<TRIPOS>ATOM
      1 O         -28.1229   -1.3353   28.4874 O.2     1  UNL1       -0.2190
      2 C         -27.4806   -0.4044   28.7094 C.2     1  UNL1        0.4834
      3 F         -26.6213   -0.2319   28.0734 F       1  UNL1       -0.1322
      4 F         -27.2970   -0.1406   30.0396 F       1  UNL1       -0.1322
@<TRIPOS>BOND
     1     1     2    2
     2     2     3    1
     3     2     4    1
