@<TRIPOS>MOLECULE
outputs/IAG933/test6/raw/output_3750_IAG933_linker_design_.xyz
 42 46 0 0 0
SMALL
GASTEIGER

@<TRIPOS>ATOM
      1 C         -24.8550   -1.0120   30.1430 C.3     1  UNL1        0.2426
      2 C         -24.9730   -2.5050   29.7880 C.2     1  UNL1        0.0253
      3 C         -23.9060   -3.1730   29.1460 C.2     1  UNL1       -0.0003
      4 C         -23.9890   -4.5490   28.8530 C.2     1  UNL1       -0.0002
      5 C         -25.1370   -5.2800   29.2050 C.2     1  UNL1       -0.0000
      6 C         -26.2320   -4.6110   29.7840 C.2     1  UNL1       -0.0002
      7 C         -26.1550   -3.2320   30.0650 C.2     1  UNL1       -0.0003
      8 C         -25.3870   -0.6790   31.5710 C.3     1  UNL1        0.1239
      9 C         -25.1890    0.7730   32.0280 C.3     1  UNL1        0.0235
     10 C         -25.3360    0.6840   33.5440 C.3     1  UNL1        0.0204
     11 C         -24.8290   -0.7150   33.9050 C.3     1  UNL1        0.0889
     12 N         -24.7580   -1.4810   32.6460 N.3     1  UNL1       -0.2149
     13 C         -25.6880    1.6140   26.4610 C.2     1  UNL1        0.0216
     14 C         -26.2500    2.9200   26.3950 C.2     1  UNL1        0.0706
     15 C         -25.6420    4.0930   27.1230 C.2     1  UNL1        0.2237
     16 N         -25.6140    5.2520   26.4490 N.2     1  UNL1       -0.2356
     17 C         -25.0260    6.4790   26.9630 C.3     1  UNL1        0.1550
     18 O         -25.1430    3.9660   28.2430 O.2     1  UNL1       -0.4358
     19 C         -27.4380    3.0910   25.6450 C.2     1  UNL1        0.1065
     20 N         -28.0750    2.0890   25.0030 N.2     1  UNL1       -0.2081
     21 C         -27.5430    0.8490   25.0790 C.2     1  UNL1        0.2530
     22 O         -28.1930   -0.2080   24.4770 O.2     1  UNL1       -0.4558
     23 C         -29.4600    0.0050   23.8660 C.3     1  UNL1        0.2426
     24 C         -30.0650   -1.3770   23.5730 C.3     1  UNL1        0.2292
     25 O         -30.7290   -1.8780   24.7210 O.3     1  UNL1       -0.2162
     26 C         -26.3540    0.5760   25.7770 C.2     1  UNL1        0.1893
     27 F         -25.8600   -0.6810   25.7950 F       1  UNL1       -0.1996
     28 N         -23.5646   -0.5249   29.9283 N.pl3   1  UNL1       -0.0314
     29 C         -26.6692    4.8467   31.2636 C.2     1  UNL1        0.4602
     30 C         -25.3614    3.6035   29.5287 C.3     1  UNL1        0.3025
     31 C         -24.0069    1.4750   28.7593 C.3     1  UNL1        0.2340
     32 C         -26.0804    3.6785   30.8340 C.3     1  UNL1        0.2094
     33 C         -23.1591    0.4024   29.1721 C.2     1  UNL1        0.3650
     34 C         -21.1537    0.8474   27.8574 C.2     1  UNL1        0.2337
     35 O         -24.4033    2.4023   29.6651 O.3     1  UNL1       -0.3095
     36 N         -27.0727    5.7695   30.3179 N.pl3   1  UNL1        0.1996
     37 N         -26.8167    5.0741   32.5152 N.pl3   1  UNL1        0.1996
     38 C         -23.0578    1.8269   26.4648 C.3     1  UNL1        0.1938
     39 C         -24.1853    1.6549   27.2689 C.3     1  UNL1        0.1012
     40 C         -21.7051    1.5370   26.7574 C.2     1  UNL1        0.0593
     41 N         -21.8230    0.3102   28.9133 N.2     1  UNL1       -0.0348
     42 F         -23.1644    2.5390   25.2690 F       1  UNL1       -0.2319
@<TRIPOS>BOND
     1     1    28    1
     2     2     7    1
     3     2     1    1
     4     3     2    2
     5     4     3    1
     6     4     5    2
     7     5     6    1
     8     6     7    2
     9     8     1    1
    10     8     9    1
    11     8    12    1
    12     9    10    1
    13    10    11    1
    14    12    11    1
    15    14    13    1
    16    14    15    1
    17    15    18    1
    18    16    17    1
    19    16    15    2
    20    18    30    1
    21    19    14    2
    22    20    21    2
    23    20    19    1
    24    21    26    1
    25    22    21    1
    26    23    22    1
    27    24    23    1
    28    24    25    1
    29    26    27    1
    30    26    13    2
    31    29    37    1
    32    30    35    1
    33    30    32    1
    34    31    33    1
    35    31    35    1
    36    32    29    1
    37    33    28    1
    38    34    41    1
    39    36    29    2
    40    38    42    1
    41    38    40    1
    42    38    39    1
    43    39    13    1
    44    39    31    1
    45    40    34    2
    46    41    33    2
