@<TRIPOS>MOLECULE
No_3755-gen_results/8p0m/2024-11-27-11-27-31/
 17 18 0 0 0
SMALL
GASTEIGER

@<TRIPOS>ATOM
      1 C         -28.0162   -0.8135   28.8779 C.ar    1  UNL1        0.0293
      2 C         -28.4690   -0.7850   29.8287 C.ar    1  UNL1        0.1401
      3 C         -26.5455   -0.8762   28.8500 C.ar    1  UNL1       -0.0020
      4 C         -25.8041   -1.0324   30.0571 C.ar    1  UNL1       -0.0227
      5 C         -27.9437   -0.9869   31.2075 C.ar    1  UNL1        0.0293
      6 C         -26.5825   -1.0386   31.2231 C.ar    1  UNL1       -0.0020
      7 F         -29.8926   -0.8492   29.9795 F       1  UNL1       -0.2042
      8 C         -24.3745   -1.0707   30.0619 C.3     1  UNL1        0.0189
      9 C         -23.7096    0.2160   30.0923 C.3     1  UNL1        0.0035
     10 C         -23.1810    0.8061   28.9411 C.3     1  UNL1        0.0003
     11 C         -23.6412    2.0185   28.4113 C.3     1  UNL1        0.0000
     12 C         -24.6551    2.6170   29.0693 C.3     1  UNL1        0.0000
     13 C         -24.8809    2.4070   30.4603 C.3     1  UNL1        0.0000
     14 C         -24.9184    1.1521   30.6373 C.3     1  UNL1        0.0003
     15 C         -22.5586    0.2425   31.1771 C.3     1  UNL1        0.0003
     16 C         -23.9744   -2.0395   31.1392 C.3     1  UNL1        0.0044
     17 C         -23.8937   -1.7526   28.6682 C.3     1  UNL1        0.0044
@<TRIPOS>BOND
     1     2     7    1
     2     4     8    1
     3     8     9    1
     4     9    10    1
     5    11    12    1
     6     9    14    1
     7    13    14    1
     8     9    15    1
     9     8    16    1
    10     8    17    1
    11    10    11    1
    12    12    13    1
    13     1     2   ar
    14     2     5   ar
    15     5     6   ar
    16     6     4   ar
    17     4     3   ar
    18     3     1   ar
