@<TRIPOS>MOLECULE
No_3756-gen_results/8p0m/2024-11-27-11-27-31/
 22 26 0 0 0
SMALL
GASTEIGER

@<TRIPOS>ATOM
      1 C         -28.0162   -0.8135   28.8779 C.ar    1  UNL1       -0.0025
      2 C         -28.4690   -0.7850   29.8287 C.ar    1  UNL1        0.0029
      3 C         -27.1356    0.2359   28.5352 C.ar    1  UNL1       -0.0011
      4 C         -26.3351    0.2900   27.2835 C.3     1  UNL1        0.0552
      5 C         -28.3692    0.1957   30.9236 C.ar    1  UNL1        0.0388
      6 C         -27.5158    1.2655   30.6540 C.ar    1  UNL1        0.1584
      7 C         -26.8411    1.2942   29.4761 C.ar    1  UNL1        0.0831
      8 C         -25.6774    1.5199   26.9774 C.ar    1  UNL1       -0.0041
      9 C         -24.6512    1.5543   26.2096 C.ar    1  UNL1       -0.0027
     10 C         -23.8845    2.8925   26.0981 C.ar    1  UNL1       -0.0002
     11 C         -24.3714    4.0011   26.8162 C.ar    1  UNL1        0.0013
     12 C         -25.5145    3.8796   27.5451 C.ar    1  UNL1        0.0145
     13 C         -26.1261    2.6350   27.7527 C.ar    1  UNL1        0.0482
     14 N         -26.7823    2.5336   28.9410 N.pl3   1  UNL1       -0.2805
     15 C         -27.2258    3.7324   29.5839 C.3     1  UNL1        0.1252
     16 C         -28.5128    3.7930   29.8241 C.ar    1  UNL1        0.0325
     17 C         -29.1434    4.5899   29.4607 C.ar    1  UNL1        0.0004
     18 C         -30.6345    4.5026   29.5256 C.ar    1  UNL1       -0.0001
     19 C         -31.1660    3.4463   30.2045 C.ar    1  UNL1        0.0031
     20 C         -30.3987    2.4795   30.6690 C.ar    1  UNL1        0.0372
     21 C         -29.0185    2.5951   30.5011 C.ar    1  UNL1        0.1429
     22 O         -28.3636    2.3091   31.4693 O.3     1  UNL1       -0.4525
@<TRIPOS>BOND
     1     3     4    1
     2     4     8    1
     3     7    14    1
     4    13    14    1
     5    14    15    1
     6    15    16    1
     7     6    22    1
     8    21    22    1
     9     8     9   ar
    10     9    10   ar
    11    10    11   ar
    12    11    12   ar
    13    12    13   ar
    14    13     8   ar
    15     1     2   ar
    16     2     5   ar
    17     5     6   ar
    18     6     7   ar
    19     7     3   ar
    20     3     1   ar
    21    16    17   ar
    22    17    18   ar
    23    18    19   ar
    24    19    20   ar
    25    20    21   ar
    26    21    16   ar
