@<TRIPOS>MOLECULE
No_3757-gen_results/8p0m/2024-11-27-11-27-31/
 16 17 0 0 0
SMALL
GASTEIGER

@<TRIPOS>ATOM
      1 F         -28.0727   -1.2542   28.5316 F       1  UNL1       -0.2045
      2 C         -28.2662   -0.4214   29.1931 C.ar    1  UNL1        0.1361
      3 C         -27.2356   -0.0574   30.0145 C.ar    1  UNL1        0.0050
      4 C         -27.2606    1.1013   30.9347 C.ar    1  UNL1       -0.0021
      5 C         -29.4969    0.3179   29.2904 C.ar    1  UNL1        0.0293
      6 C         -29.5573    1.4396   30.2037 C.ar    1  UNL1        0.0023
      7 C         -28.4535    1.8015   31.0013 C.ar    1  UNL1       -0.0002
      8 C         -25.9447   -0.7424   30.0259 C.3     1  UNL1        0.0249
      9 C         -25.0381   -0.4319   29.0064 C.3     1  UNL1        0.0104
     10 C         -24.0081    0.4951   29.2845 C.3     1  UNL1        0.0436
     11 C         -23.1431    0.1557   30.1289 C.3     1  UNL1        0.0060
     12 C         -23.9016    1.6291   28.3707 C.2     1  UNL1        0.0953
     13 N         -22.7680    1.9306   27.8991 N.2     1  UNL1       -0.1514
     14 C         -23.2225   -0.9299   30.9612 C.3     1  UNL1        0.0004
     15 C         -25.6953   -1.7873   30.9780 C.3     1  UNL1        0.0044
     16 C         -24.3677   -1.4897   31.6365 C.3     1  UNL1        0.0003
@<TRIPOS>BOND
     1     1     2    1
     2     3     8    1
     3     8     9    1
     4     9    10    1
     5    10    11    1
     6    10    12    1
     7    12    13    2
     8    11    14    1
     9     8    15    1
    10    14    16    1
    11    15    16    1
    12     2     3   ar
    13     3     4   ar
    14     4     7   ar
    15     7     6   ar
    16     6     5   ar
    17     5     2   ar
