@<TRIPOS>MOLECULE
No_3758-gen_results/8p0m/2024-11-27-11-27-31/
 18 20 0 0 0
SMALL
GASTEIGER

@<TRIPOS>ATOM
      1 C         -28.0162   -0.8135   28.8779 C.ar    1  UNL1       -0.0003
      2 C         -28.4690   -0.7850   29.8287 C.ar    1  UNL1       -0.0000
      3 C         -26.5042   -0.7777   28.8766 C.ar    1  UNL1       -0.0042
      4 C         -25.8103   -0.8531   30.1028 C.ar    1  UNL1       -0.0213
      5 C         -27.9906   -0.8916   31.2257 C.ar    1  UNL1       -0.0003
      6 C         -26.6042   -0.8676   31.2652 C.ar    1  UNL1       -0.0042
      7 C         -24.3894   -0.8049   30.1638 C.3     1  UNL1        0.0430
      8 C         -23.8172    0.4762   29.9118 C.3     1  UNL1        0.1358
      9 C         -24.1955    1.5984   30.1917 C.2     1  UNL1        0.3041
     10 N         -23.6267    2.6425   29.5764 N.2     1  UNL1       -0.0407
     11 C         -22.6916    0.7061   28.8890 C.2     1  UNL1        0.0364
     12 C         -22.6350    1.9839   28.6989 C.2     1  UNL1        0.2313
     13 N         -25.1713    1.9824   31.1969 N.pl3   1  UNL1       -0.1938
     14 C         -24.9222    2.1980   32.5138 C.3     1  UNL1        0.2020
     15 C         -26.3459    2.6607   30.7126 C.3     1  UNL1        0.2020
     16 C         -27.3555    2.9430   31.6624 C.3     1  UNL1        0.0509
     17 C         -26.9991    3.1562   33.0235 C.3     1  UNL1        0.0085
     18 C         -25.9997    3.2270   33.3478 C.3     1  UNL1        0.0509
@<TRIPOS>BOND
     1     4     7    1
     2     7     8    1
     3     8     9    1
     4     9    10    2
     5     8    11    1
     6    10    12    1
     7    11    12    2
     8     9    13    1
     9    13    14    1
    10    13    15    1
    11    16    17    1
    12    14    18    1
    13    18    17    1
    14    16    15    1
    15     1     2   ar
    16     2     5   ar
    17     5     6   ar
    18     6     4   ar
    19     4     3   ar
    20     3     1   ar
