@<TRIPOS>MOLECULE
outputs/IAG933/test6/raw/output_376_IAG933_linker_design_.xyz
 43 46 0 0 0
SMALL
GASTEIGER

@<TRIPOS>ATOM
      1 C         -24.8550   -1.0120   30.1430 C.3     1  UNL1        0.2073
      2 C         -24.9730   -2.5050   29.7880 C.2     1  UNL1        0.0187
      3 C         -23.9060   -3.1730   29.1460 C.2     1  UNL1       -0.0008
      4 C         -23.9890   -4.5490   28.8530 C.2     1  UNL1       -0.0002
      5 C         -25.1370   -5.2800   29.2050 C.2     1  UNL1       -0.0000
      6 C         -26.2320   -4.6110   29.7840 C.2     1  UNL1       -0.0002
      7 C         -26.1550   -3.2320   30.0650 C.2     1  UNL1       -0.0008
      8 C         -25.3870   -0.6790   31.5710 C.3     1  UNL1        0.1368
      9 C         -25.1890    0.7730   32.0280 C.3     1  UNL1        0.1166
     10 C         -25.3360    0.6840   33.5440 C.3     1  UNL1        0.0420
     11 C         -24.8290   -0.7150   33.9050 C.3     1  UNL1        0.0907
     12 N         -24.7580   -1.4810   32.6460 N.3     1  UNL1       -0.2136
     13 C         -25.6880    1.6140   26.4610 C.2     1  UNL1        0.1045
     14 C         -26.2500    2.9200   26.3950 C.2     1  UNL1        0.0927
     15 C         -25.6420    4.0930   27.1230 C.2     1  UNL1        0.2678
     16 N         -25.6140    5.2520   26.4490 N.am    1  UNL1       -0.1997
     17 C         -25.0260    6.4790   26.9630 C.3     1  UNL1        0.1388
     18 O         -25.1430    3.9660   28.2430 O.2     1  UNL1       -0.2683
     19 C         -27.4380    3.0910   25.6450 C.2     1  UNL1        0.1082
     20 N         -28.0750    2.0890   25.0030 N.2     1  UNL1       -0.2080
     21 C         -27.5430    0.8490   25.0790 C.2     1  UNL1        0.2548
     22 O         -28.1930   -0.2080   24.4770 O.2     1  UNL1       -0.4558
     23 C         -29.4600    0.0050   23.8660 C.3     1  UNL1        0.2426
     24 C         -30.0650   -1.3770   23.5730 C.3     1  UNL1        0.2292
     25 O         -30.7290   -1.8780   24.7210 O.3     1  UNL1       -0.2162
     26 C         -26.3540    0.5760   25.7770 C.2     1  UNL1        0.2091
     27 F         -25.8600   -0.6810   25.7950 F       1  UNL1       -0.1977
     28 C         -24.2355    0.6140   28.2991 C.ar    1  UNL1        0.2296
     29 C         -22.2291    1.4321   27.6085 C.ar    1  UNL1        0.1759
     30 O         -23.9323    2.9306   31.2660 O.2     1  UNL1       -0.2733
     31 N         -25.5686    5.8636   33.9022 N.3     1  UNL1       -0.1309
     32 C         -23.1404    1.7254   26.6502 C.ar    1  UNL1        0.1085
     33 C         -25.0231    3.0344   31.3865 C.2     1  UNL1        0.2429
     34 C         -22.7960    2.1902   25.4823 C.3     1  UNL1        0.2394
     35 C         -22.8790    0.7917   28.6168 C.ar    1  UNL1        0.1691
     36 O         -25.1145   -0.1968   29.0275 O.3     1  UNL1       -0.4578
     37 F         -21.6170    2.2784   25.1168 F       1  UNL1       -0.2274
     38 F         -20.9317    1.7271   27.5907 F       1  UNL1       -0.2013
     39 C         -25.6470    4.2913   31.9993 C.3     1  UNL1        0.1073
     40 N         -25.6684    1.8768   31.1607 N.am    1  UNL1       -0.2055
     41 N         -22.3430    0.2705   29.6559 N.pl3   1  UNL1       -0.1208
     42 C         -24.9136    4.6202   33.3220 C.3     1  UNL1        0.1189
     43 N         -24.4334    1.3603   27.0965 N.ar    1  UNL1       -0.2732
@<TRIPOS>BOND
     1     1    36    1
     2     2     7    1
     3     2     1    1
     4     3     2    2
     5     4     3    1
     6     4     5    2
     7     5     6    1
     8     6     7    2
     9     8     1    1
    10     8     9    1
    11     8    12    1
    12     9    40    1
    13     9    10    1
    14    10    11    1
    15    12    11    1
    16    13    43    1
    17    14    13    1
    18    14    15    1
    19    15    18    2
    20    16    17    1
    21    16    15    1
    22    19    14    2
    23    20    21    2
    24    20    19    1
    25    21    26    1
    26    22    21    1
    27    23    22    1
    28    24    23    1
    29    24    25    1
    30    26    27    1
    31    26    13    2
    32    28    35   ar
    33    28    36    1
    34    29    35   ar
    35    30    33    2
    36    32    43   ar
    37    32    29   ar
    38    33    39    1
    39    34    32    1
    40    35    41    1
    41    37    34    1
    42    38    29    1
    43    39    42    1
    44    40    33    1
    45    42    31    1
    46    43    28   ar
