@<TRIPOS>MOLECULE
outputs/IAG933/test6/raw/output_3760_IAG933_linker_design_.xyz
 47 51 0 0 0
SMALL
GASTEIGER

@<TRIPOS>ATOM
      1 C         -24.8550   -1.0120   30.1430 C.3     1  UNL1        0.0658
      2 C         -24.9730   -2.5050   29.7880 C.2     1  UNL1       -0.0188
      3 C         -23.9060   -3.1730   29.1460 C.2     1  UNL1       -0.0042
      4 C         -23.9890   -4.5490   28.8530 C.2     1  UNL1       -0.0003
      5 C         -25.1370   -5.2800   29.2050 C.2     1  UNL1       -0.0000
      6 C         -26.2320   -4.6110   29.7840 C.2     1  UNL1       -0.0003
      7 C         -26.1550   -3.2320   30.0650 C.2     1  UNL1       -0.0042
      8 C         -25.3870   -0.6790   31.5710 C.3     1  UNL1        0.0792
      9 C         -25.1890    0.7730   32.0280 C.3     1  UNL1        0.0193
     10 C         -25.3360    0.6840   33.5440 C.3     1  UNL1        0.0202
     11 C         -24.8290   -0.7150   33.9050 C.3     1  UNL1        0.0887
     12 N         -24.7580   -1.4810   32.6460 N.3     1  UNL1       -0.2190
     13 C         -25.6880    1.6140   26.4610 C.2     1  UNL1        0.0191
     14 C         -26.2500    2.9200   26.3950 C.2     1  UNL1        0.0727
     15 C         -25.6420    4.0930   27.1230 C.2     1  UNL1        0.2661
     16 N         -25.6140    5.2520   26.4490 N.am    1  UNL1       -0.1997
     17 C         -25.0260    6.4790   26.9630 C.3     1  UNL1        0.1388
     18 O         -25.1430    3.9660   28.2430 O.2     1  UNL1       -0.2683
     19 C         -27.4380    3.0910   25.6450 C.2     1  UNL1        0.1064
     20 N         -28.0750    2.0890   25.0030 N.2     1  UNL1       -0.2081
     21 C         -27.5430    0.8490   25.0790 C.2     1  UNL1        0.2530
     22 O         -28.1930   -0.2080   24.4770 O.2     1  UNL1       -0.4558
     23 C         -29.4600    0.0050   23.8660 C.3     1  UNL1        0.2426
     24 C         -30.0650   -1.3770   23.5730 C.3     1  UNL1        0.2292
     25 O         -30.7290   -1.8780   24.7210 O.3     1  UNL1       -0.2162
     26 C         -26.3540    0.5760   25.7770 C.2     1  UNL1        0.1892
     27 F         -25.8600   -0.6810   25.7950 F       1  UNL1       -0.1996
     28 C         -29.3911    0.2202   29.0967 C.2     1  UNL1        0.1918
     29 C         -28.7343    2.7177   30.0635 C.2     1  UNL1        0.0102
     30 C         -27.1098   -0.3162   28.7003 C.3     1  UNL1        0.0595
     31 C         -24.2039    0.3055   28.2427 C.3     1  UNL1        0.1204
     32 O         -25.1760    0.8315   28.9949 O.3     1  UNL1       -0.3576
     33 C         -27.1674    4.0888   31.2466 C.3     1  UNL1        0.2193
     34 C         -27.8036    1.9991   29.3462 C.2     1  UNL1       -0.0028
     35 C         -25.9975   -0.1722   29.5191 C.3     1  UNL1        0.1249
     36 O         -29.7791   -0.9903   28.4732 O.2     1  UNL1       -0.2869
     37 C         -28.0848    0.6653   29.0098 C.2     1  UNL1        0.0189
     38 C         -29.9685    2.2217   30.2457 C.2     1  UNL1        0.0015
     39 C         -21.9497    1.3652   27.8694 C.3     1  UNL1        0.0192
     40 C         -30.3083    1.0125   29.7147 C.2     1  UNL1        0.0415
     41 O         -27.1731    4.8682   32.3559 O.3     1  UNL1       -0.2172
     42 C         -22.9647    1.6045   26.8431 C.3     1  UNL1        0.0864
     43 C         -24.3286    1.2676   27.1475 C.3     1  UNL1        0.0671
     44 C         -22.9174    0.7866   28.9535 C.3     1  UNL1        0.0312
     45 C         -28.3526    4.0304   30.6015 C.3     1  UNL1        0.2070
     46 O         -29.5609    4.3830   31.3982 O.3     1  UNL1       -0.2155
     47 CL        -22.5943    2.4956   25.4716 Cl      1  UNL1       -0.1146
@<TRIPOS>BOND
     1     1    35    1
     2     2     7    1
     3     2     1    1
     4     3     2    2
     5     4     3    1
     6     4     5    2
     7     5     6    1
     8     6     7    2
     9     8     1    1
    10     8     9    1
    11     8    12    1
    12     9    10    1
    13    10    11    1
    14    12    11    1
    15    14    13    1
    16    14    15    1
    17    15    18    2
    18    16    17    1
    19    16    15    1
    20    19    14    2
    21    20    21    2
    22    20    19    1
    23    21    26    1
    24    22    21    1
    25    23    22    1
    26    24    23    1
    27    24    25    1
    28    26    27    1
    29    26    13    2
    30    28    40    1
    31    29    38    1
    32    29    45    1
    33    30    37    1
    34    31    44    1
    35    31    32    1
    36    32    35    1
    37    33    41    1
    38    34    29    2
    39    35    30    1
    40    36    28    1
    41    37    28    2
    42    37    34    1
    43    39    44    1
    44    40    38    2
    45    42    47    1
    46    42    43    1
    47    42    39    1
    48    43    13    1
    49    43    31    1
    50    45    33    1
    51    45    46    1
