@<TRIPOS>MOLECULE
No_3762-gen_results/8p0m/2024-11-27-11-27-31/
 20 21 0 0 0
SMALL
GASTEIGER

@<TRIPOS>ATOM
      1 C         -28.0162   -0.8135   28.8779 C.ar    1  UNL1       -0.0039
      2 C         -28.4690   -0.7850   29.8287 C.ar    1  UNL1       -0.0003
      3 C         -27.1356    0.2359   28.5352 C.ar    1  UNL1       -0.0181
      4 C         -26.8745    1.2825   29.3982 C.ar    1  UNL1       -0.0039
      5 C         -27.5070    1.2380   30.6295 C.ar    1  UNL1       -0.0003
      6 C         -28.3293    0.1745   30.9350 C.ar    1  UNL1       -0.0000
      7 C         -26.4077    0.3070   27.2259 C.3     1  UNL1        0.0486
      8 C         -26.8748    0.8389   26.2127 C.3     1  UNL1        0.0341
      9 C         -25.0813   -0.2883   27.1835 C.2     1  UNL1       -0.0217
     10 C         -28.1776    1.4121   26.1391 C.3     1  UNL1        0.0270
     11 C         -29.1025    1.0983   25.7418 C.ar    1  UNL1       -0.0222
     12 C         -29.2651   -0.2903   25.2660 C.ar    1  UNL1       -0.0043
     13 C         -30.5436   -0.8103   24.7737 C.ar    1  UNL1       -0.0003
     14 C         -26.1816    0.4421   24.9955 C.2     1  UNL1       -0.0255
     15 C         -30.3996    1.7936   25.6333 C.ar    1  UNL1       -0.0043
     16 C         -31.6170    1.2831   25.1729 C.ar    1  UNL1       -0.0003
     17 C         -31.6131   -0.0528   24.6865 C.ar    1  UNL1       -0.0000
     18 C         -27.8606    2.9742   26.0381 C.3     1  UNL1        0.0050
     19 C         -24.4462   -0.5863   28.5441 C.2     1  UNL1       -0.0046
     20 C         -24.9684   -0.0653   24.9304 C.2     1  UNL1       -0.0049
@<TRIPOS>BOND
     1     3     7    1
     2     7     8    1
     3     7     9    1
     4     8    10    1
     5     8    14    1
     6    10    18    1
     7     9    19    2
     8    14    20    2
     9    10    11    1
    10     1     2   ar
    11     2     6   ar
    12     6     5   ar
    13     5     4   ar
    14     4     3   ar
    15     3     1   ar
    16    11    12   ar
    17    12    13   ar
    18    13    17   ar
    19    17    16   ar
    20    16    15   ar
    21    15    11   ar
