@<TRIPOS>MOLECULE
outputs/IAG933/test6/raw/output_3766_IAG933_linker_design_.xyz
 45 47 0 0 0
SMALL
GASTEIGER

@<TRIPOS>ATOM
      1 C         -24.8550   -1.0120   30.1430 C.3     1  UNL1        0.0439
      2 C         -24.9730   -2.5050   29.7880 C.2     1  UNL1       -0.0208
      3 C         -23.9060   -3.1730   29.1460 C.2     1  UNL1       -0.0042
      4 C         -23.9890   -4.5490   28.8530 C.2     1  UNL1       -0.0003
      5 C         -25.1370   -5.2800   29.2050 C.2     1  UNL1       -0.0000
      6 C         -26.2320   -4.6110   29.7840 C.2     1  UNL1       -0.0003
      7 C         -26.1550   -3.2320   30.0650 C.2     1  UNL1       -0.0042
      8 C         -25.3870   -0.6790   31.5710 C.3     1  UNL1        0.0820
      9 C         -25.1890    0.7730   32.0280 C.3     1  UNL1        0.0742
     10 C         -25.3360    0.6840   33.5440 C.3     1  UNL1        0.0252
     11 C         -24.8290   -0.7150   33.9050 C.3     1  UNL1        0.0889
     12 N         -24.7580   -1.4810   32.6460 N.3     1  UNL1       -0.2189
     13 C         -25.6880    1.6140   26.4610 C.2     1  UNL1        0.0320
     14 C         -26.2500    2.9200   26.3950 C.2     1  UNL1        0.0739
     15 C         -25.6420    4.0930   27.1230 C.2     1  UNL1        0.2662
     16 N         -25.6140    5.2520   26.4490 N.am    1  UNL1       -0.1997
     17 C         -25.0260    6.4790   26.9630 C.3     1  UNL1        0.1388
     18 O         -25.1430    3.9660   28.2430 O.2     1  UNL1       -0.2683
     19 C         -27.4380    3.0910   25.6450 C.2     1  UNL1        0.1065
     20 N         -28.0750    2.0890   25.0030 N.2     1  UNL1       -0.2081
     21 C         -27.5430    0.8490   25.0790 C.2     1  UNL1        0.2530
     22 O         -28.1930   -0.2080   24.4770 O.2     1  UNL1       -0.4558
     23 C         -29.4600    0.0050   23.8660 C.3     1  UNL1        0.2426
     24 C         -30.0650   -1.3770   23.5730 C.3     1  UNL1        0.2292
     25 O         -30.7290   -1.8780   24.7210 O.3     1  UNL1       -0.2162
     26 C         -26.3540    0.5760   25.7770 C.2     1  UNL1        0.1904
     27 F         -25.8600   -0.6810   25.7950 F       1  UNL1       -0.1995
     28 C         -22.5162    0.5505   29.4526 C.3     1  UNL1        0.1606
     29 C         -24.6432    1.2287   27.4229 C.3     1  UNL1        0.1018
     30 C         -24.3578    1.7604   31.2013 C.3     1  UNL1        0.2364
     31 O         -24.6276    3.0712   31.4014 O.3     1  UNL1       -0.3304
     32 C         -27.3254    9.1634   34.2395 C.3     1  UNL1        0.1742
     33 C         -25.8054    3.6016   32.0123 C.3     1  UNL1        0.1463
     34 C         -23.0852    2.3770   25.8320 C.3     1  UNL1        0.0899
     35 C         -25.2574    5.8784   32.4245 C.3     1  UNL1        0.0913
     36 C         -24.7573    7.2033   35.2918 C.3     1  UNL1        0.0215
     37 N         -23.3475    1.9281   27.2465 N.3     1  UNL1       -0.2667
     38 O         -23.6563    1.3334   30.1009 O.3     1  UNL1       -0.3290
     39 C         -20.8863    1.3994   27.5257 C.3     1  UNL1        0.0200
     40 C         -26.0939    7.0253   34.5099 C.3     1  UNL1        0.1024
     41 C         -27.4860    6.9150   35.0038 C.3     1  UNL1        0.1595
     42 C         -22.2995    1.2094   28.0839 C.3     1  UNL1        0.0877
     43 O         -26.9782    8.0648   35.1060 O.3     1  UNL1       -0.3496
     44 N         -26.0238    5.7757   33.6486 N.3     1  UNL1       -0.2168
     45 C         -26.1185    4.9887   31.4942 C.3     1  UNL1        0.0509
@<TRIPOS>BOND
     1     2     7    1
     2     2     1    1
     3     3     2    2
     4     4     3    1
     5     4     5    2
     6     5     6    1
     7     6     7    2
     8     8     1    1
     9     8     9    1
    10     8    12    1
    11     9    30    1
    12     9    10    1
    13    10    11    1
    14    12    11    1
    15    13    29    1
    16    14    13    1
    17    14    15    1
    18    15    18    2
    19    16    17    1
    20    16    15    1
    21    19    14    2
    22    20    21    2
    23    20    19    1
    24    21    26    1
    25    22    21    1
    26    23    22    1
    27    24    23    1
    28    24    25    1
    29    26    27    1
    30    26    13    2
    31    28    38    1
    32    30    38    1
    33    30    31    1
    34    31    33    1
    35    32    43    1
    36    34    37    1
    37    35    44    1
    38    37    29    1
    39    37    42    1
    40    40    41    1
    41    40    36    1
    42    41    43    1
    43    42    39    1
    44    42    28    1
    45    44    40    1
    46    45    33    1
    47    45    35    1
