@<TRIPOS>MOLECULE
outputs/IAG933/test6/raw/output_3767_IAG933_linker_design_.xyz
 40 43 0 0 0
SMALL
GASTEIGER

@<TRIPOS>ATOM
      1 C         -24.8550   -1.0120   30.1430 C.3     1  UNL1        0.1196
      2 C         -24.9730   -2.5050   29.7880 C.2     1  UNL1       -0.0025
      3 C         -23.9060   -3.1730   29.1460 C.2     1  UNL1       -0.0026
      4 C         -23.9890   -4.5490   28.8530 C.2     1  UNL1       -0.0003
      5 C         -25.1370   -5.2800   29.2050 C.2     1  UNL1       -0.0000
      6 C         -26.2320   -4.6110   29.7840 C.2     1  UNL1       -0.0003
      7 C         -26.1550   -3.2320   30.0650 C.2     1  UNL1       -0.0026
      8 C         -25.3870   -0.6790   31.5710 C.3     1  UNL1        0.0955
      9 C         -25.1890    0.7730   32.0280 C.3     1  UNL1        0.0209
     10 C         -25.3360    0.6840   33.5440 C.3     1  UNL1        0.0203
     11 C         -24.8290   -0.7150   33.9050 C.3     1  UNL1        0.0888
     12 N         -24.7580   -1.4810   32.6460 N.3     1  UNL1       -0.2174
     13 C         -25.6880    1.6140   26.4610 C.2     1  UNL1        0.0393
     14 C         -26.2500    2.9200   26.3950 C.2     1  UNL1        0.0766
     15 C         -25.6420    4.0930   27.1230 C.2     1  UNL1        0.2664
     16 N         -25.6140    5.2520   26.4490 N.am    1  UNL1       -0.1997
     17 C         -25.0260    6.4790   26.9630 C.3     1  UNL1        0.1388
     18 O         -25.1430    3.9660   28.2430 O.2     1  UNL1       -0.2683
     19 C         -27.4380    3.0910   25.6450 C.2     1  UNL1        0.1067
     20 N         -28.0750    2.0890   25.0030 N.2     1  UNL1       -0.2081
     21 C         -27.5430    0.8490   25.0790 C.2     1  UNL1        0.2533
     22 O         -28.1930   -0.2080   24.4770 O.2     1  UNL1       -0.4558
     23 C         -29.4600    0.0050   23.8660 C.3     1  UNL1        0.2426
     24 C         -30.0650   -1.3770   23.5730 C.3     1  UNL1        0.2292
     25 O         -30.7290   -1.8780   24.7210 O.3     1  UNL1       -0.2162
     26 C         -26.3540    0.5760   25.7770 C.2     1  UNL1        0.1931
     27 F         -25.8600   -0.6810   25.7950 F       1  UNL1       -0.1992
     28 C         -23.2244    1.8693   26.3067 C.2     1  UNL1        0.0013
     29 C         -22.7755    0.5395   28.7312 C.2     1  UNL1        0.0150
     30 C         -24.1367    0.6813   28.3312 C.2     1  UNL1        0.0557
     31 C         -26.6677    0.1619   28.7666 C.2     1  UNL1        0.3338
     32 C         -29.1472    2.8210   29.6319 C.3     1  UNL1        0.0969
     33 N         -25.1786    0.0149   29.0956 N.am    1  UNL1       -0.2379
     34 C         -21.6920    1.0844   28.0282 C.2     1  UNL1        0.0013
     35 C         -21.9195    1.7809   26.8201 C.2     1  UNL1        0.0001
     36 O         -27.2945   -0.7402   28.3076 O.2     1  UNL1       -0.2500
     37 N         -27.2017    1.3733   29.1034 N.am    1  UNL1       -0.1272
     38 C         -24.3600    1.3950   27.0759 C.2     1  UNL1        0.0163
     39 O         -29.3109    0.5818   29.3506 O.2     1  UNL1       -0.2728
     40 C         -28.5491    1.4798   29.3329 C.2     1  UNL1        0.2496
@<TRIPOS>BOND
     1     1    33    1
     2     2     7    1
     3     2     1    1
     4     3     2    2
     5     4     3    1
     6     4     5    2
     7     5     6    1
     8     6     7    2
     9     8     1    1
    10     8     9    1
    11     8    12    1
    12     9    10    1
    13    10    11    1
    14    12    11    1
    15    13    38    1
    16    14    13    1
    17    14    15    1
    18    15    18    2
    19    16    17    1
    20    16    15    1
    21    19    14    2
    22    20    21    2
    23    20    19    1
    24    21    26    1
    25    22    21    1
    26    23    22    1
    27    24    23    1
    28    24    25    1
    29    26    27    1
    30    26    13    2
    31    28    35    2
    32    28    38    1
    33    30    29    1
    34    30    33    1
    35    31    33   am
    36    31    37    1
    37    34    29    2
    38    35    34    1
    39    36    31    2
    40    37    40    1
    41    38    30    2
    42    40    39    2
    43    40    32    1
