@<TRIPOS>MOLECULE
outputs/IAG933/test6/raw/output_3769_IAG933_linker_design_.xyz
 44 47 0 0 0
SMALL
GASTEIGER

@<TRIPOS>ATOM
      1 C         -24.8550   -1.0120   30.1430 C.3     1  UNL1        0.0400
      2 C         -24.9730   -2.5050   29.7880 C.2     1  UNL1       -0.0211
      3 C         -23.9060   -3.1730   29.1460 C.2     1  UNL1       -0.0042
      4 C         -23.9890   -4.5490   28.8530 C.2     1  UNL1       -0.0003
      5 C         -25.1370   -5.2800   29.2050 C.2     1  UNL1       -0.0000
      6 C         -26.2320   -4.6110   29.7840 C.2     1  UNL1       -0.0003
      7 C         -26.1550   -3.2320   30.0650 C.2     1  UNL1       -0.0042
      8 C         -25.3870   -0.6790   31.5710 C.3     1  UNL1        0.0769
      9 C         -25.1890    0.7730   32.0280 C.3     1  UNL1        0.0192
     10 C         -25.3360    0.6840   33.5440 C.3     1  UNL1        0.0202
     11 C         -24.8290   -0.7150   33.9050 C.3     1  UNL1        0.0887
     12 N         -24.7580   -1.4810   32.6460 N.3     1  UNL1       -0.2191
     13 C         -25.6880    1.6140   26.4610 C.3     1  UNL1        0.0897
     14 C         -26.2500    2.9200   26.3950 C.2     1  UNL1        0.0565
     15 C         -25.6420    4.0930   27.1230 C.2     1  UNL1        0.2625
     16 N         -25.6140    5.2520   26.4490 N.am    1  UNL1       -0.2000
     17 C         -25.0260    6.4790   26.9630 C.3     1  UNL1        0.1388
     18 O         -25.1430    3.9660   28.2430 O.2     1  UNL1       -0.2687
     19 C         -27.4380    3.0910   25.6450 C.2     1  UNL1        0.1022
     20 N         -28.0750    2.0890   25.0030 N.2     1  UNL1       -0.2119
     21 C         -27.5430    0.8490   25.0790 C.2     1  UNL1        0.2341
     22 O         -28.1930   -0.2080   24.4770 O.2     1  UNL1       -0.4585
     23 C         -29.4600    0.0050   23.8660 C.3     1  UNL1        0.2423
     24 C         -30.0650   -1.3770   23.5730 C.3     1  UNL1        0.2292
     25 O         -30.7290   -1.8780   24.7210 O.3     1  UNL1       -0.2162
     26 C         -26.3540    0.5760   25.7770 C.3     1  UNL1        0.2416
     27 F         -25.8600   -0.6810   25.7950 F       1  UNL1       -0.2268
     28 O         -29.1828    2.7824   32.1541 O.3     1  UNL1       -0.2005
     29 C         -25.4310    0.0149   29.0026 C.3     1  UNL1        0.0254
     30 C         -28.8006    1.3726   30.1644 C.3     1  UNL1        0.0768
     31 C         -29.9146    1.6904   28.1379 C.3     1  UNL1        0.0515
     32 O         -22.4750    0.1073   29.3037 O.2     1  UNL1       -0.2737
     33 C         -22.4548    0.8943   28.4278 C.2     1  UNL1        0.2392
     34 N         -28.5872    2.8527   29.7886 N.3     1  UNL1       -0.2200
     35 CL        -22.9172    1.8750   26.0151 Cl      1  UNL1        0.0046
     36 C         -28.1967    0.1871   28.2917 C.3     1  UNL1        0.0016
     37 N         -23.4590    1.2723   27.6431 N.am    1  UNL1       -0.2039
     38 C         -28.6568    3.6078   31.0498 C.3     1  UNL1        0.2608
     39 C         -29.3074    0.7257   28.9536 C.3     1  UNL1        0.0201
     40 C         -26.9660   -0.5310   28.5806 C.3     1  UNL1        0.0021
     41 C         -21.0906    1.2246   27.9988 C.3     1  UNL1        0.0961
     42 C         -24.8573    1.0843   27.8046 C.3     1  UNL1        0.0996
     43 O         -30.6085    3.7334   29.1103 O.3     1  UNL1       -0.2049
     44 C         -29.4827    3.0339   28.6389 C.3     1  UNL1        0.2146
@<TRIPOS>BOND
     1     1    29    1
     2     2     7    1
     3     2     1    1
     4     3     2    2
     5     4     3    1
     6     4     5    2
     7     5     6    1
     8     6     7    2
     9     8     1    1
    10     8     9    1
    11     8    12    1
    12     9    10    1
    13    10    11    1
    14    12    11    1
    15    13    42    1
    16    14    13    1
    17    14    15    1
    18    15    18    2
    19    16    17    1
    20    16    15    1
    21    19    14    2
    22    20    21    2
    23    20    19    1
    24    21    26    1
    25    22    21    1
    26    23    22    1
    27    24    23    1
    28    24    25    1
    29    26    27    1
    30    26    13    1
    31    29    40    1
    32    31    44    1
    33    31    39    1
    34    33    32    2
    35    34    30    1
    36    34    38    1
    37    35    37    1
    38    36    40    1
    39    37    33   am
    40    38    28    1
    41    39    36    1
    42    39    30    1
    43    41    33    1
    44    42    37    1
    45    42    29    1
    46    44    43    1
    47    44    34    1
