@<TRIPOS>MOLECULE
No_3776-gen_results/8p0m/2024-11-27-11-27-31/
 21 23 0 0 0
SMALL
GASTEIGER

@<TRIPOS>ATOM
      1 C         -28.0162   -0.8135   28.8779 C.ar    1  UNL1       -0.0043
      2 C         -27.0636   -0.1189   28.6079 C.ar    1  UNL1       -0.0003
      3 C         -26.8756    1.1325   28.9134 C.ar    1  UNL1       -0.0000
      4 C         -27.9014    1.8066   29.6436 C.ar    1  UNL1       -0.0003
      5 C         -29.0458   -0.2316   29.7181 C.ar    1  UNL1       -0.0218
      6 C         -28.9402    1.0517   30.0597 C.ar    1  UNL1       -0.0040
      7 C         -30.1632   -1.1171   30.1252 C.3     1  UNL1        0.0311
      8 C         -31.3174   -0.9747   29.5525 C.3     1  UNL1        0.0333
      9 C         -31.6472   -0.0204   28.8456 C.ar    1  UNL1        0.0056
     10 C         -32.5008    0.3345   28.1715 C.ar    1  UNL1       -0.0020
     11 C         -32.6945    1.5426   27.3462 C.ar    1  UNL1       -0.0002
     12 C         -31.6008    2.4319   27.3881 C.ar    1  UNL1        0.0023
     13 C         -30.4589    2.1037   28.0126 C.ar    1  UNL1        0.0293
     14 C         -30.3813    0.9791   28.7116 C.ar    1  UNL1        0.1361
     15 F         -29.4771    0.3258   28.0008 F       1  UNL1       -0.2045
     16 C         -29.4740    1.3967   31.4343 C.ar    1  UNL1       -0.0003
     17 C         -29.1255    0.8293   32.5415 C.ar    1  UNL1       -0.0000
     18 C         -30.5269    2.4560   31.4661 C.ar    1  UNL1       -0.0000
     19 C         -31.3571    2.5849   32.5516 C.ar    1  UNL1       -0.0000
     20 C         -29.7993    1.0960   33.7727 C.ar    1  UNL1       -0.0000
     21 C         -30.8816    2.0006   33.7773 C.ar    1  UNL1       -0.0000
@<TRIPOS>BOND
     1     5     7    1
     2     7     8    1
     3    14    15    1
     4     6    16    1
     5     8     9    1
     6    16    17   ar
     7    17    20   ar
     8    20    21   ar
     9    21    19   ar
    10    19    18   ar
    11    18    16   ar
    12     1     2   ar
    13     2     3   ar
    14     3     4   ar
    15     4     6   ar
    16     6     5   ar
    17     5     1   ar
    18     9    10   ar
    19    10    11   ar
    20    11    12   ar
    21    12    13   ar
    22    13    14   ar
    23    14     9   ar
