@<TRIPOS>MOLECULE
No_3778-gen_results/8p0m/2024-11-27-11-27-31/
 11 11 0 0 0
SMALL
GASTEIGER

@<TRIPOS>ATOM
      1 C         -28.0162   -0.8135   28.8779 C.3     1  UNL1        0.0264
      2 C         -27.0636   -0.1189   28.6079 C.ar    1  UNL1       -0.0222
      3 C         -25.7923   -0.4302   29.0761 C.ar    1  UNL1       -0.0042
      4 C         -24.5456    0.3494   28.8225 C.ar    1  UNL1        0.0013
      5 C         -24.6586    1.4196   27.8878 C.ar    1  UNL1        0.0209
      6 C         -25.9471    1.6811   27.3792 C.ar    1  UNL1        0.0013
      7 C         -27.0439    0.9739   27.6871 C.ar    1  UNL1       -0.0042
      8 C         -28.6703   -0.4455   30.2080 C.3     1  UNL1        0.0047
      9 C         -29.7395   -1.2324   30.6778 C.3     1  UNL1        0.0004
     10 C         -23.4434    2.1502   27.6023 C.2     1  UNL1        0.1221
     11 N         -22.2469    1.7294   28.0730 N.2     1  UNL1       -0.1464
@<TRIPOS>BOND
     1     1     2    1
     2     1     8    1
     3     8     9    1
     4     5    10    1
     5    10    11    2
     6     2     3   ar
     7     3     4   ar
     8     4     5   ar
     9     5     6   ar
    10     6     7   ar
    11     7     2   ar
