@<TRIPOS>MOLECULE
No_378-gen_results/8p0m/2024-11-27-11-27-31/
 20 21 0 0 0
SMALL
GASTEIGER

@<TRIPOS>ATOM
      1 C         -28.0162   -0.8135   28.8779 C.ar    1  UNL1        0.0369
      2 C         -27.0636   -0.1189   28.6079 C.ar    1  UNL1        0.0031
      3 C         -25.7923   -0.4302   29.0761 C.ar    1  UNL1        0.0002
      4 C         -25.5756   -1.5654   29.9363 C.ar    1  UNL1        0.0031
      5 C         -26.7354   -2.3004   30.2173 C.ar    1  UNL1        0.0369
      6 C         -27.9184   -1.9537   29.7629 C.ar    1  UNL1        0.1391
      7 O         -29.0001   -2.7012   30.1151 O.3     1  UNL1       -0.4707
      8 C         -24.5290    0.3490   28.7998 C.ar    1  UNL1        0.0000
      9 C         -24.1172    1.3368   29.6649 C.ar    1  UNL1        0.0000
     10 C         -22.9663    2.0989   29.3660 C.ar    1  UNL1        0.0000
     11 C         -22.1989    1.8191   28.1888 C.ar    1  UNL1        0.0000
     12 C         -22.7015    0.9234   27.2907 C.ar    1  UNL1        0.0000
     13 C         -23.8121    0.2119   27.5786 C.ar    1  UNL1        0.0000
     14 C         -29.3549   -2.8460   31.4323 C.3     1  UNL1        0.2318
     15 C         -29.9153   -1.8393   32.0146 C.2     1  UNL1        0.0207
     16 C         -30.3358   -0.8335   31.3525 C.2     1  UNL1       -0.0009
     17 C         -30.7388    0.1722   31.7453 C.2     1  UNL1       -0.0002
     18 C         -31.1333    1.4016   30.9991 C.2     1  UNL1       -0.0000
     19 C         -31.1915    1.2084   29.6152 C.2     1  UNL1       -0.0000
     20 C         -30.9497   -0.0058   29.0898 C.2     1  UNL1       -0.0000
@<TRIPOS>BOND
     1     6     7    1
     2     3     8    1
     3     7    14    1
     4    14    15    1
     5    15    16    2
     6    16    17    1
     7    17    18    2
     8    18    19    1
     9    19    20    2
    10     1     2   ar
    11     2     3   ar
    12     3     4   ar
    13     4     5   ar
    14     5     6   ar
    15     6     1   ar
    16     8     9   ar
    17     9    10   ar
    18    10    11   ar
    19    11    12   ar
    20    12    13   ar
    21    13     8   ar
