@<TRIPOS>MOLECULE
No_3782-gen_results/8p0m/2024-11-27-11-27-31/
 24 26 0 0 0
SMALL
GASTEIGER

@<TRIPOS>ATOM
      1 C         -28.0162   -0.8135   28.8779 C.ar    1  UNL1        0.0013
      2 C         -28.4690   -0.7850   29.8287 C.ar    1  UNL1        0.0209
      3 C         -28.1960    0.3478   28.0550 C.ar    1  UNL1       -0.0039
      4 C         -29.0191    1.3501   28.3782 C.ar    1  UNL1       -0.0003
      5 C         -29.4107    0.1803   30.3782 C.ar    1  UNL1        0.0016
      6 C         -29.6059    1.2495   29.6193 C.ar    1  UNL1        0.0000
      7 C         -27.4597    0.3802   26.7091 C.2     1  UNL1       -0.0228
      8 C         -26.0094    0.3317   26.7236 C.2     1  UNL1       -0.0082
      9 C         -25.1948    0.9248   26.8189 C.2     1  UNL1       -0.0181
     10 C         -24.2025    1.2396   27.6499 C.2     1  UNL1       -0.0040
     11 C         -23.0713    2.1495   27.3706 C.2     1  UNL1       -0.0045
     12 C         -23.1053    2.6796   26.0721 C.2     1  UNL1       -0.0214
     13 C         -24.7843    1.7729   25.4964 C.3     1  UNL1        0.0523
     14 C         -28.1330    0.6373   25.5244 C.3     1  UNL1        0.0223
     15 C         -28.2891   -0.3410   24.6706 C.3     1  UNL1        0.0047
     16 C         -28.7039    1.9307   25.2922 C.3     1  UNL1        0.0047
     17 C         -24.0341    0.6081   29.0422 C.ar    1  UNL1       -0.0003
     18 C         -24.5188    1.1977   30.1170 C.ar    1  UNL1       -0.0000
     19 C         -23.5710   -0.7402   29.0508 C.ar    1  UNL1       -0.0000
     20 C         -24.6723    0.5332   31.3231 C.ar    1  UNL1       -0.0000
     21 C         -23.6132   -1.4424   30.2440 C.ar    1  UNL1       -0.0000
     22 C         -24.1596   -0.7740   31.4218 C.ar    1  UNL1       -0.0000
     23 C         -28.2736   -2.0030   30.9019 C.2     1  UNL1        0.1221
     24 N         -28.6900   -1.9826   31.9807 N.2     1  UNL1       -0.1464
@<TRIPOS>BOND
     1     3     7    1
     2     7     8    2
     3     8     9    1
     4     9    10    2
     5    10    11    1
     6    11    12    2
     7     9    13    1
     8    12    13    1
     9     7    14    1
    10    14    15    1
    11    14    16    1
    12    10    17    1
    13     2    23    1
    14    23    24    2
    15    17    18   ar
    16    18    20   ar
    17    20    22   ar
    18    22    21   ar
    19    21    19   ar
    20    19    17   ar
    21     1     2   ar
    22     2     5   ar
    23     5     6   ar
    24     6     4   ar
    25     4     3   ar
    26     3     1   ar
