@<TRIPOS>MOLECULE
outputs/IAG933/test6/raw/output_3783_IAG933_linker_design_.xyz
 41 44 0 0 0
SMALL
GASTEIGER

@<TRIPOS>ATOM
      1 C         -24.8550   -1.0120   30.1430 C.3     1  UNL1        0.0407
      2 C         -24.9730   -2.5050   29.7880 C.2     1  UNL1       -0.0211
      3 C         -23.9060   -3.1730   29.1460 C.2     1  UNL1       -0.0042
      4 C         -23.9890   -4.5490   28.8530 C.2     1  UNL1       -0.0003
      5 C         -25.1370   -5.2800   29.2050 C.2     1  UNL1       -0.0000
      6 C         -26.2320   -4.6110   29.7840 C.2     1  UNL1       -0.0003
      7 C         -26.1550   -3.2320   30.0650 C.2     1  UNL1       -0.0042
      8 C         -25.3870   -0.6790   31.5710 C.3     1  UNL1        0.0769
      9 C         -25.1890    0.7730   32.0280 C.3     1  UNL1        0.0192
     10 C         -25.3360    0.6840   33.5440 C.3     1  UNL1        0.0202
     11 C         -24.8290   -0.7150   33.9050 C.3     1  UNL1        0.0887
     12 N         -24.7580   -1.4810   32.6460 N.3     1  UNL1       -0.2191
     13 C         -25.6880    1.6140   26.4610 C.2     1  UNL1        0.0186
     14 C         -26.2500    2.9200   26.3950 C.2     1  UNL1        0.0727
     15 C         -25.6420    4.0930   27.1230 C.2     1  UNL1        0.2661
     16 N         -25.6140    5.2520   26.4490 N.am    1  UNL1       -0.1997
     17 C         -25.0260    6.4790   26.9630 C.3     1  UNL1        0.1388
     18 O         -25.1430    3.9660   28.2430 O.2     1  UNL1       -0.2683
     19 C         -27.4380    3.0910   25.6450 C.2     1  UNL1        0.1064
     20 N         -28.0750    2.0890   25.0030 N.2     1  UNL1       -0.2081
     21 C         -27.5430    0.8490   25.0790 C.2     1  UNL1        0.2530
     22 O         -28.1930   -0.2080   24.4770 O.2     1  UNL1       -0.4558
     23 C         -29.4600    0.0050   23.8660 C.3     1  UNL1        0.2426
     24 C         -30.0650   -1.3770   23.5730 C.3     1  UNL1        0.2292
     25 O         -30.7290   -1.8780   24.7210 O.3     1  UNL1       -0.2162
     26 C         -26.3540    0.5760   25.7770 C.2     1  UNL1        0.1892
     27 F         -25.8600   -0.6810   25.7950 F       1  UNL1       -0.1996
     28 F         -22.5026    0.5743   29.9678 F       1  UNL1       -0.2009
     29 O         -23.4010   -0.3480   28.0620 O.3     1  UNL1       -0.3269
     30 C         -28.0908   -0.6965   29.4925 C.3     1  UNL1        0.0001
     31 C         -25.5386   -0.2725   29.0015 C.3     1  UNL1        0.0330
     32 C         -23.3006    1.7144   26.7866 C.3     1  UNL1        0.1477
     33 F         -21.0650    2.0478   27.8184 F       1  UNL1       -0.2309
     34 C         -24.6070    0.3423   28.1630 C.3     1  UNL1        0.1231
     35 C         -22.5641    0.3934   28.6520 C.3     1  UNL1        0.3117
     36 C         -26.9338   -0.6319   28.6327 C.3     1  UNL1        0.0028
     37 O         -23.3164    1.6594   24.3782 O.co2   1  UNL1       -0.2456
     38 O         -23.2960    3.6288   25.3233 O.co2   1  UNL1       -0.2456
     39 C         -24.4761    1.3058   27.2476 C.3     1  UNL1        0.0657
     40 C         -23.2995    2.3630   25.4030 C.2     1  UNL1        0.3676
     41 C         -22.2528    1.4855   27.7363 C.3     1  UNL1        0.2330
@<TRIPOS>BOND
     1     1    31    1
     2     2     7    1
     3     2     1    1
     4     3     2    2
     5     4     3    1
     6     4     5    2
     7     5     6    1
     8     6     7    2
     9     8     1    1
    10     8     9    1
    11     8    12    1
    12     9    10    1
    13    10    11    1
    14    12    11    1
    15    14    13    1
    16    14    15    1
    17    15    18    2
    18    16    17    1
    19    16    15    1
    20    19    14    2
    21    20    21    2
    22    20    19    1
    23    21    26    1
    24    22    21    1
    25    23    22    1
    26    24    23    1
    27    24    25    1
    28    26    27    1
    29    26    13    2
    30    29    34    1
    31    29    35    1
    32    31    36    1
    33    32    40    1
    34    32    39    1
    35    32    41    1
    36    34    31    1
    37    35    28    1
    38    36    30    1
    39    37    40   ar
    40    38    40   ar
    41    39    13    1
    42    39    34    1
    43    41    33    1
    44    41    35    1
