@<TRIPOS>MOLECULE
No_3785-gen_results/8p0m/2024-11-27-11-27-31/
 21 22 0 0 0
SMALL
GASTEIGER

@<TRIPOS>ATOM
      1 C         -28.0162   -0.8135   28.8779 C.3     1  UNL1        0.1282
      2 C         -27.0636   -0.1189   28.6079 C.ar    1  UNL1       -0.0019
      3 C         -27.0010    0.6913   27.4910 C.ar    1  UNL1       -0.0027
      4 C         -25.8548    1.4825   27.0830 C.ar    1  UNL1        0.0036
      5 C         -24.6901    1.4526   27.8807 C.ar    1  UNL1        0.0714
      6 C         -24.7379    0.6010   29.0416 C.ar    1  UNL1        0.0036
      7 C         -25.8234   -0.1688   29.3887 C.ar    1  UNL1       -0.0027
      8 N         -29.2075   -0.1514   29.0660 N.am    1  UNL1       -0.2179
      9 C         -29.6327    0.2314   30.2532 C.ar    1  UNL1        0.0574
     10 C         -29.1482   -0.0446   31.2597 C.ar    1  UNL1        0.0150
     11 C         -30.8710    1.1105   30.1357 C.ar    1  UNL1        0.0150
     12 C         -29.6726    0.4714   32.5991 C.ar    1  UNL1        0.0013
     13 C         -31.3689    1.5915   31.3841 C.ar    1  UNL1        0.0013
     14 C         -30.7821    1.2637   32.5649 C.ar    1  UNL1        0.0001
     15 C         -29.9999   -0.0286   27.8472 C.2     1  UNL1        0.4512
     16 C         -23.5017    2.1782   27.5441 C.3     1  UNL1        0.4186
     17 F         -22.7264    2.4176   28.4817 F       1  UNL1       -0.1659
     18 F         -23.7643    3.2938   26.9572 F       1  UNL1       -0.1659
     19 F         -22.7286    1.4659   26.6426 F       1  UNL1       -0.1659
     20 O         -29.7787    0.8890   27.2111 O.co2   1  UNL1       -0.2220
     21 O         -30.8792   -0.8829   27.7105 O.co2   1  UNL1       -0.2220
@<TRIPOS>BOND
     1     1     2    1
     2     1     8    1
     3     8     9    1
     4     8    15   am
     5     5    16    1
     6    16    17    1
     7    16    18    1
     8    16    19    1
     9    15    20   ar
    10    15    21   ar
    11     2     3   ar
    12     3     4   ar
    13     4     5   ar
    14     5     6   ar
    15     6     7   ar
    16     7     2   ar
    17     9    10   ar
    18    10    12   ar
    19    12    14   ar
    20    14    13   ar
    21    13    11   ar
    22    11     9   ar
