@<TRIPOS>MOLECULE
outputs/IAG933/test6/raw/output_3787_IAG933_linker_design_.xyz
 43 47 0 0 0
SMALL
GASTEIGER

@<TRIPOS>ATOM
      1 C         -24.8550   -1.0120   30.1430 C.3     1  UNL1        0.0619
      2 C         -24.9730   -2.5050   29.7880 C.2     1  UNL1       -0.0194
      3 C         -23.9060   -3.1730   29.1460 C.2     1  UNL1       -0.0042
      4 C         -23.9890   -4.5490   28.8530 C.2     1  UNL1       -0.0003
      5 C         -25.1370   -5.2800   29.2050 C.2     1  UNL1       -0.0000
      6 C         -26.2320   -4.6110   29.7840 C.2     1  UNL1       -0.0003
      7 C         -26.1550   -3.2320   30.0650 C.2     1  UNL1       -0.0042
      8 C         -25.3870   -0.6790   31.5710 C.3     1  UNL1        0.0786
      9 C         -25.1890    0.7730   32.0280 C.3     1  UNL1        0.0193
     10 C         -25.3360    0.6840   33.5440 C.3     1  UNL1        0.0202
     11 C         -24.8290   -0.7150   33.9050 C.3     1  UNL1        0.0887
     12 N         -24.7580   -1.4810   32.6460 N.3     1  UNL1       -0.2191
     13 C         -25.6880    1.6140   26.4610 C.2     1  UNL1        0.0319
     14 C         -26.2500    2.9200   26.3950 C.2     1  UNL1        0.0739
     15 C         -25.6420    4.0930   27.1230 C.2     1  UNL1        0.2662
     16 N         -25.6140    5.2520   26.4490 N.am    1  UNL1       -0.1997
     17 C         -25.0260    6.4790   26.9630 C.3     1  UNL1        0.1388
     18 O         -25.1430    3.9660   28.2430 O.2     1  UNL1       -0.2683
     19 C         -27.4380    3.0910   25.6450 C.2     1  UNL1        0.1065
     20 N         -28.0750    2.0890   25.0030 N.2     1  UNL1       -0.2081
     21 C         -27.5430    0.8490   25.0790 C.2     1  UNL1        0.2530
     22 O         -28.1930   -0.2080   24.4770 O.2     1  UNL1       -0.4558
     23 C         -29.4600    0.0050   23.8660 C.3     1  UNL1        0.2426
     24 C         -30.0650   -1.3770   23.5730 C.3     1  UNL1        0.2292
     25 O         -30.7290   -1.8780   24.7210 O.3     1  UNL1       -0.2162
     26 C         -26.3540    0.5760   25.7770 C.2     1  UNL1        0.1904
     27 F         -25.8600   -0.6810   25.7950 F       1  UNL1       -0.1995
     28 N         -25.1998    0.1786   28.1263 N.3     1  UNL1       -0.2078
     29 C         -19.9582    1.3246   28.2007 C.3     1  UNL1        0.0860
     30 C         -22.9071    1.9443   26.0999 C.3     1  UNL1        0.0947
     31 C         -23.4449    1.3189   27.2415 C.3     1  UNL1        0.0508
     32 C         -23.1924   -0.0066   29.5143 C.2     1  UNL1        0.2248
     33 C         -23.1967    2.8981   25.1126 C.3     1  UNL1        0.1899
     34 O         -22.4631    0.0155   30.3946 O.2     1  UNL1       -0.2868
     35 C         -21.8271    1.9429   26.6562 C.2     1  UNL1        0.1136
     36 F         -18.7948    3.1987   27.4416 F       1  UNL1       -0.1886
     37 C         -22.2005    1.3087   27.5866 C.2     1  UNL1       -0.0122
     38 O         -20.5792    2.3961   26.3187 O.2     1  UNL1       -0.4541
     39 C         -19.7306    2.3028   27.3157 C.3     1  UNL1        0.3271
     40 C         -24.7429    1.2234   27.3452 C.3     1  UNL1        0.1021
     41 C         -21.2371    0.8357   28.4391 C.3     1  UNL1        0.0316
     42 O         -22.2804    3.4930   24.4191 O.3     1  UNL1       -0.2199
     43 CA        -24.2996   -0.2455   29.0786 C.3     1  UNL1        0.1428
@<TRIPOS>BOND
     1     1    43    1
     2     2     7    1
     3     2     1    1
     4     3     2    2
     5     4     3    1
     6     4     5    2
     7     5     6    1
     8     6     7    2
     9     8     1    1
    10     8     9    1
    11     8    12    1
    12     9    10    1
    13    10    11    1
    14    12    11    1
    15    13    40    1
    16    14    13    1
    17    14    15    1
    18    15    18    2
    19    16    17    1
    20    16    15    1
    21    19    14    2
    22    20    21    2
    23    20    19    1
    24    21    26    1
    25    22    21    1
    26    23    22    1
    27    24    23    1
    28    24    25    1
    29    26    27    1
    30    26    13    2
    31    28    43    1
    32    29    41    1
    33    30    33    1
    34    30    35    1
    35    30    31    1
    36    31    40    1
    37    31    37    1
    38    32    34    2
    39    35    37    2
    40    37    41    1
    41    38    35    1
    42    38    39    1
    43    39    36    1
    44    39    29    1
    45    40    28    1
    46    42    33    1
    47    43    32    1
