@<TRIPOS>MOLECULE
outputs/IAG933/test6/raw/output_3788_IAG933_linker_design_.xyz
 41 45 0 0 0
SMALL
GASTEIGER

@<TRIPOS>ATOM
      1 C         -24.8550   -1.0120   30.1430 C.3     1  UNL1        0.0706
      2 C         -24.9730   -2.5050   29.7880 C.2     1  UNL1       -0.0186
      3 C         -23.9060   -3.1730   29.1460 C.2     1  UNL1       -0.0042
      4 C         -23.9890   -4.5490   28.8530 C.2     1  UNL1       -0.0003
      5 C         -25.1370   -5.2800   29.2050 C.2     1  UNL1       -0.0000
      6 C         -26.2320   -4.6110   29.7840 C.2     1  UNL1       -0.0003
      7 C         -26.1550   -3.2320   30.0650 C.2     1  UNL1       -0.0042
      8 C         -25.3870   -0.6790   31.5710 C.3     1  UNL1        0.0793
      9 C         -25.1890    0.7730   32.0280 C.3     1  UNL1        0.0193
     10 C         -25.3360    0.6840   33.5440 C.3     1  UNL1        0.0202
     11 C         -24.8290   -0.7150   33.9050 C.3     1  UNL1        0.0887
     12 N         -24.7580   -1.4810   32.6460 N.3     1  UNL1       -0.2190
     13 C         -25.6880    1.6140   26.4610 C.2     1  UNL1        0.1216
     14 C         -26.2500    2.9200   26.3950 C.2     1  UNL1        0.0943
     15 C         -25.6420    4.0930   27.1230 C.2     1  UNL1        0.2679
     16 N         -25.6140    5.2520   26.4490 N.am    1  UNL1       -0.1997
     17 C         -25.0260    6.4790   26.9630 C.3     1  UNL1        0.1388
     18 O         -25.1430    3.9660   28.2430 O.2     1  UNL1       -0.2683
     19 C         -27.4380    3.0910   25.6450 C.2     1  UNL1        0.1083
     20 N         -28.0750    2.0890   25.0030 N.2     1  UNL1       -0.2080
     21 C         -27.5430    0.8490   25.0790 C.2     1  UNL1        0.2548
     22 O         -28.1930   -0.2080   24.4770 O.2     1  UNL1       -0.4558
     23 C         -29.4600    0.0050   23.8660 C.3     1  UNL1        0.2426
     24 C         -30.0650   -1.3770   23.5730 C.3     1  UNL1        0.2292
     25 O         -30.7290   -1.8780   24.7210 O.3     1  UNL1       -0.2162
     26 C         -26.3540    0.5760   25.7770 C.2     1  UNL1        0.2106
     27 F         -25.8600   -0.6810   25.7950 F       1  UNL1       -0.1976
     28 N         -24.7132    1.2095   27.2278 N.3     1  UNL1       -0.2190
     29 C         -21.7510   -0.4259   29.3660 C.3     1  UNL1        0.0333
     30 C         -19.9764    0.9002   28.1744 C.3     1  UNL1        0.0356
     31 C         -21.1949    1.2919   27.3981 C.3     1  UNL1        0.1668
     32 O         -22.9298    1.5039   30.3033 O.3     1  UNL1       -0.2229
     33 C         -24.3729    0.0107   29.2146 C.3     1  UNL1        0.1775
     34 C         -23.5765    1.5992   27.1066 C.3     1  UNL1        0.2211
     35 C         -22.5680    1.1974   27.8906 C.3     1  UNL1        0.1054
     36 O         -25.1206    0.1417   28.0484 O.3     1  UNL1       -0.2555
     37 N         -23.2812    2.4864   26.1769 N.3     1  UNL1       -0.0131
     38 F         -22.5646    2.4184   25.1054 F       1  UNL1       -0.1115
     39 C         -22.9214    0.5595   29.1817 C.3     1  UNL1        0.1600
     40 C         -20.5311   -0.0730   28.6894 C.3     1  UNL1        0.0054
     41 F         -20.7312    2.0787   26.4176 F       1  UNL1       -0.2371
@<TRIPOS>BOND
     1     1     2    1
     2     2     7    1
     3     3     2    2
     4     4     3    1
     5     4     5    2
     6     5     6    1
     7     6     7    2
     8     8     1    1
     9     8     9    1
    10     8    12    1
    11     9    10    1
    12    10    11    1
    13    12    11    1
    14    13    28    1
    15    14    13    1
    16    14    15    1
    17    15    18    2
    18    16    17    1
    19    16    15    1
    20    19    14    2
    21    20    21    2
    22    20    19    1
    23    21    26    1
    24    22    21    1
    25    23    22    1
    26    24    23    1
    27    24    25    1
    28    26    27    1
    29    26    13    2
    30    28    36    1
    31    30    40    1
    32    31    41    1
    33    31    35    1
    34    31    30    1
    35    33     1    1
    36    34    37    1
    37    34    28    1
    38    34    35    1
    39    35    39    1
    40    36    33    1
    41    38    37    1
    42    39    33    1
    43    39    29    1
    44    39    32    1
    45    40    29    1
