@<TRIPOS>MOLECULE
outputs/IAG933/test6/raw/output_3791_IAG933_linker_design_.xyz
 40 43 0 0 0
SMALL
GASTEIGER

@<TRIPOS>ATOM
      1 C         -24.8550   -1.0120   30.1430 C.3     1  UNL1        0.1126
      2 C         -24.9730   -2.5050   29.7880 C.2     1  UNL1       -0.0051
      3 C         -23.9060   -3.1730   29.1460 C.2     1  UNL1       -0.0029
      4 C         -23.9890   -4.5490   28.8530 C.2     1  UNL1       -0.0003
      5 C         -25.1370   -5.2800   29.2050 C.2     1  UNL1       -0.0000
      6 C         -26.2320   -4.6110   29.7840 C.2     1  UNL1       -0.0003
      7 C         -26.1550   -3.2320   30.0650 C.2     1  UNL1       -0.0029
      8 C         -25.3870   -0.6790   31.5710 C.3     1  UNL1        0.0929
      9 C         -25.1890    0.7730   32.0280 C.3     1  UNL1        0.0206
     10 C         -25.3360    0.6840   33.5440 C.3     1  UNL1        0.0203
     11 C         -24.8290   -0.7150   33.9050 C.3     1  UNL1        0.0888
     12 N         -24.7580   -1.4810   32.6460 N.3     1  UNL1       -0.2177
     13 C         -25.6880    1.6140   26.4610 C.2     1  UNL1        0.0192
     14 C         -26.2500    2.9200   26.3950 C.2     1  UNL1        0.0727
     15 C         -25.6420    4.0930   27.1230 C.2     1  UNL1        0.2661
     16 N         -25.6140    5.2520   26.4490 N.am    1  UNL1       -0.1997
     17 C         -25.0260    6.4790   26.9630 C.3     1  UNL1        0.1388
     18 O         -25.1430    3.9660   28.2430 O.2     1  UNL1       -0.2683
     19 C         -27.4380    3.0910   25.6450 C.2     1  UNL1        0.1064
     20 N         -28.0750    2.0890   25.0030 N.2     1  UNL1       -0.2081
     21 C         -27.5430    0.8490   25.0790 C.2     1  UNL1        0.2530
     22 O         -28.1930   -0.2080   24.4770 O.2     1  UNL1       -0.4558
     23 C         -29.4600    0.0050   23.8660 C.3     1  UNL1        0.2426
     24 C         -30.0650   -1.3770   23.5730 C.3     1  UNL1        0.2292
     25 O         -30.7290   -1.8780   24.7210 O.3     1  UNL1       -0.2162
     26 C         -26.3540    0.5760   25.7770 C.2     1  UNL1        0.1892
     27 F         -25.8600   -0.6810   25.7950 F       1  UNL1       -0.1996
     28 C         -24.4921    1.2291   27.3912 C.3     1  UNL1        0.0723
     29 O         -21.2869    2.0428   26.3552 O.3     1  UNL1       -0.4485
     30 C         -22.1629    0.9334   28.0330 C.3     1  UNL1        0.0590
     31 C         -27.0287   -0.0483   28.7488 C.2     1  UNL1        0.4642
     32 N         -26.2403    1.2697   28.9790 N.am    1  UNL1       -0.1492
     33 O         -27.9464   -0.2614   29.4870 O.co2   1  UNL1       -0.2206
     34 C         -22.6416    2.2015   26.1540 C.2     1  UNL1        0.3170
     35 N         -24.2127   -0.2392   29.0492 N.3     1  UNL1       -0.1938
     36 O         -23.1444    2.8240   25.2235 O.2     1  UNL1       -0.2501
     37 C         -21.0656    1.3918   27.6088 C.3     1  UNL1        0.2090
     38 C         -24.9445    0.9381   28.6395 C.3     1  UNL1        0.1760
     39 O         -26.5590   -0.8633   27.9816 O.co2   1  UNL1       -0.2206
     40 C         -23.2374    1.4787   27.1394 C.3     1  UNL1        0.1099
@<TRIPOS>BOND
     1     1    35    1
     2     2     7    1
     3     2     1    1
     4     3     2    2
     5     4     3    1
     6     4     5    2
     7     5     6    1
     8     6     7    2
     9     8     1    1
    10     8     9    1
    11     8    12    1
    12     9    10    1
    13    10    11    1
    14    12    11    1
    15    13    28    1
    16    14    13    1
    17    14    15    1
    18    15    18    2
    19    16    17    1
    20    16    15    1
    21    19    14    2
    22    20    21    2
    23    20    19    1
    24    21    26    1
    25    22    21    1
    26    23    22    1
    27    24    23    1
    28    24    25    1
    29    26    27    1
    30    26    13    2
    31    28    38    1
    32    29    37    1
    33    31    32    1
    34    31    33   ar
    35    34    29    1
    36    34    40    1
    37    36    34    2
    38    37    30    1
    39    38    32    1
    40    38    35    1
    41    39    31   ar
    42    40    28    1
    43    40    30    1
