@<TRIPOS>MOLECULE
outputs/IAG933/test6/raw/output_3793_IAG933_linker_design_.xyz
 43 47 0 0 0
SMALL
GASTEIGER

@<TRIPOS>ATOM
      1 C         -24.8550   -1.0120   30.1430 C.3     1  UNL1        0.0589
      2 C         -24.9730   -2.5050   29.7880 C.2     1  UNL1       -0.0173
      3 C         -23.9060   -3.1730   29.1460 C.2     1  UNL1       -0.0039
      4 C         -23.9890   -4.5490   28.8530 C.2     1  UNL1       -0.0003
      5 C         -25.1370   -5.2800   29.2050 C.2     1  UNL1       -0.0000
      6 C         -26.2320   -4.6110   29.7840 C.2     1  UNL1       -0.0003
      7 C         -26.1550   -3.2320   30.0650 C.2     1  UNL1       -0.0039
      8 C         -25.3870   -0.6790   31.5710 C.3     1  UNL1        0.0806
      9 C         -25.1890    0.7730   32.0280 C.3     1  UNL1        0.0195
     10 C         -25.3360    0.6840   33.5440 C.3     1  UNL1        0.0203
     11 C         -24.8290   -0.7150   33.9050 C.3     1  UNL1        0.0887
     12 N         -24.7580   -1.4810   32.6460 N.3     1  UNL1       -0.2188
     13 C         -25.6880    1.6140   26.4610 C.2     1  UNL1        0.0256
     14 C         -26.2500    2.9200   26.3950 C.2     1  UNL1        0.0731
     15 C         -25.6420    4.0930   27.1230 C.2     1  UNL1        0.2661
     16 N         -25.6140    5.2520   26.4490 N.am    1  UNL1       -0.1997
     17 C         -25.0260    6.4790   26.9630 C.3     1  UNL1        0.1388
     18 O         -25.1430    3.9660   28.2430 O.2     1  UNL1       -0.2683
     19 C         -27.4380    3.0910   25.6450 C.2     1  UNL1        0.1064
     20 N         -28.0750    2.0890   25.0030 N.2     1  UNL1       -0.2081
     21 C         -27.5430    0.8490   25.0790 C.2     1  UNL1        0.2530
     22 O         -28.1930   -0.2080   24.4770 O.2     1  UNL1       -0.4558
     23 C         -29.4600    0.0050   23.8660 C.3     1  UNL1        0.2426
     24 C         -30.0650   -1.3770   23.5730 C.3     1  UNL1        0.2292
     25 O         -30.7290   -1.8780   24.7210 O.3     1  UNL1       -0.2162
     26 C         -26.3540    0.5760   25.7770 C.2     1  UNL1        0.1896
     27 F         -25.8600   -0.6810   25.7950 F       1  UNL1       -0.1996
     28 C         -23.2325    1.7402   27.3908 C.2     1  UNL1        0.1756
     29 C         -27.4646    3.7963   30.0173 C.3     1  UNL1        0.0770
     30 C         -28.8774    4.3524   29.8095 C.3     1  UNL1        0.0495
     31 N         -27.3574    2.6458   29.2781 N.3     1  UNL1       -0.2449
     32 O         -22.7985    2.6873   26.5194 O.2     1  UNL1       -0.2912
     33 O         -26.1462   -0.1873   28.4443 O.3     1  UNL1       -0.2193
     34 C         -24.1901    0.0989   29.3405 C.2     1  UNL1       -0.0102
     35 C         -24.5700    1.3829   27.4918 C.3     1  UNL1        0.1192
     36 C         -29.8464    3.1886   30.0942 C.3     1  UNL1        0.1453
     37 O         -29.1020    2.0730   30.6202 O.3     1  UNL1       -0.3373
     38 C         -22.7359    0.3490   29.2462 C.2     1  UNL1       -0.0072
     39 C         -28.3449    1.6033   29.5321 C.3     1  UNL1        0.2200
     40 C         -25.9572    1.9025   29.4774 C.3     1  UNL1        0.1094
     41 C         -25.1208    0.7421   28.7310 C.3     1  UNL1        0.1672
     42 C         -22.2475    1.1785   28.2272 C.2     1  UNL1        0.0127
     43 C         -20.7746    1.5031   27.9488 C.3     1  UNL1        0.0340
@<TRIPOS>BOND
     1     1    34    1
     2     2     7    1
     3     2     1    1
     4     3     2    2
     5     4     3    1
     6     4     5    2
     7     5     6    1
     8     6     7    2
     9     8     1    1
    10     8     9    1
    11     8    12    1
    12     9    10    1
    13    10    11    1
    14    12    11    1
    15    14    13    1
    16    14    15    1
    17    15    18    2
    18    16    17    1
    19    16    15    1
    20    19    14    2
    21    20    21    2
    22    20    19    1
    23    21    26    1
    24    22    21    1
    25    23    22    1
    26    24    23    1
    27    24    25    1
    28    26    27    1
    29    26    13    2
    30    28    35    1
    31    28    42    2
    32    30    29    1
    33    30    36    1
    34    31    40    1
    35    31    39    1
    36    31    29    1
    37    32    28    1
    38    35    13    1
    39    35    41    1
    40    36    37    1
    41    38    34    2
    42    39    37    1
    43    41    33    1
    44    41    34    1
    45    41    40    1
    46    42    38    1
    47    43    42    1
