@<TRIPOS>MOLECULE
No_3794-gen_results/8p0m/2024-11-27-11-27-31/
 35 38 0 0 0
SMALL
GASTEIGER

@<TRIPOS>ATOM
      1 C         -28.0162   -0.8135   28.8779 C.ar    1  UNL1        0.0489
      2 C         -27.0636   -0.1189   28.6079 C.ar    1  UNL1        0.1461
      3 C         -26.8756    1.1325   28.9134 C.ar    1  UNL1        0.0375
      4 C         -27.9014    1.8066   29.6436 C.ar    1  UNL1        0.0039
      5 C         -29.0458   -0.2316   29.7181 C.ar    1  UNL1        0.0607
      6 C         -28.9402    1.0517   30.0597 C.ar    1  UNL1        0.0116
      7 O         -25.9795   -0.6907   27.8753 O.3     1  UNL1       -0.4534
      8 C         -24.6270   -0.4702   28.3306 C.ar    1  UNL1        0.1461
      9 C         -23.9340    0.6221   27.7608 C.ar    1  UNL1        0.0489
     10 C         -22.6298    0.8032   28.1945 C.ar    1  UNL1        0.0607
     11 C         -21.9621   -0.1863   28.9694 C.ar    1  UNL1        0.0116
     12 C         -24.0850   -1.3635   29.2289 C.ar    1  UNL1        0.0375
     13 C         -22.7449   -1.2352   29.5122 C.ar    1  UNL1        0.0040
     14 CL        -21.6249    2.0636   27.5588 Cl      1  UNL1       -0.0821
     15 C         -27.7472    3.2648   30.0001 C.ar    1  UNL1        0.0001
     16 C         -27.7585    4.2550   29.4840 C.ar    1  UNL1       -0.0003
     17 C         -27.4513    5.6016   29.9676 C.ar    1  UNL1       -0.0000
     18 C         -27.0623    5.6953   31.2988 C.ar    1  UNL1       -0.0000
     19 C         -27.1076    3.4948   31.4501 C.ar    1  UNL1        0.0000
     20 C         -26.8580    4.6034   32.0204 C.ar    1  UNL1        0.0000
     21 CL        -30.4049   -1.1597   30.1343 Cl      1  UNL1       -0.0821
     22 C         -28.2206    4.3152   28.0288 C.2     1  UNL1       -0.0043
     23 C         -27.6361    4.9417   27.1640 C.2     1  UNL1       -0.0258
     24 C         -26.9120    5.3409   26.4161 C.3     1  UNL1        0.0307
     25 C         -29.4314    3.6349   27.7088 C.ar    1  UNL1       -0.0006
     26 C         -30.6782    4.0797   28.1275 C.ar    1  UNL1       -0.0040
     27 C         -29.3987    2.6846   26.6466 C.ar    1  UNL1       -0.0000
     28 C         -30.5420    1.9080   26.3555 C.ar    1  UNL1       -0.0000
     29 C         -30.8623    5.0635   29.2008 C.2     1  UNL1       -0.0218
     30 C         -31.7458    2.2906   26.8730 C.ar    1  UNL1       -0.0000
     31 C         -31.8316    3.3002   27.8004 C.ar    1  UNL1       -0.0003
     32 C         -31.2949    6.3677   28.7406 C.2     1  UNL1       -0.0043
     33 C         -31.4369    7.4111   29.6724 C.2     1  UNL1       -0.0003
     34 C         -31.2753    7.1034   31.0584 C.2     1  UNL1       -0.0000
     35 C         -30.7116    4.8235   30.5566 C.3     1  UNL1        0.0310
@<TRIPOS>BOND
     1     2     7    1
     2     7     8    1
     3    10    14    1
     4     4    15    1
     5     5    21    1
     6    16    22    1
     7    22    23    2
     8    23    24    1
     9    22    25    1
    10    26    29    1
    11    29    32    2
    12    32    33    1
    13    33    34    2
    14    29    35    1
    15    15    16   ar
    16    16    17   ar
    17    17    18   ar
    18    18    20   ar
    19    20    19   ar
    20    19    15   ar
    21     1     2   ar
    22     2     3   ar
    23     3     4   ar
    24     4     6   ar
    25     6     5   ar
    26     5     1   ar
    27    25    26   ar
    28    26    31   ar
    29    31    30   ar
    30    30    28   ar
    31    28    27   ar
    32    27    25   ar
    33     8     9   ar
    34     9    10   ar
    35    10    11   ar
    36    11    13   ar
    37    13    12   ar
    38    12     8   ar
