@<TRIPOS>MOLECULE
No_3795-gen_results/8p0m/2024-11-27-11-27-31/
 12 13 0 0 0
SMALL
GASTEIGER

@<TRIPOS>ATOM
      1 C         -28.0162   -0.8135   28.8779 C.ar    1  UNL1        0.0000
      2 C         -28.4690   -0.7850   29.8287 C.ar    1  UNL1        0.0000
      3 C         -27.0871    0.2903   28.6377 C.ar    1  UNL1        0.0000
      4 C         -26.2516    0.4114   27.4223 C.ar    1  UNL1        0.0000
      5 C         -28.3141   -0.1267   30.7102 C.ar    1  UNL1        0.0000
      6 C         -27.4825    1.0076   30.8097 C.ar    1  UNL1        0.0000
      7 C         -26.7770    1.1718   29.6871 C.ar    1  UNL1        0.0000
      8 C         -26.8024    0.7203   26.2421 C.ar    1  UNL1        0.0000
      9 C         -24.8422    0.2129   27.4649 C.ar    1  UNL1        0.0000
     10 C         -26.1023    0.5678   25.0446 C.ar    1  UNL1        0.0000
     11 C         -24.0485    0.3913   26.3753 C.ar    1  UNL1        0.0000
     12 C         -24.6720    0.5205   25.1422 C.ar    1  UNL1        0.0000
@<TRIPOS>BOND
     1     3     4    1
     2     4     8   ar
     3     8    10   ar
     4    10    12   ar
     5    12    11   ar
     6    11     9   ar
     7     9     4   ar
     8     1     2   ar
     9     2     5   ar
    10     5     6   ar
    11     6     7   ar
    12     7     3   ar
    13     3     1   ar
