@<TRIPOS>MOLECULE
outputs/IAG933/test6/raw/output_3799_IAG933_linker_design_.xyz
 48 52 0 0 0
SMALL
GASTEIGER

@<TRIPOS>ATOM
      1 C         -24.8550   -1.0120   30.1430 C.3     1  UNL1        0.0437
      2 C         -24.9730   -2.5050   29.7880 C.2     1  UNL1       -0.0208
      3 C         -23.9060   -3.1730   29.1460 C.2     1  UNL1       -0.0042
      4 C         -23.9890   -4.5490   28.8530 C.2     1  UNL1       -0.0003
      5 C         -25.1370   -5.2800   29.2050 C.2     1  UNL1       -0.0000
      6 C         -26.2320   -4.6110   29.7840 C.2     1  UNL1       -0.0003
      7 C         -26.1550   -3.2320   30.0650 C.2     1  UNL1       -0.0042
      8 C         -25.3870   -0.6790   31.5710 C.3     1  UNL1        0.0773
      9 C         -25.1890    0.7730   32.0280 C.3     1  UNL1        0.0231
     10 C         -25.3360    0.6840   33.5440 C.3     1  UNL1        0.0204
     11 C         -24.8290   -0.7150   33.9050 C.3     1  UNL1        0.0887
     12 N         -24.7580   -1.4810   32.6460 N.3     1  UNL1       -0.2191
     13 C         -25.6880    1.6140   26.4610 C.2     1  UNL1        0.0380
     14 C         -26.2500    2.9200   26.3950 C.2     1  UNL1        0.0764
     15 C         -25.6420    4.0930   27.1230 C.2     1  UNL1        0.2664
     16 N         -25.6140    5.2520   26.4490 N.am    1  UNL1       -0.1997
     17 C         -25.0260    6.4790   26.9630 C.3     1  UNL1        0.1388
     18 O         -25.1430    3.9660   28.2430 O.2     1  UNL1       -0.2683
     19 C         -27.4380    3.0910   25.6450 C.2     1  UNL1        0.1067
     20 N         -28.0750    2.0890   25.0030 N.2     1  UNL1       -0.2081
     21 C         -27.5430    0.8490   25.0790 C.2     1  UNL1        0.2533
     22 O         -28.1930   -0.2080   24.4770 O.2     1  UNL1       -0.4558
     23 C         -29.4600    0.0050   23.8660 C.3     1  UNL1        0.2426
     24 C         -30.0650   -1.3770   23.5730 C.3     1  UNL1        0.2292
     25 O         -30.7290   -1.8780   24.7210 O.3     1  UNL1       -0.2162
     26 C         -26.3540    0.5760   25.7770 C.2     1  UNL1        0.1929
     27 F         -25.8600   -0.6810   25.7950 F       1  UNL1       -0.1992
     28 C         -24.8019    8.1676   34.7114 C.3     1  UNL1        0.0952
     29 O         -20.7794    2.0702   27.5933 O.3     1  UNL1       -0.2194
     30 C         -27.1221    3.9039   33.5762 C.2     1  UNL1        0.0905
     31 C         -26.1973    4.9808   33.3362 C.2     1  UNL1        0.0490
     32 C         -24.7464    6.7184   34.2108 C.2     1  UNL1        0.2297
     33 CL        -22.7368    2.1281   24.8408 Cl      1  UNL1       -0.1073
     34 C         -22.7718    1.3805   28.6640 C.3     1  UNL1        0.1795
     35 N         -27.1716    3.1285   32.3387 N.pl3   1  UNL1       -0.2366
     36 N         -22.2988    0.3695   29.6802 N.3     1  UNL1       -0.1220
     37 N         -25.9025    5.9381   34.2298 N.am    1  UNL1       -0.2592
     38 C         -24.3725    1.5062   26.9608 C.2     1  UNL1        0.0289
     39 C         -25.4839    4.7724   32.0923 C.3     1  UNL1        0.0645
     40 C         -22.0795    1.3267   27.3255 C.3     1  UNL1        0.1957
     41 C         -26.1495    1.7500   30.0527 C.3     1  UNL1        0.2066
     42 O         -23.6060    6.2958   33.8514 O.2     1  UNL1       -0.2745
     43 C         -24.1849    1.3835   28.3142 C.2     1  UNL1        0.1332
     44 C         -25.7214    5.2144   35.4775 C.3     1  UNL1        0.1197
     45 O         -25.1464    1.3358   29.1696 O.2     1  UNL1       -0.4784
     46 C         -23.1219    1.6852   26.4690 C.3     1  UNL1        0.1369
     47 C         -26.1416    3.5504   31.4200 C.3     1  UNL1        0.1018
     48 C         -25.3526    2.1673   31.3178 C.3     1  UNL1        0.0654
@<TRIPOS>BOND
     1     2     7    1
     2     2     1    1
     3     3     2    2
     4     4     3    1
     5     4     5    2
     6     5     6    1
     7     6     7    2
     8     8     1    1
     9     8     9    1
    10     8    12    1
    11     9    48    1
    12     9    10    1
    13    10    11    1
    14    12    11    1
    15    13    38    1
    16    14    13    1
    17    14    15    1
    18    15    18    2
    19    16    17    1
    20    16    15    1
    21    19    14    2
    22    20    21    2
    23    20    19    1
    24    21    26    1
    25    22    21    1
    26    23    22    1
    27    24    23    1
    28    24    25    1
    29    26    27    1
    30    26    13    2
    31    31    30    2
    32    31    37    1
    33    32    37   am
    34    32    28    1
    35    34    36    1
    36    35    30    1
    37    37    44    1
    38    38    43    2
    39    39    31    1
    40    40    29    1
    41    40    34    1
    42    42    32    2
    43    43    34    1
    44    43    45    1
    45    45    41    1
    46    46    33    1
    47    46    38    1
    48    46    40    1
    49    47    48    1
    50    47    39    1
    51    47    35    1
    52    48    41    1
