@<TRIPOS>MOLECULE
No_38-gen_results/8p0m/2024-11-27-11-27-31/
 21 23 0 0 0
SMALL
GASTEIGER

@<TRIPOS>ATOM
      1 C         -28.0162   -0.8135   28.8779 C.ar    1  UNL1        0.0369
      2 C         -27.0636   -0.1189   28.6079 C.ar    1  UNL1        0.0031
      3 C         -25.7923   -0.4302   29.0761 C.ar    1  UNL1        0.0002
      4 C         -25.5756   -1.5654   29.9363 C.ar    1  UNL1        0.0031
      5 C         -26.7354   -2.3004   30.2173 C.ar    1  UNL1        0.0369
      6 C         -27.9184   -1.9537   29.7629 C.ar    1  UNL1        0.1391
      7 O         -29.0001   -2.7012   30.1151 O.3     1  UNL1       -0.4706
      8 C         -24.5290    0.3490   28.7998 C.ar    1  UNL1        0.0000
      9 C         -23.3442    0.0060   29.1658 C.ar    1  UNL1        0.0000
     10 C         -22.1783    0.7811   28.7783 C.ar    1  UNL1        0.0000
     11 C         -22.3218    1.7499   27.7727 C.ar    1  UNL1        0.0000
     12 C         -24.6102    1.3558   27.7479 C.ar    1  UNL1        0.0000
     13 C         -23.5148    2.0341   27.3068 C.ar    1  UNL1        0.0000
     14 C         -30.1256   -2.1340   30.5841 C.3     1  UNL1        0.2342
     15 C         -30.2266   -1.1463   31.0417 C.ar    1  UNL1        0.0486
     16 C         -30.8400   -0.3939   31.5843 C.ar    1  UNL1        0.0016
     17 C         -30.6647    1.0037   32.1227 C.ar    1  UNL1       -0.0001
     18 C         -29.4245    1.5568   31.7797 C.ar    1  UNL1        0.0023
     19 C         -28.4881    0.8033   31.1629 C.ar    1  UNL1        0.0294
     20 C         -28.7552   -0.4467   30.7760 C.ar    1  UNL1        0.1396
     21 F         -27.9334   -1.0064   31.8303 F       1  UNL1       -0.2044
@<TRIPOS>BOND
     1     6     7    1
     2     3     8    1
     3     7    14    1
     4    20    21    1
     5    14    15    1
     6    15    16   ar
     7    16    17   ar
     8    17    18   ar
     9    18    19   ar
    10    19    20   ar
    11    20    15   ar
    12     1     2   ar
    13     2     3   ar
    14     3     4   ar
    15     4     5   ar
    16     5     6   ar
    17     6     1   ar
    18     8     9   ar
    19     9    10   ar
    20    10    11   ar
    21    11    13   ar
    22    13    12   ar
    23    12     8   ar
