@<TRIPOS>MOLECULE
No_3801-gen_results/8p0m/2024-11-27-11-27-31/
 12 12 0 0 0
SMALL
GASTEIGER

@<TRIPOS>ATOM
      1 N         -28.0544   -1.0498   28.7246 N.ar    1  UNL1       -0.2249
      2 C         -26.9659   -0.4722   28.7709 C.ar    1  UNL1        0.1620
      3 C         -26.5486    0.3876   27.8310 C.ar    1  UNL1        0.0390
      4 C         -27.4759    0.7264   26.7673 C.ar    1  UNL1        0.0113
      5 C         -28.6984    0.1676   26.8682 C.ar    1  UNL1        0.0990
      6 C         -28.9965   -0.5970   27.9089 C.ar    1  UNL1        0.1071
      7 C         -29.6464    0.5427   25.8022 C.2     1  UNL1        0.3893
      8 O         -30.1319    1.5726   25.7608 O.co2   1  UNL1       -0.2405
      9 O         -29.8049   -0.4064   24.7714 O.co2   1  UNL1       -0.2405
     10 N         -25.9824   -0.8609   29.7662 N.2     1  UNL1       -0.2297
     11 C         -24.6922   -0.4984   29.7405 C.2     1  UNL1        0.0745
     12 C         -24.3314    0.5271   28.8255 C.3     1  UNL1        0.0534
@<TRIPOS>BOND
     1     5     7    1
     2     7     8   ar
     3     7     9   ar
     4     2    10    1
     5    10    11    2
     6    11    12    1
     7     1     2   ar
     8     2     3   ar
     9     3     4   ar
    10     4     5   ar
    11     5     6   ar
    12     6     1   ar
