@<TRIPOS>MOLECULE
No_3803-gen_results/8p0m/2024-11-27-11-27-31/
 7 6 0 0 0
SMALL
GASTEIGER

@<TRIPOS>ATOM
      1 C         -28.0162   -0.8135   28.8779 C.2     1  UNL1       -0.0046
      2 C         -28.4690   -0.7850   29.8287 C.2     1  UNL1       -0.0003
      3 C         -27.0871    0.2903   28.6377 C.2     1  UNL1       -0.0258
      4 C         -26.2516    0.4114   27.4223 C.3     1  UNL1        0.0307
      5 C         -28.3913    0.1041   30.9805 C.2     1  UNL1       -0.0000
      6 C         -27.5332    1.1666   30.7866 C.2     1  UNL1       -0.0000
      7 C         -26.8281    1.2557   29.6454 C.2     1  UNL1       -0.0000
@<TRIPOS>BOND
     1     1     2    1
     2     1     3    2
     3     3     4    1
     4     2     5    2
     5     5     6    1
     6     6     7    2
