@<TRIPOS>MOLECULE
outputs/IAG933/test6/raw/output_3805_IAG933_linker_design_.xyz
 46 50 0 0 0
SMALL
GASTEIGER

@<TRIPOS>ATOM
      1 C         -24.8550   -1.0120   30.1430 C.3     1  UNL1        0.0981
      2 C         -24.9730   -2.5050   29.7880 C.2     1  UNL1       -0.0141
      3 C         -23.9060   -3.1730   29.1460 C.2     1  UNL1       -0.0038
      4 C         -23.9890   -4.5490   28.8530 C.2     1  UNL1       -0.0003
      5 C         -25.1370   -5.2800   29.2050 C.2     1  UNL1       -0.0000
      6 C         -26.2320   -4.6110   29.7840 C.2     1  UNL1       -0.0003
      7 C         -26.1550   -3.2320   30.0650 C.2     1  UNL1       -0.0038
      8 C         -25.3870   -0.6790   31.5710 C.3     1  UNL1        0.0838
      9 C         -25.1890    0.7730   32.0280 C.3     1  UNL1        0.0196
     10 C         -25.3360    0.6840   33.5440 C.3     1  UNL1        0.0203
     11 C         -24.8290   -0.7150   33.9050 C.3     1  UNL1        0.0887
     12 N         -24.7580   -1.4810   32.6460 N.3     1  UNL1       -0.2187
     13 C         -25.6880    1.6140   26.4610 C.2     1  UNL1        0.0364
     14 C         -26.2500    2.9200   26.3950 C.2     1  UNL1        0.0741
     15 C         -25.6420    4.0930   27.1230 C.2     1  UNL1        0.2223
     16 N         -25.6140    5.2520   26.4490 N.2     1  UNL1       -0.2356
     17 C         -25.0260    6.4790   26.9630 C.3     1  UNL1        0.1550
     18 O         -25.1430    3.9660   28.2430 O.2     1  UNL1       -0.4522
     19 C         -27.4380    3.0910   25.6450 C.2     1  UNL1        0.1068
     20 N         -28.0750    2.0890   25.0030 N.2     1  UNL1       -0.2081
     21 C         -27.5430    0.8490   25.0790 C.2     1  UNL1        0.2533
     22 O         -28.1930   -0.2080   24.4770 O.2     1  UNL1       -0.4558
     23 C         -29.4600    0.0050   23.8660 C.3     1  UNL1        0.2426
     24 C         -30.0650   -1.3770   23.5730 C.3     1  UNL1        0.2292
     25 O         -30.7290   -1.8780   24.7210 O.3     1  UNL1       -0.2162
     26 C         -26.3540    0.5760   25.7770 C.2     1  UNL1        0.1928
     27 F         -25.8600   -0.6810   25.7950 F       1  UNL1       -0.1992
     28 O         -26.4529   -0.3931   28.5829 O.2     1  UNL1       -0.2933
     29 C         -23.9272    5.2711   33.4218 C.3     1  UNL1        0.3143
     30 C         -25.3115   -0.2361   28.8810 C.2     1  UNL1        0.1819
     31 C         -26.5473    3.9250   29.9689 C.2     1  UNL1        0.1960
     32 O         -27.6862    3.5354   30.0913 O.2     1  UNL1       -0.2921
     33 C         -25.9523    4.4750   33.8728 C.3     1  UNL1        0.2469
     34 N         -25.7770    4.9594   32.5783 N.3     1  UNL1       -0.1332
     35 C         -24.4550    1.2119   27.0640 C.2     1  UNL1        0.0094
     36 C         -21.2324    1.4886   27.5571 C.2     1  UNL1        0.0202
     37 C         -22.0151    1.8716   26.5269 C.2     1  UNL1        0.0013
     38 C         -21.8323    0.6672   28.5842 C.2     1  UNL1        0.0940
     39 N         -23.0811    0.3747   29.1122 N.2     1  UNL1       -0.2589
     40 C         -26.3439    5.2318   30.4502 C.3     1  UNL1        0.0883
     41 C         -23.4297    1.6797   26.0468 C.2     1  UNL1       -0.0019
     42 C         -26.8663    5.4622   31.8339 C.3     1  UNL1        0.1117
     43 O         -24.9438    5.3223   34.3107 O.3     1  UNL1       -0.3062
     44 C         -24.4000    0.5146   28.2881 C.3     1  UNL1        0.1828
     45 O         -24.5552    4.8216   32.1919 O.3     1  UNL1       -0.2466
     46 C         -25.4783    3.2428   29.3841 C.3     1  UNL1        0.2707
@<TRIPOS>BOND
     1     1    30    1
     2     2     7    1
     3     2     1    1
     4     3     2    2
     5     4     3    1
     6     4     5    2
     7     5     6    1
     8     6     7    2
     9     8     1    1
    10     8     9    1
    11     8    12    1
    12     9    10    1
    13    10    11    1
    14    12    11    1
    15    13    35    1
    16    14    13    1
    17    14    15    1
    18    15    18    1
    19    16    17    1
    20    16    15    2
    21    18    46    1
    22    19    14    2
    23    20    21    2
    24    20    19    1
    25    21    26    1
    26    22    21    1
    27    23    22    1
    28    24    23    1
    29    24    25    1
    30    26    27    1
    31    26    13    2
    32    28    30    2
    33    29    43    1
    34    31    32    2
    35    31    40    1
    36    33    43    1
    37    34    33    1
    38    35    44    1
    39    36    38    1
    40    37    36    2
    41    38    39    2
    42    40    42    1
    43    41    37    1
    44    41    35    2
    45    42    34    1
    46    44    30    1
    47    44    39    1
    48    45    34    1
    49    45    29    1
    50    46    31    1
