@<TRIPOS>MOLECULE
No_3807-gen_results/8p0m/2024-11-27-11-27-31/
 29 32 0 0 0
SMALL
GASTEIGER

@<TRIPOS>ATOM
      1 C         -28.0162   -0.8135   28.8779 C.ar    1  UNL1        0.0046
      2 C         -28.4690   -0.7850   29.8287 C.ar    1  UNL1        0.0554
      3 C         -26.5042   -0.7777   28.8766 C.ar    1  UNL1        0.0001
      4 C         -25.8103   -0.8531   30.1028 C.ar    1  UNL1        0.0000
      5 C         -27.9906   -0.8916   31.2257 C.ar    1  UNL1        0.0046
      6 C         -26.6042   -0.8676   31.2652 C.ar    1  UNL1        0.0001
      7 C         -30.0739   -0.8360   29.8615 C.2     1  UNL1        0.2690
      8 O         -30.5608   -0.4417   28.9417 O.2     1  UNL1       -0.2680
      9 N         -30.7042   -1.7423   30.7732 N.am    1  UNL1       -0.1754
     10 C         -32.1088   -1.8935   30.6670 C.ar    1  UNL1        0.0736
     11 C         -32.9114   -1.2465   30.4029 C.ar    1  UNL1        0.0166
     12 C         -34.2920   -1.5473   30.3124 C.ar    1  UNL1        0.0013
     13 C         -32.3932   -3.2900   31.0803 C.ar    1  UNL1        0.0154
     14 C         -31.3904   -4.2827   31.4687 C.ar    1  UNL1        0.0013
     15 C         -34.5772   -2.8290   30.7198 C.ar    1  UNL1        0.0001
     16 C         -33.6797   -3.6551   31.1004 C.ar    1  UNL1        0.0013
     17 C         -30.7602   -4.2874   32.5795 C.ar    1  UNL1        0.0000
     18 C         -29.7035   -5.2296   32.9217 C.ar    1  UNL1        0.0000
     19 C         -29.2337   -6.0244   31.8500 C.ar    1  UNL1        0.0000
     20 C         -30.8002   -5.1265   30.4582 C.ar    1  UNL1        0.0000
     21 C         -29.8435   -5.9365   30.6332 C.ar    1  UNL1        0.0000
     22 C         -31.4079   -4.9979   29.0472 C.ar    1  UNL1        0.0000
     23 C         -31.2880   -6.1408   28.2643 C.ar    1  UNL1        0.0000
     24 C         -31.2647   -5.7807   26.8782 C.ar    1  UNL1        0.0000
     25 C         -32.4707   -5.1833   26.5214 C.ar    1  UNL1        0.0000
     26 C         -32.7696   -3.9522   27.3204 C.ar    1  UNL1        0.0000
     27 C         -32.2426   -3.9373   28.5951 C.ar    1  UNL1        0.0000
     28 C         -33.6808   -2.9993   26.7411 C.2     1  UNL1        0.0000
     29 C         -34.9987   -3.2853   26.6530 C.2     1  UNL1        0.0000
@<TRIPOS>BOND
     1     2     7    1
     2     7     8    2
     3     7     9   am
     4     9    10    1
     5    13    14    1
     6    20    22    1
     7    26    28    1
     8    28    29    2
     9    22    23   ar
    10    23    24   ar
    11    24    25   ar
    12    25    26   ar
    13    26    27   ar
    14    27    22   ar
    15    14    17   ar
    16    17    18   ar
    17    18    19   ar
    18    19    21   ar
    19    21    20   ar
    20    20    14   ar
    21    10    11   ar
    22    11    12   ar
    23    12    15   ar
    24    15    16   ar
    25    16    13   ar
    26    13    10   ar
    27     1     2   ar
    28     2     5   ar
    29     5     6   ar
    30     6     4   ar
    31     4     3   ar
    32     3     1   ar
