@<TRIPOS>MOLECULE
outputs/IAG933/test6/raw/output_3808_IAG933_linker_design_.xyz
 44 48 0 0 0
SMALL
GASTEIGER

@<TRIPOS>ATOM
      1 C         -24.8550   -1.0120   30.1430 C.3     1  UNL1        0.0807
      2 C         -24.9730   -2.5050   29.7880 C.2     1  UNL1       -0.0156
      3 C         -23.9060   -3.1730   29.1460 C.2     1  UNL1       -0.0039
      4 C         -23.9890   -4.5490   28.8530 C.2     1  UNL1       -0.0003
      5 C         -25.1370   -5.2800   29.2050 C.2     1  UNL1       -0.0000
      6 C         -26.2320   -4.6110   29.7840 C.2     1  UNL1       -0.0003
      7 C         -26.1550   -3.2320   30.0650 C.2     1  UNL1       -0.0039
      8 C         -25.3870   -0.6790   31.5710 C.3     1  UNL1        0.0823
      9 C         -25.1890    0.7730   32.0280 C.3     1  UNL1        0.0196
     10 C         -25.3360    0.6840   33.5440 C.3     1  UNL1        0.0203
     11 C         -24.8290   -0.7150   33.9050 C.3     1  UNL1        0.0887
     12 N         -24.7580   -1.4810   32.6460 N.3     1  UNL1       -0.2188
     13 C         -25.6880    1.6140   26.4610 C.3     1  UNL1        0.0952
     14 C         -26.2500    2.9200   26.3950 C.2     1  UNL1        0.0590
     15 C         -25.6420    4.0930   27.1230 C.2     1  UNL1        0.2628
     16 N         -25.6140    5.2520   26.4490 N.am    1  UNL1       -0.2000
     17 C         -25.0260    6.4790   26.9630 C.3     1  UNL1        0.1388
     18 O         -25.1430    3.9660   28.2430 O.2     1  UNL1       -0.2686
     19 C         -27.4380    3.0910   25.6450 C.2     1  UNL1        0.1025
     20 N         -28.0750    2.0890   25.0030 N.2     1  UNL1       -0.2118
     21 C         -27.5430    0.8490   25.0790 C.2     1  UNL1        0.2344
     22 O         -28.1930   -0.2080   24.4770 O.2     1  UNL1       -0.4585
     23 C         -29.4600    0.0050   23.8660 C.3     1  UNL1        0.2423
     24 C         -30.0650   -1.3770   23.5730 C.3     1  UNL1        0.2292
     25 O         -30.7290   -1.8780   24.7210 O.3     1  UNL1       -0.2162
     26 C         -26.3540    0.5760   25.7770 C.3     1  UNL1        0.2441
     27 F         -25.8600   -0.6810   25.7950 F       1  UNL1       -0.2265
     28 N         -28.0072    0.7407   28.7353 N.am    1  UNL1       -0.2753
     29 N         -25.0626    1.1146   28.8935 N.am    1  UNL1       -0.1749
     30 C         -24.1638    1.6045   26.4100 C.2     1  UNL1        0.0236
     31 C         -27.2021   -0.2915   29.1659 C.2     1  UNL1        0.2607
     32 C         -23.8382    1.4202   28.8580 C.2     1  UNL1        0.2691
     33 C         -25.7141   -0.1059   29.3528 C.2     1  UNL1        0.1097
     34 C         -29.7561    2.3820   28.8793 C.3     1  UNL1        0.0233
     35 C         -28.2148    2.1681   29.1041 C.3     1  UNL1        0.0938
     36 O         -23.2168    1.6500   29.8987 O.2     1  UNL1       -0.2680
     37 F         -23.7571    1.4967   23.9793 F       1  UNL1       -0.1974
     38 C         -22.0242    1.5377   27.2577 C.2     1  UNL1        0.0419
     39 C         -30.1359    1.3144   27.8901 C.3     1  UNL1        0.0233
     40 O         -27.7183   -1.3895   29.2959 O.2     1  UNL1       -0.2688
     41 C         -23.3711    1.6060   25.2918 C.2     1  UNL1        0.1663
     42 C         -28.9702    0.3773   27.6781 C.3     1  UNL1        0.0938
     43 S         -21.7746    1.6697   25.5921 S.3     1  UNL1       -0.0574
     44 C         -23.3505    1.5535   27.5805 C.2     1  UNL1        0.0610
@<TRIPOS>BOND
     1     1    33    1
     2     2     7    1
     3     2     1    1
     4     3     2    2
     5     4     3    1
     6     4     5    2
     7     5     6    1
     8     6     7    2
     9     8     1    1
    10     8     9    1
    11     8    12    1
    12     9    10    1
    13    10    11    1
    14    12    11    1
    15    13    30    1
    16    14    13    1
    17    14    15    1
    18    15    18    2
    19    16    17    1
    20    16    15    1
    21    19    14    2
    22    20    21    2
    23    20    19    1
    24    21    26    1
    25    22    21    1
    26    23    22    1
    27    24    23    1
    28    24    25    1
    29    26    27    1
    30    26    13    1
    31    28    35    1
    32    28    31   am
    33    29    33    2
    34    30    44    1
    35    31    40    2
    36    31    33    1
    37    32    29    1
    38    32    36    2
    39    34    35    1
    40    37    41    1
    41    38    44    2
    42    39    34    1
    43    41    43    1
    44    41    30    2
    45    42    39    1
    46    42    28    1
    47    43    38    1
    48    44    32    1
