@<TRIPOS>MOLECULE
outputs/IAG933/test6/raw/output_3809_IAG933_linker_design_.xyz
 44 47 0 0 0
SMALL
GASTEIGER

@<TRIPOS>ATOM
      1 C         -24.8550   -1.0120   30.1430 C.3     0  UNK0        0.1194
      2 C         -24.9730   -2.5050   29.7880 C.2     0  UNK0       -0.0026
      3 C         -23.9060   -3.1730   29.1460 C.2     0  UNK0       -0.0026
      4 C         -23.9890   -4.5490   28.8530 C.2     0  UNK0       -0.0003
      5 C         -25.1370   -5.2800   29.2050 C.2     0  UNK0       -0.0000
      6 C         -26.2320   -4.6110   29.7840 C.2     0  UNK0       -0.0003
      7 C         -26.1550   -3.2320   30.0650 C.2     0  UNK0       -0.0026
      8 C         -25.3870   -0.6790   31.5710 C.3     0  UNK0        0.0955
      9 C         -25.1890    0.7730   32.0280 C.3     0  UNK0        0.0209
     10 C         -25.3360    0.6840   33.5440 C.3     0  UNK0        0.0203
     11 C         -24.8290   -0.7150   33.9050 C.3     0  UNK0        0.0888
     12 N         -24.7580   -1.4810   32.6460 N.3     0  UNK0       -0.2174
     13 C         -25.6880    1.6140   26.4610 C.2     0  UNK0        0.0609
     14 C         -26.2500    2.9200   26.3950 C.2     0  UNK0        0.0763
     15 C         -25.6420    4.0930   27.1230 C.2     0  UNK0        0.2662
     16 N         -25.6140    5.2520   26.4490 N.am    0  UNK0       -0.1997
     17 C         -25.0260    6.4790   26.9630 C.3     0  UNK0        0.1388
     18 O         -25.1430    3.9660   28.2430 O.2     0  UNK0       -0.2683
     19 C         -27.4380    3.0910   25.6450 C.2     0  UNK0        0.1065
     20 N         -28.0750    2.0890   25.0030 N.2     0  UNK0       -0.2081
     21 C         -27.5430    0.8490   25.0790 C.2     0  UNK0        0.2531
     22 O         -28.1930   -0.2080   24.4770 O.2     0  UNK0       -0.4558
     23 C         -29.4600    0.0050   23.8660 C.3     0  UNK0        0.2426
     24 C         -30.0650   -1.3770   23.5730 C.3     0  UNK0        0.2292
     25 O         -30.7290   -1.8780   24.7210 O.3     0  UNK0       -0.2162
     26 C         -26.3540    0.5760   25.7770 C.2     0  UNK0        0.1928
     27 F         -25.8600   -0.6810   25.7950 F       0  UNK0       -0.1994
     28 CB        -30.1814    0.3127   28.2833 C.3     1  ALA1        0.0357
     29 O         -23.5170    1.6009   26.0644 O.2     0  UNK0       -0.4452
     30 C         -24.2901    0.6617   28.2969 C.2     0  UNK0        0.0794
     31 F         -20.7935    1.9227   28.0359 F       0  UNK0       -0.1984
     32 C         -24.4683    1.2258   26.9909 C.3     0  UNK0        0.2289
     33 CA        -29.1836   -0.5899   29.0894 C.3     1  ALA1        0.1994
     34 C         -22.9362    0.8367   28.6808 C.2     0  UNK0        0.0497
     35 F         -21.2686    1.8365   25.6036 F       0  UNK0       -0.1607
     36 C         -26.7602    0.3464   29.2074 C.2     0  UNK0        0.3275
     37 N         -27.7439   -0.6752   29.3811 N.am    1  ALA1       -0.1783
     38 OXT       -30.9560   -1.2089   30.5902 O.co2   1  ALA1       -0.2437
     39 C         -21.9929    1.4175   27.7976 C.2     0  UNK0        0.2041
     40 C         -22.2486    1.6095   26.5017 C.2     0  UNK0        0.3116
     41 C         -29.9606   -1.6387   29.9562 C.2     1  ALA1        0.3843
     42 N         -25.3102    0.0137   29.1378 N.am    0  UNK0       -0.2381
     43 O         -27.1018    1.5113   29.1049 O.2     0  UNK0       -0.2504
     44 O         -29.5354   -2.8568   30.0325 O.co2   1  ALA1       -0.2437
@<TRIPOS>BOND
     1     1    42    1
     2     2     7    1
     3     2     1    1
     4     3     2    2
     5     4     3    1
     6     4     5    2
     7     5     6    1
     8     6     7    2
     9     8     1    1
    10     8     9    1
    11     8    12    1
    12     9    10    1
    13    10    11    1
    14    12    11    1
    15    14    13    1
    16    14    15    1
    17    15    18    2
    18    16    17    1
    19    16    15    1
    20    19    14    2
    21    20    21    2
    22    20    19    1
    23    21    26    1
    24    22    21    1
    25    23    22    1
    26    24    23    1
    27    24    25    1
    28    26    27    1
    29    26    13    2
    30    29    40    1
    31    29    32    1
    32    30    34    2
    33    30    42    1
    34    32    13    1
    35    32    30    1
    36    33    28    1
    37    33    37    1
    38    33    41    1
    39    35    40    1
    40    36    37    1
    41    39    31    1
    42    39    34    1
    43    40    39    2
    44    41    44   ar
    45    41    38   ar
    46    42    36   am
    47    43    36    2
