@<TRIPOS>MOLECULE
No_3810-gen_results/8p0m/2024-11-27-11-27-31/
 9 8 0 0 0
SMALL
GASTEIGER

@<TRIPOS>ATOM
      1 C         -28.0162   -0.8135   28.8779 C.2     1  UNL1       -0.0049
      2 C         -27.0636   -0.1189   28.6079 C.2     1  UNL1       -0.0261
      3 C         -26.9716    0.7139   27.5060 C.3     1  UNL1        0.0261
      4 C         -25.8206    1.4910   27.1160 C.3     1  UNL1        0.0079
      5 C         -24.8580    1.3421   27.6008 C.3     1  UNL1        0.0438
      6 C         -23.5687    2.1107   27.3209 C.3     1  UNL1        0.2249
      7 F         -23.7091    2.7761   26.3251 F       1  UNL1       -0.2288
      8 C         -22.3040    1.8811   27.8339 C.2     1  UNL1        0.2423
      9 O         -21.2687    2.3198   27.4723 O.2     1  UNL1       -0.2853
@<TRIPOS>BOND
     1     1     2    2
     2     2     3    1
     3     3     4    1
     4     4     5    1
     5     5     6    1
     6     6     7    1
     7     6     8    1
     8     8     9    2
