@<TRIPOS>MOLECULE
outputs/IAG933/test6/raw/output_3814_IAG933_linker_design_.xyz
 48 52 0 0 0
SMALL
GASTEIGER

@<TRIPOS>ATOM
      1 C         -24.8550   -1.0120   30.1430 C.3     1  UNL1        0.0619
      2 C         -24.9730   -2.5050   29.7880 C.2     1  UNL1       -0.0170
      3 C         -23.9060   -3.1730   29.1460 C.2     1  UNL1       -0.0039
      4 C         -23.9890   -4.5490   28.8530 C.2     1  UNL1       -0.0003
      5 C         -25.1370   -5.2800   29.2050 C.2     1  UNL1       -0.0000
      6 C         -26.2320   -4.6110   29.7840 C.2     1  UNL1       -0.0003
      7 C         -26.1550   -3.2320   30.0650 C.2     1  UNL1       -0.0039
      8 C         -25.3870   -0.6790   31.5710 C.3     1  UNL1        0.0809
      9 C         -25.1890    0.7730   32.0280 C.3     1  UNL1        0.0195
     10 C         -25.3360    0.6840   33.5440 C.3     1  UNL1        0.0203
     11 C         -24.8290   -0.7150   33.9050 C.3     1  UNL1        0.0887
     12 N         -24.7580   -1.4810   32.6460 N.3     1  UNL1       -0.2188
     13 C         -25.6880    1.6140   26.4610 C.3     1  UNL1        0.0937
     14 C         -26.2500    2.9200   26.3950 C.2     1  UNL1        0.0589
     15 C         -25.6420    4.0930   27.1230 C.2     1  UNL1        0.2628
     16 N         -25.6140    5.2520   26.4490 N.am    1  UNL1       -0.2000
     17 C         -25.0260    6.4790   26.9630 C.3     1  UNL1        0.1388
     18 O         -25.1430    3.9660   28.2430 O.2     1  UNL1       -0.2686
     19 C         -27.4380    3.0910   25.6450 C.2     1  UNL1        0.1025
     20 N         -28.0750    2.0890   25.0030 N.2     1  UNL1       -0.2118
     21 C         -27.5430    0.8490   25.0790 C.2     1  UNL1        0.2344
     22 O         -28.1930   -0.2080   24.4770 O.2     1  UNL1       -0.4585
     23 C         -29.4600    0.0050   23.8660 C.3     1  UNL1        0.2423
     24 C         -30.0650   -1.3770   23.5730 C.3     1  UNL1        0.2292
     25 O         -30.7290   -1.8780   24.7210 O.3     1  UNL1       -0.2162
     26 C         -26.3540    0.5760   25.7770 C.3     1  UNL1        0.2440
     27 F         -25.8600   -0.6810   25.7950 F       1  UNL1       -0.2265
     28 O         -30.3968    3.5130   29.5475 O.3     1  UNL1       -0.3220
     29 C         -29.7836    2.2039   29.4962 C.3     1  UNL1        0.2313
     30 C         -24.8076    1.2195   27.3370 C.2     1  UNL1        0.0032
     31 C         -30.9158    4.5839   26.1000 C.3     1  UNL1        0.0053
     32 C         -30.4495    3.5915   27.1584 C.3     1  UNL1        0.0591
     33 C         -22.5821    1.1700   28.1007 C.2     1  UNL1        0.1952
     34 C         -25.2988    0.4494   28.3039 C.2     1  UNL1        0.0679
     35 C         -30.1040    4.3874   28.4228 C.3     1  UNL1        0.2194
     36 O         -28.7318    4.8048   28.3416 O.3     1  UNL1       -0.1953
     37 C         -28.3954    2.3069   30.0731 C.2     1  UNL1        0.2794
     38 N         -27.5738    1.2488   30.0875 N.am    1  UNL1       -0.1238
     39 C         -23.0230    0.3263   29.1483 C.2     1  UNL1        0.0394
     40 C         -24.3965   -0.0351   29.1979 C.2     1  UNL1        0.0012
     41 C         -23.5047    1.5981   27.1769 C.2     1  UNL1        0.0394
     42 O         -28.1532    3.3794   30.7115 O.2     1  UNL1       -0.2701
     43 C         -27.5748    0.2983   29.1705 C.2     1  UNL1        0.3501
     44 C         -31.3903    5.8131   26.8271 C.3     1  UNL1        0.0053
     45 N         -26.6458    0.1790   28.2303 N.am    1  UNL1       -0.1612
     46 O         -21.2931    1.6021   27.9164 O.2     1  UNL1       -0.2866
     47 O         -28.4719   -0.5492   29.1282 O.2     1  UNL1       -0.2484
     48 C         -31.0394    5.6241   28.3155 C.3     1  UNL1        0.0591
@<TRIPOS>BOND
     1     1    40    1
     2     2     7    1
     3     2     1    1
     4     3     2    2
     5     4     3    1
     6     4     5    2
     7     5     6    1
     8     6     7    2
     9     8     1    1
    10     8     9    1
    11     8    12    1
    12     9    10    1
    13    10    11    1
    14    12    11    1
    15    13    30    1
    16    14    13    1
    17    14    15    1
    18    15    18    2
    19    16    17    1
    20    16    15    1
    21    19    14    2
    22    20    21    2
    23    20    19    1
    24    21    26    1
    25    22    21    1
    26    23    22    1
    27    24    23    1
    28    24    25    1
    29    26    27    1
    30    26    13    1
    31    29    28    1
    32    29    37    1
    33    30    34    1
    34    31    44    1
    35    31    32    1
    36    32    35    1
    37    33    39    2
    38    34    40    2
    39    35    28    1
    40    36    35    1
    41    37    38    1
    42    37    42    2
    43    39    40    1
    44    41    30    2
    45    41    33    1
    46    43    38    1
    47    44    48    1
    48    45    34    1
    49    45    43    1
    50    46    33    1
    51    47    43    2
    52    48    35    1
