@<TRIPOS>MOLECULE
No_3816-gen_results/8p0m/2024-11-27-11-27-31/
 16 17 0 0 0
SMALL
GASTEIGER

@<TRIPOS>ATOM
      1 C         -28.0162   -0.8135   28.8779 C.ar    1  UNL1        0.0000
      2 C         -28.4690   -0.7850   29.8287 C.ar    1  UNL1        0.0000
      3 C         -27.0871    0.2903   28.6377 C.ar    1  UNL1        0.0015
      4 C         -26.7676    1.0274   29.4716 C.ar    1  UNL1        0.0176
      5 C         -28.2764    0.0268   31.0145 C.ar    1  UNL1        0.0000
      6 C         -27.3287    1.0538   30.7535 C.ar    1  UNL1        0.0015
      7 C         -25.7516    2.1742   29.2500 C.2     1  UNL1        0.0813
      8 N         -25.3534    2.9200   29.9889 N.2     1  UNL1       -0.2438
      9 C         -25.1377    2.2575   27.8875 C.ar    1  UNL1        0.0176
     10 C         -25.0942    1.5142   26.8956 C.ar    1  UNL1        0.0015
     11 C         -24.4478    1.7936   25.7567 C.ar    1  UNL1        0.0000
     12 C         -23.5470    2.7304   25.7747 C.ar    1  UNL1        0.0000
     13 C         -24.1764    3.4024   27.7601 C.ar    1  UNL1        0.0015
     14 C         -23.5074    3.7285   26.7489 C.ar    1  UNL1        0.0000
     15 C         -24.7579    2.5047   31.2079 C.2     1  UNL1        0.0989
     16 C         -24.5564    3.5915   32.2074 C.2     1  UNL1        0.0222
@<TRIPOS>BOND
     1     4     7    1
     2     7     8    2
     3     7     9    1
     4     8    15    1
     5    15    16    2
     6     1     2   ar
     7     2     5   ar
     8     5     6   ar
     9     6     4   ar
    10     4     3   ar
    11     3     1   ar
    12     9    10   ar
    13    10    11   ar
    14    11    12   ar
    15    12    14   ar
    16    14    13   ar
    17    13     9   ar
