@<TRIPOS>MOLECULE
No_3817-gen_results/8p0m/2024-11-27-11-27-31/
 10 10 0 0 0
SMALL
GASTEIGER

@<TRIPOS>ATOM
      1 C         -28.0162   -0.8135   28.8779 C.3     1  UNL1        0.1515
      2 C         -27.0636   -0.1189   28.6079 C.ar    1  UNL1        0.0020
      3 C         -26.9287    1.1713   29.0083 C.ar    1  UNL1       -0.0023
      4 C         -25.7702    2.0341   28.6884 C.ar    1  UNL1       -0.0003
      5 C         -24.7141    1.4431   27.9188 C.ar    1  UNL1       -0.0000
      6 C         -24.8590    0.0783   27.5836 C.ar    1  UNL1       -0.0003
      7 C         -25.9647   -0.6606   27.9164 C.ar    1  UNL1       -0.0023
      8 N         -28.7025   -0.6426   30.0750 N.2     1  UNL1       -0.2687
      9 C         -29.5716   -1.0828   30.6278 C.2     1  UNL1        0.0675
     10 C         -30.1415   -0.6433   31.9400 C.3     1  UNL1        0.0529
@<TRIPOS>BOND
     1     1     2    1
     2     1     8    1
     3     8     9    2
     4     9    10    1
     5     2     3   ar
     6     3     4   ar
     7     4     5   ar
     8     5     6   ar
     9     6     7   ar
    10     7     2   ar
