@<TRIPOS>MOLECULE
outputs/IAG933/test6/raw/output_3820_IAG933_linker_design_.xyz
 42 46 0 0 0
SMALL
GASTEIGER

@<TRIPOS>ATOM
      1 C         -24.8550   -1.0120   30.1430 C.3     1  UNL1        0.0456
      2 C         -24.9730   -2.5050   29.7880 C.2     1  UNL1       -0.0207
      3 C         -23.9060   -3.1730   29.1460 C.2     1  UNL1       -0.0042
      4 C         -23.9890   -4.5490   28.8530 C.2     1  UNL1       -0.0003
      5 C         -25.1370   -5.2800   29.2050 C.2     1  UNL1       -0.0000
      6 C         -26.2320   -4.6110   29.7840 C.2     1  UNL1       -0.0003
      7 C         -26.1550   -3.2320   30.0650 C.2     1  UNL1       -0.0042
      8 C         -25.3870   -0.6790   31.5710 C.3     1  UNL1        0.0978
      9 C         -25.1890    0.7730   32.0280 C.3     1  UNL1        0.1044
     10 C         -25.3360    0.6840   33.5440 C.3     1  UNL1        0.0428
     11 C         -24.8290   -0.7150   33.9050 C.3     1  UNL1        0.0907
     12 N         -24.7580   -1.4810   32.6460 N.3     1  UNL1       -0.2171
     13 C         -25.6880    1.6140   26.4610 C.2     1  UNL1        0.0407
     14 C         -26.2500    2.9200   26.3950 C.2     1  UNL1        0.0748
     15 C         -25.6420    4.0930   27.1230 C.2     1  UNL1        0.2270
     16 N         -25.6140    5.2520   26.4490 N.2     1  UNL1       -0.2353
     17 C         -25.0260    6.4790   26.9630 C.3     1  UNL1        0.1550
     18 O         -25.1430    3.9660   28.2430 O.3     1  UNL1       -0.4335
     19 C         -27.4380    3.0910   25.6450 C.2     1  UNL1        0.1068
     20 N         -28.0750    2.0890   25.0030 N.2     1  UNL1       -0.2081
     21 C         -27.5430    0.8490   25.0790 C.2     1  UNL1        0.2533
     22 O         -28.1930   -0.2080   24.4770 O.2     1  UNL1       -0.4558
     23 C         -29.4600    0.0050   23.8660 C.3     1  UNL1        0.2426
     24 C         -30.0650   -1.3770   23.5730 C.3     1  UNL1        0.2292
     25 O         -30.7290   -1.8780   24.7210 O.3     1  UNL1       -0.2162
     26 C         -26.3540    0.5760   25.7770 C.2     1  UNL1        0.1931
     27 F         -25.8600   -0.6810   25.7950 F       1  UNL1       -0.1992
     28 C         -23.1070    2.2145   27.7477 C.2     1  UNL1        0.0339
     29 O         -26.3066    5.7084   32.2733 O.3     1  UNL1       -0.1991
     30 C         -21.9328    1.5063   27.6757 C.2     1  UNL1        0.1363
     31 F         -21.0683    1.6390   26.6134 F       1  UNL1       -0.2045
     32 C         -24.7771    3.0663   29.2185 C.ar    1  UNL1        0.1797
     33 C         -23.5965    1.4178   29.9850 C.ar    1  UNL1        0.0637
     34 C         -26.6046    5.3470   30.9059 C.3     1  UNL1        0.2454
     35 C         -28.1143    5.7316   30.7062 C.3     1  UNL1        0.0602
     36 N         -24.5405    1.7987   31.1061 N.ar    1  UNL1       -0.3128
     37 C         -20.4255   -0.1339   28.6028 C.3     1  UNL1        0.0334
     38 C         -21.7097    0.6577   28.7682 C.2     1  UNL1        0.0070
     39 N         -26.5662    3.8649   30.8367 N.pl3   1  UNL1       -0.1888
     40 C         -22.4789    0.5448   29.9088 C.2     1  UNL1        0.0153
     41 C         -23.8720    2.2101   28.9445 C.ar    1  UNL1        0.0554
     42 C         -25.4404    2.9517   30.5295 C.ar    1  UNL1        0.1661
@<TRIPOS>BOND
     1     2     7    1
     2     2     1    1
     3     3     2    2
     4     4     3    1
     5     4     5    2
     6     5     6    1
     7     6     7    2
     8     8     1    1
     9     8     9    1
    10     8    12    1
    11     9    36    1
    12     9    10    1
    13    10    11    1
    14    12    11    1
    15    14    13    1
    16    14    15    1
    17    15    18    1
    18    16    17    1
    19    16    15    2
    20    18    32    1
    21    19    14    2
    22    20    21    2
    23    20    19    1
    24    21    26    1
    25    22    21    1
    26    23    22    1
    27    24    23    1
    28    24    25    1
    29    26    27    1
    30    26    13    2
    31    28    41    1
    32    30    28    2
    33    30    38    1
    34    31    30    1
    35    32    42   ar
    36    33    36   ar
    37    34    35    1
    38    34    29    1
    39    37    38    1
    40    38    40    2
    41    39    34    1
    42    40    33    1
    43    41    32   ar
    44    41    33   ar
    45    42    39    1
    46    42    36   ar
