@<TRIPOS>MOLECULE
No_3821-gen_results/8p0m/2024-11-27-11-27-31/
 9 9 0 0 0
SMALL
GASTEIGER

@<TRIPOS>ATOM
      1 C         -28.0162   -0.8135   28.8779 C.ar    1  UNL1        0.0066
      2 C         -28.4690   -0.7850   29.8287 C.ar    1  UNL1        0.0002
      3 C         -27.1356    0.2359   28.5352 C.ar    1  UNL1        0.0798
      4 C         -26.8745    1.2825   29.3982 C.ar    1  UNL1        0.0066
      5 C         -27.5070    1.2380   30.6295 C.ar    1  UNL1        0.0002
      6 C         -28.3293    0.1745   30.9350 C.ar    1  UNL1        0.0000
      7 C         -26.4077    0.3070   27.2259 C.2     1  UNL1        0.3878
      8 O         -25.9175    1.3773   26.9198 O.co2   1  UNL1       -0.2406
      9 O         -26.3359   -0.7122   26.4816 O.co2   1  UNL1       -0.2406
@<TRIPOS>BOND
     1     3     7    1
     2     7     8   ar
     3     7     9   ar
     4     1     2   ar
     5     2     6   ar
     6     6     5   ar
     7     5     4   ar
     8     4     3   ar
     9     3     1   ar
