@<TRIPOS>MOLECULE
outputs/IAG933/test6/raw/output_3823_IAG933_linker_design_.xyz
 44 47 0 0 0
SMALL
GASTEIGER

@<TRIPOS>ATOM
      1 C         -24.8550   -1.0120   30.1430 C.3     1  UNL1        0.0963
      2 C         -24.9730   -2.5050   29.7880 C.2     1  UNL1       -0.0064
      3 C         -23.9060   -3.1730   29.1460 C.2     1  UNL1       -0.0029
      4 C         -23.9890   -4.5490   28.8530 C.2     1  UNL1       -0.0003
      5 C         -25.1370   -5.2800   29.2050 C.2     1  UNL1       -0.0000
      6 C         -26.2320   -4.6110   29.7840 C.2     1  UNL1       -0.0003
      7 C         -26.1550   -3.2320   30.0650 C.2     1  UNL1       -0.0029
      8 C         -25.3870   -0.6790   31.5710 C.3     1  UNL1        0.0916
      9 C         -25.1890    0.7730   32.0280 C.3     1  UNL1        0.0206
     10 C         -25.3360    0.6840   33.5440 C.3     1  UNL1        0.0203
     11 C         -24.8290   -0.7150   33.9050 C.3     1  UNL1        0.0888
     12 N         -24.7580   -1.4810   32.6460 N.3     1  UNL1       -0.2178
     13 C         -25.6880    1.6140   26.4610 C.2     1  UNL1        0.0195
     14 C         -26.2500    2.9200   26.3950 C.2     1  UNL1        0.0727
     15 C         -25.6420    4.0930   27.1230 C.2     1  UNL1        0.2661
     16 N         -25.6140    5.2520   26.4490 N.am    1  UNL1       -0.1997
     17 C         -25.0260    6.4790   26.9630 C.3     1  UNL1        0.1388
     18 O         -25.1430    3.9660   28.2430 O.2     1  UNL1       -0.2683
     19 C         -27.4380    3.0910   25.6450 C.2     1  UNL1        0.1064
     20 N         -28.0750    2.0890   25.0030 N.2     1  UNL1       -0.2081
     21 C         -27.5430    0.8490   25.0790 C.2     1  UNL1        0.2530
     22 O         -28.1930   -0.2080   24.4770 O.2     1  UNL1       -0.4558
     23 C         -29.4600    0.0050   23.8660 C.3     1  UNL1        0.2426
     24 C         -30.0650   -1.3770   23.5730 C.3     1  UNL1        0.2292
     25 O         -30.7290   -1.8780   24.7210 O.3     1  UNL1       -0.2162
     26 C         -26.3540    0.5760   25.7770 C.2     1  UNL1        0.1892
     27 F         -25.8600   -0.6810   25.7950 F       1  UNL1       -0.1996
     28 O         -31.5790    1.2407   31.7972 O.2     1  UNL1       -0.2474
     29 N         -29.5189    1.7943   32.6009 N.am    1  UNL1       -0.0679
     30 C         -24.5959    1.1517   28.7099 C.3     1  UNL1        0.0978
     31 C         -26.7680   -0.2802   28.5072 C.3     1  UNL1        0.0725
     32 N         -25.4418   -0.0498   29.1740 N.3     1  UNL1       -0.2678
     33 N         -29.8378    1.7110   30.4679 N.am    1  UNL1       -0.1859
     34 C         -23.1162    1.7127   26.8408 C.3     1  UNL1        0.1923
     35 O         -22.7047    1.8260   25.4622 O.3     1  UNL1       -0.2197
     36 C         -23.1155    0.8441   29.0183 C.3     1  UNL1        0.2017
     37 C         -27.9617    0.3501   29.0170 C.3     1  UNL1        0.0192
     38 C         -24.4708    1.1120   27.1876 C.3     1  UNL1        0.0754
     39 F         -20.9483    1.5091   27.8676 F       1  UNL1       -0.2317
     40 C         -28.5241    2.3612   30.2975 C.3     1  UNL1        0.1169
     41 C         -27.9172    1.9205   28.9764 C.3     1  UNL1        0.0249
     42 C         -30.3658    1.5909   31.6435 C.2     1  UNL1        0.3589
     43 C         -22.2062    0.9244   27.7423 C.3     1  UNL1        0.2228
     44 O         -22.4746   -0.0074   30.0047 O.3     1  UNL1       -0.2187
@<TRIPOS>BOND
     1     1    32    1
     2     2     7    1
     3     2     1    1
     4     3     2    2
     5     4     3    1
     6     4     5    2
     7     5     6    1
     8     6     7    2
     9     8     1    1
    10     8     9    1
    11     8    12    1
    12     9    10    1
    13    10    11    1
    14    12    11    1
    15    14    13    1
    16    14    15    1
    17    15    18    2
    18    16    17    1
    19    16    15    1
    20    19    14    2
    21    20    21    2
    22    20    19    1
    23    21    26    1
    24    22    21    1
    25    23    22    1
    26    24    23    1
    27    24    25    1
    28    26    27    1
    29    26    13    2
    30    30    36    1
    31    30    32    1
    32    31    37    1
    33    31    32    1
    34    33    42    1
    35    34    35    1
    36    34    38    1
    37    34    43    1
    38    36    44    1
    39    38    13    1
    40    38    30    1
    41    40    33    1
    42    41    37    1
    43    41    40    1
    44    42    28    2
    45    42    29    1
    46    43    39    1
    47    43    36    1
