@<TRIPOS>MOLECULE
outputs/IAG933/test6/raw/output_3824_IAG933_linker_design_.xyz
 49 53 0 0 0
SMALL
GASTEIGER

@<TRIPOS>ATOM
      1 C         -24.8550   -1.0120   30.1430 C.3     1  UNL1        0.0424
      2 C         -24.9730   -2.5050   29.7880 C.2     1  UNL1       -0.0208
      3 C         -23.9060   -3.1730   29.1460 C.2     1  UNL1       -0.0042
      4 C         -23.9890   -4.5490   28.8530 C.2     1  UNL1       -0.0003
      5 C         -25.1370   -5.2800   29.2050 C.2     1  UNL1       -0.0000
      6 C         -26.2320   -4.6110   29.7840 C.2     1  UNL1       -0.0003
      7 C         -26.1550   -3.2320   30.0650 C.2     1  UNL1       -0.0042
      8 C         -25.3870   -0.6790   31.5710 C.3     1  UNL1        0.0771
      9 C         -25.1890    0.7730   32.0280 C.3     1  UNL1        0.0192
     10 C         -25.3360    0.6840   33.5440 C.3     1  UNL1        0.0202
     11 C         -24.8290   -0.7150   33.9050 C.3     1  UNL1        0.0887
     12 N         -24.7580   -1.4810   32.6460 N.3     1  UNL1       -0.2191
     13 C         -25.6880    1.6140   26.4610 C.2     1  UNL1        0.0378
     14 C         -26.2500    2.9200   26.3950 C.2     1  UNL1        0.0765
     15 C         -25.6420    4.0930   27.1230 C.2     1  UNL1        0.2664
     16 N         -25.6140    5.2520   26.4490 N.am    1  UNL1       -0.1997
     17 C         -25.0260    6.4790   26.9630 C.3     1  UNL1        0.1388
     18 O         -25.1430    3.9660   28.2430 O.2     1  UNL1       -0.2683
     19 C         -27.4380    3.0910   25.6450 C.2     1  UNL1        0.1067
     20 N         -28.0750    2.0890   25.0030 N.2     1  UNL1       -0.2081
     21 C         -27.5430    0.8490   25.0790 C.2     1  UNL1        0.2533
     22 O         -28.1930   -0.2080   24.4770 O.2     1  UNL1       -0.4558
     23 C         -29.4600    0.0050   23.8660 C.3     1  UNL1        0.2426
     24 C         -30.0650   -1.3770   23.5730 C.3     1  UNL1        0.2292
     25 O         -30.7290   -1.8780   24.7210 O.3     1  UNL1       -0.2162
     26 C         -26.3540    0.5760   25.7770 C.2     1  UNL1        0.1930
     27 F         -25.8600   -0.6810   25.7950 F       1  UNL1       -0.1992
     28 C         -21.7253    1.2087   27.9655 C.2     1  UNL1       -0.0003
     29 O         -28.8100    2.9991   30.7924 O.2     1  UNL1       -0.1686
     30 N         -33.1273    7.1218   28.2551 N.pl3   1  UNL1       -0.1281
     31 C         -28.0110    0.2080   29.0951 C.3     1  UNL1        0.1541
     32 C         -32.1495    5.5464   29.6473 C.2     1  UNL1        0.0194
     33 C         -30.4453    3.9493   29.0229 C.2     1  UNL1        0.1057
     34 O         -30.3894    1.3171   30.1683 O.2     1  UNL1       -0.1686
     35 C         -32.0251    6.1929   28.4808 C.2     1  UNL1        0.0892
     36 C         -28.9415    1.0194   28.1620 C.3     1  UNL1        0.0586
     37 C         -28.9003    2.4093   28.4199 C.3     1  UNL1        0.1585
     38 C         -23.2754    1.9485   26.2967 C.2     1  UNL1       -0.0002
     39 C         -31.4130    4.4516   29.9150 C.2     1  UNL1        0.0197
     40 O         -28.6048   -1.0846   29.0684 O.3     1  UNL1       -0.2231
     41 C         -25.2086    0.1387   29.1139 C.3     1  UNL1        0.0302
     42 C         -24.3250    1.4068   27.0262 C.2     1  UNL1       -0.0014
     43 C         -24.1178    0.7253   28.2444 C.2     1  UNL1       -0.0220
     44 C         -22.7731    0.6419   28.6972 C.2     1  UNL1       -0.0043
     45 C         -30.9821    5.8945   27.5432 C.2     1  UNL1        0.0194
     46 C         -30.1209    4.8116   27.7858 C.2     1  UNL1        0.0197
     47 C         -21.9725    1.8339   26.7492 C.2     1  UNL1       -0.0000
     48 S         -29.8100    2.4691   29.7798 S.O2    1  UNL1        0.0087
     49 C         -26.5873   -0.0439   28.6137 C.3     1  UNL1        0.0377
@<TRIPOS>BOND
     1     1    41    1
     2     2     7    1
     3     2     1    1
     4     3     2    2
     5     4     3    1
     6     4     5    2
     7     5     6    1
     8     6     7    2
     9     8     1    1
    10     8     9    1
    11     8    12    1
    12     9    10    1
    13    10    11    1
    14    12    11    1
    15    13    42    1
    16    14    13    1
    17    14    15    1
    18    15    18    2
    19    16    17    1
    20    16    15    1
    21    19    14    2
    22    20    21    2
    23    20    19    1
    24    21    26    1
    25    22    21    1
    26    23    22    1
    27    24    23    1
    28    24    25    1
    29    26    27    1
    30    26    13    2
    31    28    44    1
    32    30    35    1
    33    31    40    1
    34    32    39    1
    35    33    48    1
    36    33    39    2
    37    35    32    2
    38    36    37    1
    39    36    31    1
    40    37    48    1
    41    38    47    1
    42    38    42    2
    43    41    49    1
    44    42    43    1
    45    43    44    2
    46    43    41    1
    47    45    46    2
    48    45    35    1
    49    46    33    1
    50    47    28    2
    51    48    34    2
    52    48    29    2
    53    49    31    1
