@<TRIPOS>MOLECULE
outputs/IAG933/test6/raw/output_3828_IAG933_linker_design_.xyz
 43 47 0 0 0
SMALL
GASTEIGER

@<TRIPOS>ATOM
      1 C         -24.8550   -1.0120   30.1430 C.3     1  UNL1        0.1116
      2 C         -24.9730   -2.5050   29.7880 C.2     1  UNL1       -0.0030
      3 C         -23.9060   -3.1730   29.1460 C.2     1  UNL1       -0.0026
      4 C         -23.9890   -4.5490   28.8530 C.2     1  UNL1       -0.0003
      5 C         -25.1370   -5.2800   29.2050 C.2     1  UNL1       -0.0000
      6 C         -26.2320   -4.6110   29.7840 C.2     1  UNL1       -0.0003
      7 C         -26.1550   -3.2320   30.0650 C.2     1  UNL1       -0.0026
      8 C         -25.3870   -0.6790   31.5710 C.3     1  UNL1        0.0950
      9 C         -25.1890    0.7730   32.0280 C.3     1  UNL1        0.0209
     10 C         -25.3360    0.6840   33.5440 C.3     1  UNL1        0.0203
     11 C         -24.8290   -0.7150   33.9050 C.3     1  UNL1        0.0888
     12 N         -24.7580   -1.4810   32.6460 N.3     1  UNL1       -0.2174
     13 C         -25.6880    1.6140   26.4610 C.2     1  UNL1        0.0456
     14 C         -26.2500    2.9200   26.3950 C.2     1  UNL1        0.0768
     15 C         -25.6420    4.0930   27.1230 C.2     1  UNL1        0.2664
     16 N         -25.6140    5.2520   26.4490 N.am    1  UNL1       -0.1997
     17 C         -25.0260    6.4790   26.9630 C.3     1  UNL1        0.1388
     18 O         -25.1430    3.9660   28.2430 O.2     1  UNL1       -0.2683
     19 C         -27.4380    3.0910   25.6450 C.2     1  UNL1        0.1067
     20 N         -28.0750    2.0890   25.0030 N.2     1  UNL1       -0.2081
     21 C         -27.5430    0.8490   25.0790 C.2     1  UNL1        0.2533
     22 O         -28.1930   -0.2080   24.4770 O.2     1  UNL1       -0.4558
     23 C         -29.4600    0.0050   23.8660 C.3     1  UNL1        0.2426
     24 C         -30.0650   -1.3770   23.5730 C.3     1  UNL1        0.2292
     25 O         -30.7290   -1.8780   24.7210 O.3     1  UNL1       -0.2162
     26 C         -26.3540    0.5760   25.7770 C.2     1  UNL1        0.1933
     27 F         -25.8600   -0.6810   25.7950 F       1  UNL1       -0.1992
     28 C         -21.6547    1.1165   27.9824 C.2     1  UNL1        0.2262
     29 C         -28.7397    1.8411   28.6018 C.2     1  UNL1       -0.0026
     30 C         -24.4639    1.3205   27.1160 C.2     1  UNL1        0.0951
     31 C         -27.5661    2.2248   30.6723 C.2     1  UNL1       -0.0026
     32 N         -25.2344   -0.0878   29.0387 N.pl3   1  UNL1       -0.2973
     33 C         -29.1348    3.9410   29.9163 C.2     1  UNL1       -0.0000
     34 C         -26.7389    0.2531   28.9247 C.3     1  UNL1        0.1180
     35 C         -23.2581    2.0167   26.3004 C.2     1  UNL1        0.3473
     36 O         -21.9684    1.6457   26.7184 O.3     1  UNL1       -0.4144
     37 C         -27.6683    1.4397   29.4419 C.2     1  UNL1       -0.0024
     38 C         -28.2912    3.4123   30.9110 C.2     1  UNL1       -0.0003
     39 C         -29.3887    3.1122   28.7904 C.2     1  UNL1       -0.0003
     40 C         -24.1862    0.6136   28.3277 C.2     1  UNL1        0.0973
     41 O         -22.3458   -0.1744   29.9394 O.2     1  UNL1       -0.2818
     42 O         -23.3610    2.8379   25.2068 O.2     1  UNL1       -0.2444
     43 C         -22.7988    0.5263   28.7969 C.2     1  UNL1        0.2465
@<TRIPOS>BOND
     1     1    32    1
     2     2     7    1
     3     2     1    1
     4     3     2    2
     5     4     3    1
     6     4     5    2
     7     5     6    1
     8     6     7    2
     9     8     1    1
    10     8     9    1
    11     8    12    1
    12     9    10    1
    13    10    11    1
    14    12    11    1
    15    13    30    1
    16    14    13    1
    17    14    15    1
    18    15    18    2
    19    16    17    1
    20    16    15    1
    21    19    14    2
    22    20    21    2
    23    20    19    1
    24    21    26    1
    25    22    21    1
    26    23    22    1
    27    24    23    1
    28    24    25    1
    29    26    27    1
    30    26    13    2
    31    28    43    2
    32    29    39    2
    33    29    37    1
    34    30    40    2
    35    31    38    1
    36    33    38    2
    37    34    32    1
    38    34    37    1
    39    35    36    1
    40    35    30    1
    41    36    28    1
    42    37    31    2
    43    39    33    1
    44    40    43    1
    45    40    32    1
    46    42    35    2
    47    43    41    1
