@<TRIPOS>MOLECULE
No_383-gen_results/8p0m/2024-11-27-11-27-31/
 21 22 0 0 0
SMALL
GASTEIGER

@<TRIPOS>ATOM
      1 C         -28.0162   -0.8135   28.8779 C.ar    1  UNL1        0.0369
      2 C         -27.0636   -0.1190   28.6079 C.ar    1  UNL1        0.0031
      3 C         -25.7647   -0.3897   29.0360 C.ar    1  UNL1        0.0002
      4 C         -25.5296   -1.5302   29.9014 C.ar    1  UNL1        0.0031
      5 C         -26.6888   -2.2893   30.1810 C.ar    1  UNL1        0.0369
      6 C         -27.8727   -1.9508   29.7373 C.ar    1  UNL1        0.1392
      7 C         -24.5491    0.4100   28.7341 C.ar    1  UNL1        0.0008
      8 C         -24.4789    1.1871   27.6843 C.ar    1  UNL1        0.0114
      9 C         -23.2830    1.8356   27.3522 C.ar    1  UNL1        0.0577
     10 C         -22.1028    1.6619   28.0350 C.ar    1  UNL1        0.0114
     11 C         -23.3238    0.1535   29.4730 C.ar    1  UNL1        0.0001
     12 C         -22.1169    0.8126   29.1066 C.ar    1  UNL1        0.0009
     13 O         -28.9558   -2.7100   30.0971 O.3     1  UNL1       -0.4673
     14 C         -30.0671   -2.1385   30.5955 C.3     1  UNL1        0.2719
     15 C         -31.1663   -2.6927   30.1419 C.2     1  UNL1        0.4044
     16 O         -32.0528   -2.1199   29.6576 O.co2   1  UNL1       -0.2416
     17 O         -31.3495   -4.0341   30.2183 O.co2   1  UNL1       -0.2416
     18 CL        -23.3205    2.9447   25.9862 Cl      1  UNL1       -0.0822
     19 C         -29.9541   -2.1858   32.1638 C.3     1  UNL1        0.0815
     20 C         -29.9752   -3.0757   32.8506 C.2     1  UNL1       -0.0218
     21 C         -30.1489   -4.1916   32.5843 C.2     1  UNL1       -0.0048
@<TRIPOS>BOND
     1     3     7    1
     2     6    13    1
     3    13    14    1
     4    14    15    1
     5    15    16   ar
     6    15    17   ar
     7     9    18    1
     8    14    19    1
     9    19    20    1
    10    20    21    2
    11     7     8   ar
    12     8     9   ar
    13     9    10   ar
    14    10    12   ar
    15    12    11   ar
    16    11     7   ar
    17     1     2   ar
    18     2     3   ar
    19     3     4   ar
    20     4     5   ar
    21     5     6   ar
    22     6     1   ar
