@<TRIPOS>MOLECULE
outputs/IAG933/test6/raw/output_3831_IAG933_linker_design_.xyz
 43 46 0 0 0
SMALL
GASTEIGER

@<TRIPOS>ATOM
      1 C         -24.8550   -1.0120   30.1430 C.3     1  UNL1        0.0446
      2 C         -24.9730   -2.5050   29.7880 C.2     1  UNL1       -0.0208
      3 C         -23.9060   -3.1730   29.1460 C.2     1  UNL1       -0.0042
      4 C         -23.9890   -4.5490   28.8530 C.2     1  UNL1       -0.0003
      5 C         -25.1370   -5.2800   29.2050 C.2     1  UNL1       -0.0000
      6 C         -26.2320   -4.6110   29.7840 C.2     1  UNL1       -0.0003
      7 C         -26.1550   -3.2320   30.0650 C.2     1  UNL1       -0.0042
      8 C         -25.3870   -0.6790   31.5710 C.3     1  UNL1        0.0772
      9 C         -25.1890    0.7730   32.0280 C.3     1  UNL1        0.0192
     10 C         -25.3360    0.6840   33.5440 C.3     1  UNL1        0.0202
     11 C         -24.8290   -0.7150   33.9050 C.3     1  UNL1        0.0887
     12 N         -24.7580   -1.4810   32.6460 N.3     1  UNL1       -0.2191
     13 C         -25.6880    1.6140   26.4610 C.2     1  UNL1        0.0183
     14 C         -26.2500    2.9200   26.3950 C.2     1  UNL1        0.0727
     15 C         -25.6420    4.0930   27.1230 C.2     1  UNL1        0.2661
     16 N         -25.6140    5.2520   26.4490 N.am    1  UNL1       -0.1997
     17 C         -25.0260    6.4790   26.9630 C.3     1  UNL1        0.1388
     18 O         -25.1430    3.9660   28.2430 O.2     1  UNL1       -0.2683
     19 C         -27.4380    3.0910   25.6450 C.2     1  UNL1        0.1064
     20 N         -28.0750    2.0890   25.0030 N.2     1  UNL1       -0.2081
     21 C         -27.5430    0.8490   25.0790 C.2     1  UNL1        0.2530
     22 O         -28.1930   -0.2080   24.4770 O.2     1  UNL1       -0.4558
     23 C         -29.4600    0.0050   23.8660 C.3     1  UNL1        0.2426
     24 C         -30.0650   -1.3770   23.5730 C.3     1  UNL1        0.2292
     25 O         -30.7290   -1.8780   24.7210 O.3     1  UNL1       -0.2162
     26 C         -26.3540    0.5760   25.7770 C.2     1  UNL1        0.1892
     27 F         -25.8600   -0.6810   25.7950 F       1  UNL1       -0.1996
     28 C         -24.6352    1.3103   27.2303 C.3     1  UNL1        0.0588
     29 C         -22.2881    1.1255   28.5787 C.3     1  UNL1        0.1422
     30 O         -23.5334    0.6455   29.0962 O.3     1  UNL1       -0.3556
     31 N         -29.4429   -0.0357   28.8349 N.pl3   1  UNL1       -0.1815
     32 C         -25.7240   -0.1826   29.2202 C.3     1  UNL1        0.0562
     33 N         -30.8508    0.5458   26.9921 N.2     1  UNL1        0.1879
     34 C         -29.2515    1.1413   29.4430 C.3     1  UNL1        0.2473
     35 C         -30.5468   -0.1965   28.0376 C.2     1  UNL1        0.3530
     36 N         -27.2046    2.4300   29.4822 N.pl3   1  UNL1       -0.1290
     37 C         -27.2226   -0.0032   29.2761 C.2     1  UNL1        0.0211
     38 C         -28.3386   -0.8311   28.9819 C.3     1  UNL1        0.2267
     39 C         -32.7163   -1.3143   27.4288 C.3     1  UNL1        0.0134
     40 C         -31.5187   -1.2841   28.3858 C.3     1  UNL1        0.1221
     41 C         -27.8112    1.2169   29.4984 C.2     1  UNL1        0.1095
     42 C         -24.8218    0.7597   28.4663 C.3     1  UNL1        0.1238
     43 C         -21.2206    1.4816   27.8844 C.3     1  UNL1        0.0346
@<TRIPOS>BOND
     1     1    32    1
     2     2     7    1
     3     2     1    1
     4     3     2    2
     5     4     3    1
     6     4     5    2
     7     5     6    1
     8     6     7    2
     9     8     1    1
    10     8     9    1
    11     8    12    1
    12     9    10    1
    13    10    11    1
    14    12    11    1
    15    13    28    1
    16    14    13    1
    17    14    15    1
    18    15    18    2
    19    16    17    1
    20    16    15    1
    21    19    14    2
    22    20    21    2
    23    20    19    1
    24    21    26    1
    25    22    21    1
    26    23    22    1
    27    24    23    1
    28    24    25    1
    29    26    27    1
    30    26    13    2
    31    29    30    1
    32    31    38    1
    33    31    34    1
    34    32    42    1
    35    32    37    1
    36    33    35    2
    37    34    41    1
    38    35    40    1
    39    35    31    1
    40    36    41    1
    41    37    41    2
    42    38    37    1
    43    39    40    1
    44    42    28    1
    45    42    30    1
    46    43    29    1
