@<TRIPOS>MOLECULE
outputs/IAG933/test6/raw/output_3835_IAG933_linker_design_.xyz
 39 43 0 0 0
SMALL
GASTEIGER

@<TRIPOS>ATOM
      1 C         -24.8550   -1.0120   30.1430 C.3     1  UNL1        0.1003
      2 C         -24.9730   -2.5050   29.7880 C.2     1  UNL1       -0.0063
      3 C         -23.9060   -3.1730   29.1460 C.2     1  UNL1       -0.0029
      4 C         -23.9890   -4.5490   28.8530 C.2     1  UNL1       -0.0003
      5 C         -25.1370   -5.2800   29.2050 C.2     1  UNL1       -0.0000
      6 C         -26.2320   -4.6110   29.7840 C.2     1  UNL1       -0.0003
      7 C         -26.1550   -3.2320   30.0650 C.2     1  UNL1       -0.0029
      8 C         -25.3870   -0.6790   31.5710 C.3     1  UNL1        0.0917
      9 C         -25.1890    0.7730   32.0280 C.3     1  UNL1        0.0206
     10 C         -25.3360    0.6840   33.5440 C.3     1  UNL1        0.0203
     11 C         -24.8290   -0.7150   33.9050 C.3     1  UNL1        0.0888
     12 N         -24.7580   -1.4810   32.6460 N.3     1  UNL1       -0.2178
     13 C         -25.6880    1.6140   26.4610 C.2     1  UNL1        0.0193
     14 C         -26.2500    2.9200   26.3950 C.2     1  UNL1        0.0727
     15 C         -25.6420    4.0930   27.1230 C.2     1  UNL1        0.2661
     16 N         -25.6140    5.2520   26.4490 N.am    1  UNL1       -0.1997
     17 C         -25.0260    6.4790   26.9630 C.3     1  UNL1        0.1388
     18 O         -25.1430    3.9660   28.2430 O.2     1  UNL1       -0.2683
     19 C         -27.4380    3.0910   25.6450 C.2     1  UNL1        0.1064
     20 N         -28.0750    2.0890   25.0030 N.2     1  UNL1       -0.2081
     21 C         -27.5430    0.8490   25.0790 C.2     1  UNL1        0.2530
     22 O         -28.1930   -0.2080   24.4770 O.2     1  UNL1       -0.4558
     23 C         -29.4600    0.0050   23.8660 C.3     1  UNL1        0.2426
     24 C         -30.0650   -1.3770   23.5730 C.3     1  UNL1        0.2292
     25 O         -30.7290   -1.8780   24.7210 O.3     1  UNL1       -0.2162
     26 C         -26.3540    0.5760   25.7770 C.2     1  UNL1        0.1892
     27 F         -25.8600   -0.6810   25.7950 F       1  UNL1       -0.1996
     28 C         -23.1439    1.1332   26.8612 C.3     1  UNL1        0.0122
     29 C         -20.8154    1.2342   27.7493 C.3     1  UNL1        0.0912
     30 N         -20.3038    0.0710   28.6461 N.3     1  UNL1       -0.2154
     31 N         -25.2066   -0.1554   29.0108 N.3     1  UNL1       -0.2184
     32 C         -22.4352    1.3536   28.1119 C.3     1  UNL1        0.0466
     33 C         -24.7811    1.2456   28.9215 C.3     1  UNL1        0.1823
     34 O         -23.6430    1.5145   29.7491 O.3     1  UNL1       -0.3414
     35 O         -27.3867    0.4207   28.8003 O.3     1  UNL1       -0.2005
     36 C         -24.5407    1.2839   27.4266 C.3     1  UNL1        0.0681
     37 C         -21.5112   -0.4887   29.3177 C.3     1  UNL1        0.1182
     38 C         -26.4708   -0.4199   28.4356 C.3     1  UNL1        0.2610
     39 C         -22.5695    0.6347   29.2653 C.3     1  UNL1        0.1354
@<TRIPOS>BOND
     1     1    31    1
     2     2     7    1
     3     2     1    1
     4     3     2    2
     5     4     3    1
     6     4     5    2
     7     5     6    1
     8     6     7    2
     9     8     1    1
    10     8     9    1
    11     8    12    1
    12     9    10    1
    13    10    11    1
    14    12    11    1
    15    14    13    1
    16    14    15    1
    17    15    18    2
    18    16    17    1
    19    16    15    1
    20    19    14    2
    21    20    21    2
    22    20    19    1
    23    21    26    1
    24    22    21    1
    25    23    22    1
    26    24    23    1
    27    24    25    1
    28    26    27    1
    29    26    13    2
    30    28    36    1
    31    29    32    1
    32    29    30    1
    33    30    37    1
    34    32    28    1
    35    32    39    1
    36    33    31    1
    37    33    34    1
    38    36    13    1
    39    36    33    1
    40    38    35    1
    41    38    31    1
    42    39    37    1
    43    39    34    1
