@<TRIPOS>MOLECULE
No_3836-gen_results/8p0m/2024-11-27-11-27-31/
 25 28 0 0 0
SMALL
GASTEIGER

@<TRIPOS>ATOM
      1 O         -28.1229   -1.3353   28.4874 O.2     1  UNL1       -0.2696
      2 C         -27.4806   -0.4044   28.7094 C.2     1  UNL1        0.2525
      3 C         -26.3804   -0.0867   27.9395 C.ar    1  UNL1        0.0503
      4 N         -27.6665    0.4468   29.8988 N.am    1  UNL1       -0.2537
      5 C         -26.4086    0.8567   26.8802 C.ar    1  UNL1        0.0041
      6 C         -25.2466    1.1198   26.1102 C.ar    1  UNL1        0.0001
      7 C         -23.9991    0.7500   26.5964 C.ar    1  UNL1       -0.0003
      8 C         -23.9411    0.0388   27.7865 C.ar    1  UNL1       -0.0038
      9 C         -25.0420   -0.3844   28.4675 C.ar    1  UNL1       -0.0134
     10 C         -28.7623    0.1142   30.7677 C.3     1  UNL1        0.1203
     11 C         -26.8511    1.5212   30.2105 C.ar    1  UNL1        0.0505
     12 C         -27.0130    2.3985   30.7069 C.ar    1  UNL1        0.0146
     13 C         -26.0276    3.4932   30.9529 C.ar    1  UNL1        0.0013
     14 C         -24.8048    3.2975   30.2403 C.ar    1  UNL1       -0.0002
     15 C         -24.6165    2.2363   29.4611 C.ar    1  UNL1       -0.0027
     16 C         -25.5444    1.3695   29.4496 C.ar    1  UNL1       -0.0041
     17 C         -24.9262    0.2252   29.4561 C.3     1  UNL1        0.0540
     18 C         -27.6964    1.1938   26.2307 C.2     1  UNL1        0.0001
     19 C         -27.8123    1.9023   25.1943 C.2     1  UNL1        0.0000
     20 C         -29.0809    2.2196   24.7439 C.ar    1  UNL1        0.0000
     21 C         -29.2685    3.3543   23.8746 C.ar    1  UNL1        0.0000
     22 C         -30.2170    1.4667   25.0064 C.ar    1  UNL1        0.0000
     23 C         -30.5632    3.6480   23.4809 C.ar    1  UNL1        0.0000
     24 C         -31.4594    1.7332   24.5365 C.ar    1  UNL1        0.0000
     25 C         -31.6574    2.9059   23.7471 C.ar    1  UNL1        0.0000
@<TRIPOS>BOND
     1     1     2    2
     2     2     3    1
     3     2     4   am
     4     4    10    1
     5     4    11    1
     6     9    17    1
     7    16    17    1
     8     5    18    1
     9    18    19    2
    10    19    20    1
    11    11    12   ar
    12    12    13   ar
    13    13    14   ar
    14    14    15   ar
    15    15    16   ar
    16    16    11   ar
    17     3     5   ar
    18     5     6   ar
    19     6     7   ar
    20     7     8   ar
    21     8     9   ar
    22     9     3   ar
    23    20    21   ar
    24    21    23   ar
    25    23    25   ar
    26    25    24   ar
    27    24    22   ar
    28    22    20   ar
