@<TRIPOS>MOLECULE
outputs/IAG933/test6/raw/output_3837_IAG933_linker_design_.xyz
 42 45 0 0 0
SMALL
GASTEIGER

@<TRIPOS>ATOM
      1 C         -24.8550   -1.0120   30.1430 C.3     1  UNL1        0.1116
      2 C         -24.9730   -2.5050   29.7880 C.2     1  UNL1       -0.0030
      3 C         -23.9060   -3.1730   29.1460 C.2     1  UNL1       -0.0026
      4 C         -23.9890   -4.5490   28.8530 C.2     1  UNL1       -0.0003
      5 C         -25.1370   -5.2800   29.2050 C.2     1  UNL1       -0.0000
      6 C         -26.2320   -4.6110   29.7840 C.2     1  UNL1       -0.0003
      7 C         -26.1550   -3.2320   30.0650 C.2     1  UNL1       -0.0026
      8 C         -25.3870   -0.6790   31.5710 C.3     1  UNL1        0.0950
      9 C         -25.1890    0.7730   32.0280 C.3     1  UNL1        0.0209
     10 C         -25.3360    0.6840   33.5440 C.3     1  UNL1        0.0203
     11 C         -24.8290   -0.7150   33.9050 C.3     1  UNL1        0.0888
     12 N         -24.7580   -1.4810   32.6460 N.3     1  UNL1       -0.2174
     13 C         -25.6880    1.6140   26.4610 C.2     1  UNL1        0.0401
     14 C         -26.2500    2.9200   26.3950 C.2     1  UNL1        0.0766
     15 C         -25.6420    4.0930   27.1230 C.2     1  UNL1        0.2664
     16 N         -25.6140    5.2520   26.4490 N.am    1  UNL1       -0.1997
     17 C         -25.0260    6.4790   26.9630 C.3     1  UNL1        0.1388
     18 O         -25.1430    3.9660   28.2430 O.2     1  UNL1       -0.2683
     19 C         -27.4380    3.0910   25.6450 C.2     1  UNL1        0.1067
     20 N         -28.0750    2.0890   25.0030 N.2     1  UNL1       -0.2081
     21 C         -27.5430    0.8490   25.0790 C.2     1  UNL1        0.2533
     22 O         -28.1930   -0.2080   24.4770 O.2     1  UNL1       -0.4558
     23 C         -29.4600    0.0050   23.8660 C.3     1  UNL1        0.2426
     24 C         -30.0650   -1.3770   23.5730 C.3     1  UNL1        0.2292
     25 O         -30.7290   -1.8780   24.7210 O.3     1  UNL1       -0.2162
     26 C         -26.3540    0.5760   25.7770 C.2     1  UNL1        0.1931
     27 F         -25.8600   -0.6810   25.7950 F       1  UNL1       -0.1992
     28 C         -27.5399    3.7495   31.0844 C.3     1  UNL1        0.1398
     29 C         -26.4068    4.1301   31.9752 C.2     1  UNL1        0.3692
     30 C         -23.0497    1.8032   26.5761 C.2     1  UNL1        0.0589
     31 C         -26.6671    0.3315   29.2458 C.3     1  UNL1        0.1174
     32 C         -21.8521    1.6444   27.2787 C.2     1  UNL1        0.0115
     33 C         -24.2866    0.6961   28.3835 C.2     1  UNL1        0.0492
     34 C         -24.3393    1.3601   27.1292 C.2     1  UNL1        0.0264
     35 N         -25.2692   -0.1193   29.0800 N.pl3   1  UNL1       -0.3001
     36 C         -27.5973    2.2570   30.7061 C.2     1  UNL1       -0.0172
     37 CL        -22.9512    2.5021   25.0649 Cl      1  UNL1       -0.0822
     38 O         -25.4209    4.6227   31.4532 O.co2   1  UNL1       -0.2453
     39 C         -21.8673    1.2791   28.6015 C.2     1  UNL1        0.0021
     40 C         -23.1085    0.8734   29.1898 C.2     1  UNL1        0.0146
     41 C         -26.7524    1.8482   29.5285 C.2     1  UNL1       -0.0088
     42 O         -26.4420    3.9320   33.2546 O.co2   1  UNL1       -0.2453
@<TRIPOS>BOND
     1     1    35    1
     2     2     7    1
     3     2     1    1
     4     3     2    2
     5     4     3    1
     6     4     5    2
     7     5     6    1
     8     6     7    2
     9     8     1    1
    10     8     9    1
    11     8    12    1
    12     9    10    1
    13    10    11    1
    14    12    11    1
    15    13    34    1
    16    14    13    1
    17    14    15    1
    18    15    18    2
    19    16    17    1
    20    16    15    1
    21    19    14    2
    22    20    21    2
    23    20    19    1
    24    21    26    1
    25    22    21    1
    26    23    22    1
    27    24    23    1
    28    24    25    1
    29    26    27    1
    30    26    13    2
    31    28    29    1
    32    29    42   ar
    33    30    34    2
    34    30    32    1
    35    31    41    1
    36    32    39    2
    37    33    35    1
    38    33    40    2
    39    34    33    1
    40    35    31    1
    41    36    28    1
    42    37    30    1
    43    38    29   ar
    44    39    40    1
    45    41    36    2
