@<TRIPOS>MOLECULE
No_3839-gen_results/8p0m/2024-11-27-11-27-31/
 30 34 0 0 0
SMALL
GASTEIGER

@<TRIPOS>ATOM
      1 C         -28.0162   -0.8135   28.8779 C.ar    1  UNL1        0.0114
      2 C         -27.0636   -0.1189   28.6079 C.ar    1  UNL1        0.0577
      3 C         -26.8756    1.1325   28.9134 C.ar    1  UNL1        0.0115
      4 C         -27.9014    1.8066   29.6436 C.ar    1  UNL1        0.0053
      5 C         -29.0458   -0.2316   29.7181 C.ar    1  UNL1        0.0009
      6 C         -28.9402    1.0517   30.0597 C.ar    1  UNL1        0.0002
      7 CL        -25.6771   -0.6845   27.6169 Cl      1  UNL1       -0.0822
      8 C         -30.0519    1.4740   30.9695 C.ar    1  UNL1        0.0000
      9 C         -29.7973    2.6164   31.6817 C.ar    1  UNL1        0.0001
     10 C         -28.6821    3.4569   31.1901 C.ar    1  UNL1        0.0044
     11 C         -27.6732    3.0607   30.3716 C.ar    1  UNL1        0.0551
     12 C         -26.5257    3.8928   30.0327 C.2     1  UNL1        0.2651
     13 O         -25.8422    3.7742   29.1433 O.2     1  UNL1       -0.2684
     14 N         -26.0443    4.7209   31.1130 N.am    1  UNL1       -0.1967
     15 C         -24.9443    5.6298   30.9053 C.3     1  UNL1        0.1440
     16 C         -25.3508    6.9773   31.3998 C.ar    1  UNL1        0.0269
     17 C         -24.6274    7.3818   32.4362 C.ar    1  UNL1       -0.0003
     18 C         -24.8716    8.7067   33.0521 C.ar    1  UNL1       -0.0001
     19 C         -25.8531    9.4798   32.4170 C.ar    1  UNL1        0.0023
     20 C         -26.2680    7.7834   30.7892 C.ar    1  UNL1        0.1378
     21 C         -26.5132    9.0325   31.2977 C.ar    1  UNL1        0.0294
     22 F         -26.8700    7.3450   29.7711 F       1  UNL1       -0.2044
     23 C         -30.7905    3.2553   32.5380 C.ar    1  UNL1        0.0000
     24 C         -30.8221    4.3241   32.8268 C.ar    1  UNL1        0.0000
     25 C         -31.6908    4.9387   33.8716 C.ar    1  UNL1        0.0000
     26 C         -31.6652    6.2932   34.2859 C.ar    1  UNL1        0.0000
     27 C         -30.7476    7.1589   33.6123 C.ar    1  UNL1        0.0000
     28 C         -29.8815    6.6786   32.6170 C.ar    1  UNL1        0.0000
     29 C         -29.9028    5.3865   32.3081 C.ar    1  UNL1        0.0000
     30 C         -28.8301    4.7904   31.4230 C.ar    1  UNL1        0.0001
@<TRIPOS>BOND
     1     2     7    1
     2    11    12    1
     3    12    13    2
     4    12    14   am
     5    14    15    1
     6    15    16    1
     7    20    22    1
     8    24    25   ar
     9    25    26   ar
    10    26    27   ar
    11    27    28   ar
    12    28    29   ar
    13     6     8   ar
    14     8     9   ar
    15    10    11   ar
    16    11     4   ar
    17     1     2   ar
    18     2     3   ar
    19     3     4   ar
    20     4     6   ar
    21     6     5   ar
    22     5     1   ar
    23    16    17   ar
    24    17    18   ar
    25    18    19   ar
    26    19    21   ar
    27    21    20   ar
    28    20    16   ar
    29     9    10   ar
    30    10    30   ar
    31    30    29   ar
    32    29    24   ar
    33    24    23   ar
    34    23     9   ar
