@<TRIPOS>MOLECULE
outputs/IAG933/test6/raw/output_3840_IAG933_linker_design_.xyz
 40 43 0 0 0
SMALL
GASTEIGER

@<TRIPOS>ATOM
      1 C         -24.8550   -1.0120   30.1430 C.3     1  UNL1        0.2007
      2 C         -24.9730   -2.5050   29.7880 C.2     1  UNL1        0.0214
      3 C         -23.9060   -3.1730   29.1460 C.2     1  UNL1       -0.0004
      4 C         -23.9890   -4.5490   28.8530 C.2     1  UNL1       -0.0002
      5 C         -25.1370   -5.2800   29.2050 C.2     1  UNL1       -0.0000
      6 C         -26.2320   -4.6110   29.7840 C.2     1  UNL1       -0.0002
      7 C         -26.1550   -3.2320   30.0650 C.2     1  UNL1       -0.0004
      8 C         -25.3870   -0.6790   31.5710 C.3     1  UNL1        0.1198
      9 C         -25.1890    0.7730   32.0280 C.3     1  UNL1        0.0233
     10 C         -25.3360    0.6840   33.5440 C.3     1  UNL1        0.0204
     11 C         -24.8290   -0.7150   33.9050 C.3     1  UNL1        0.0889
     12 N         -24.7580   -1.4810   32.6460 N.3     1  UNL1       -0.2150
     13 C         -25.6880    1.6140   26.4610 C.3     1  UNL1        0.0861
     14 C         -26.2500    2.9200   26.3950 C.2     1  UNL1        0.0557
     15 C         -25.6420    4.0930   27.1230 C.2     1  UNL1        0.2625
     16 N         -25.6140    5.2520   26.4490 N.am    1  UNL1       -0.2000
     17 C         -25.0260    6.4790   26.9630 C.3     1  UNL1        0.1388
     18 O         -25.1430    3.9660   28.2430 O.2     1  UNL1       -0.2687
     19 C         -27.4380    3.0910   25.6450 C.2     1  UNL1        0.1022
     20 N         -28.0750    2.0890   25.0030 N.2     1  UNL1       -0.2119
     21 C         -27.5430    0.8490   25.0790 C.2     1  UNL1        0.2341
     22 O         -28.1930   -0.2080   24.4770 O.2     1  UNL1       -0.4585
     23 C         -29.4600    0.0050   23.8660 C.3     1  UNL1        0.2423
     24 C         -30.0650   -1.3770   23.5730 C.3     1  UNL1        0.2292
     25 O         -30.7290   -1.8780   24.7210 O.3     1  UNL1       -0.2162
     26 C         -26.3540    0.5760   25.7770 C.3     1  UNL1        0.2409
     27 F         -25.8600   -0.6810   25.7950 F       1  UNL1       -0.2269
     28 C         -25.0207    1.1019   28.8378 C.2     1  UNL1        0.3587
     29 C         -26.2803   -0.4611   28.1371 C.3     1  UNL1        0.3883
     30 N         -25.6490    1.8342   29.7094 N.2     1  UNL1        0.1883
     31 N         -25.0364   -0.1231   29.0738 N.pl3   1  UNL1       -0.1605
     32 C         -21.1153    1.3410   27.8279 C.2     1  UNL1        0.2100
     33 C         -23.2826    1.4771   27.2296 C.2     1  UNL1        0.0659
     34 O         -21.2040    1.9614   26.5837 O.2     1  UNL1       -0.4372
     35 F         -22.4209    0.2666   29.5255 F       1  UNL1       -0.2010
     36 C         -22.4502    1.9425   26.1225 C.2     1  UNL1        0.2021
     37 C         -22.3175    1.0034   28.2802 C.2     1  UNL1        0.1779
     38 CL        -23.0043    2.5324   24.6326 Cl      1  UNL1       -0.0427
     39 C         -24.6356    1.4094   27.5213 C.3     1  UNL1        0.1461
     40 O         -27.3106   -0.8993   28.9321 O.3     1  UNL1       -0.1637
@<TRIPOS>BOND
     1     1    31    1
     2     2     7    1
     3     2     1    1
     4     3     2    2
     5     4     3    1
     6     4     5    2
     7     5     6    1
     8     6     7    2
     9     8     1    1
    10     8     9    1
    11     8    12    1
    12     9    10    1
    13    10    11    1
    14    12    11    1
    15    13    39    1
    16    14    13    1
    17    14    15    1
    18    15    18    2
    19    16    17    1
    20    16    15    1
    21    19    14    2
    22    20    21    2
    23    20    19    1
    24    21    26    1
    25    22    21    1
    26    23    22    1
    27    24    23    1
    28    24    25    1
    29    26    27    1
    30    26    13    1
    31    28    31    1
    32    28    30    2
    33    29    40    1
    34    29    31    1
    35    32    37    2
    36    33    39    1
    37    33    37    1
    38    34    32    1
    39    36    34    1
    40    36    33    2
    41    37    35    1
    42    38    36    1
    43    39    28    1
