@<TRIPOS>MOLECULE
outputs/IAG933/test6/raw/output_3841_IAG933_linker_design_.xyz
 45 49 0 0 0
SMALL
GASTEIGER

@<TRIPOS>ATOM
      1 C         -24.8550   -1.0120   30.1430 C.3     1  UNL1        0.0655
      2 C         -24.9730   -2.5050   29.7880 C.2     1  UNL1       -0.0188
      3 C         -23.9060   -3.1730   29.1460 C.2     1  UNL1       -0.0042
      4 C         -23.9890   -4.5490   28.8530 C.2     1  UNL1       -0.0003
      5 C         -25.1370   -5.2800   29.2050 C.2     1  UNL1       -0.0000
      6 C         -26.2320   -4.6110   29.7840 C.2     1  UNL1       -0.0003
      7 C         -26.1550   -3.2320   30.0650 C.2     1  UNL1       -0.0042
      8 C         -25.3870   -0.6790   31.5710 C.3     1  UNL1        0.0792
      9 C         -25.1890    0.7730   32.0280 C.3     1  UNL1        0.0193
     10 C         -25.3360    0.6840   33.5440 C.3     1  UNL1        0.0202
     11 C         -24.8290   -0.7150   33.9050 C.3     1  UNL1        0.0887
     12 N         -24.7580   -1.4810   32.6460 N.3     1  UNL1       -0.2191
     13 C         -25.6880    1.6140   26.4610 C.2     1  UNL1        0.0156
     14 C         -26.2500    2.9200   26.3950 C.2     1  UNL1        0.0726
     15 C         -25.6420    4.0930   27.1230 C.2     1  UNL1        0.2661
     16 N         -25.6140    5.2520   26.4490 N.am    1  UNL1       -0.1997
     17 C         -25.0260    6.4790   26.9630 C.3     1  UNL1        0.1388
     18 O         -25.1430    3.9660   28.2430 O.2     1  UNL1       -0.2683
     19 C         -27.4380    3.0910   25.6450 C.2     1  UNL1        0.1064
     20 N         -28.0750    2.0890   25.0030 N.2     1  UNL1       -0.2081
     21 C         -27.5430    0.8490   25.0790 C.2     1  UNL1        0.2530
     22 O         -28.1930   -0.2080   24.4770 O.2     1  UNL1       -0.4558
     23 C         -29.4600    0.0050   23.8660 C.3     1  UNL1        0.2426
     24 C         -30.0650   -1.3770   23.5730 C.3     1  UNL1        0.2292
     25 O         -30.7290   -1.8780   24.7210 O.3     1  UNL1       -0.2162
     26 C         -26.3540    0.5760   25.7770 C.2     1  UNL1        0.1891
     27 F         -25.8600   -0.6810   25.7950 F       1  UNL1       -0.1996
     28 C         -33.0417   -2.2960   29.7523 C.3     1  UNL1        0.0355
     29 C         -23.3480    0.8820   29.2482 C.3     1  UNL1        0.0028
     30 C         -25.6153   -0.1116   29.1412 C.3     1  UNL1        0.1206
     31 C         -29.2673    0.3374   28.8355 C.3     1  UNL1        0.0592
     32 C         -23.1942    1.1185   26.7570 C.3     1  UNL1        0.0042
     33 O         -26.9763   -0.2647   28.5993 O.3     1  UNL1       -0.3582
     34 C         -22.6907    2.0419   25.6565 C.3     1  UNL1        0.0003
     35 C         -28.8559   -0.3899   29.9595 C.3     1  UNL1        0.0346
     36 C         -32.8761   -1.1243   28.7811 C.3     1  UNL1        0.1539
     37 C         -28.0511    0.5908   29.5523 C.3     1  UNL1        0.1177
     38 C         -24.6138    0.7204   28.4875 C.3     1  UNL1        0.0317
     39 C         -24.6004    1.2346   27.1796 C.3     1  UNL1        0.0272
     40 O         -34.2123   -0.7438   28.5299 O.3     1  UNL1       -0.2231
     41 O         -30.9187   -0.9271   27.2126 O.3     1  UNL1       -0.3511
     42 C         -22.4351    1.2387   28.0286 C.3     1  UNL1        0.0004
     43 C         -29.6869   -0.7397   27.8720 C.3     1  UNL1        0.1447
     44 C         -32.2618    0.1698   29.3861 C.3     1  UNL1        0.0355
     45 C         -32.1297   -1.5737   27.5908 C.3     1  UNL1        0.1723
@<TRIPOS>BOND
     1     1    30    1
     2     2     7    1
     3     2     1    1
     4     3     2    2
     5     4     3    1
     6     4     5    2
     7     5     6    1
     8     6     7    2
     9     8     1    1
    10     8     9    1
    11     8    12    1
    12     9    10    1
    13    10    11    1
    14    12    11    1
    15    14    13    1
    16    14    15    1
    17    15    18    2
    18    16    17    1
    19    16    15    1
    20    19    14    2
    21    20    21    2
    22    20    19    1
    23    21    26    1
    24    22    21    1
    25    23    22    1
    26    24    23    1
    27    24    25    1
    28    26    27    1
    29    26    13    2
    30    30    33    1
    31    31    43    1
    32    31    37    1
    33    31    35    1
    34    32    34    1
    35    32    39    1
    36    32    42    1
    37    36    44    1
    38    36    28    1
    39    37    33    1
    40    37    35    1
    41    38    30    1
    42    38    29    1
    43    39    13    1
    44    39    38    1
    45    40    36    1
    46    41    45    1
    47    41    43    1
    48    42    29    1
    49    45    36    1
