@<TRIPOS>MOLECULE
No_3843-gen_results/8p0m/2024-11-27-11-27-31/
 26 27 0 0 0
SMALL
GASTEIGER

@<TRIPOS>ATOM
      1 C         -28.0162   -0.8135   28.8779 C.ar    1  UNL1        0.0047
      2 C         -27.0636   -0.1190   28.6079 C.ar    1  UNL1        0.0551
      3 C         -27.0010    0.6913   27.4910 C.ar    1  UNL1        0.0047
      4 C         -28.1373    0.7363   26.6350 C.ar    1  UNL1        0.0047
      5 C         -29.2360    0.0765   27.0690 C.ar    1  UNL1        0.0551
      6 C         -29.2177   -0.6429   28.1747 C.ar    1  UNL1        0.0047
      7 C         -30.5230    0.0808   26.3696 C.2     1  UNL1        0.2651
      8 O         -31.4547   -0.4957   26.7035 O.2     1  UNL1       -0.2684
      9 N         -30.6148    1.0337   25.3075 N.am    1  UNL1       -0.1968
     10 C         -25.8529   -0.3028   29.5689 C.2     1  UNL1        0.2652
     11 N         -25.4553   -1.2754   30.1214 N.am    1  UNL1       -0.1916
     12 C         -24.3312   -1.3696   30.8086 C.3     1  UNL1        0.2034
     13 O         -25.1347    0.8411   29.8062 O.2     1  UNL1       -0.2684
     14 C         -23.2321   -1.1954   30.3423 C.2     1  UNL1        0.2828
     15 N         -22.3539   -0.1318   30.7322 N.am    1  UNL1       -0.0862
     16 O         -22.8037   -1.6415   29.1616 O.2     1  UNL1       -0.2697
     17 C         -31.8398    1.1718   24.4961 C.3     1  UNL1        0.1418
     18 C         -31.8614    2.3060   23.7407 C.ar    1  UNL1       -0.0006
     19 C         -32.0166    3.3646   24.0500 C.ar    1  UNL1       -0.0026
     20 C         -32.2692    4.5393   23.1411 C.ar    1  UNL1       -0.0003
     21 C         -32.7267    4.1171   21.8679 C.ar    1  UNL1       -0.0000
     22 C         -32.5931    2.7800   21.4154 C.ar    1  UNL1       -0.0003
     23 C         -32.1849    1.8678   22.2992 C.ar    1  UNL1       -0.0026
     24 C         -31.6604    3.8887   25.4459 C.2     1  UNL1       -0.0048
     25 C         -32.6019    3.6166   26.4729 C.2     1  UNL1       -0.0258
     26 C         -32.6513    4.1281   27.3958 C.3     1  UNL1        0.0307
@<TRIPOS>BOND
     1     5     7    1
     2     7     8    2
     3     7     9   am
     4     2    10    1
     5    10    11   am
     6    11    12    1
     7    10    13    2
     8    12    14    1
     9    14    15   am
    10    14    16    2
    11     9    17    1
    12    17    18    1
    13    19    24    1
    14    24    25    2
    15    25    26    1
    16    18    19   ar
    17    19    20   ar
    18    20    21   ar
    19    21    22   ar
    20    22    23   ar
    21    23    18   ar
    22     1     2   ar
    23     2     3   ar
    24     3     4   ar
    25     4     5   ar
    26     5     6   ar
    27     6     1   ar
