@<TRIPOS>MOLECULE
outputs/IAG933/test6/raw/output_3844_IAG933_linker_design_.xyz
 42 46 0 0 0
SMALL
GASTEIGER

@<TRIPOS>ATOM
      1 C         -24.8550   -1.0120   30.1430 C.3     1  UNL1        0.1139
      2 C         -24.9730   -2.5050   29.7880 C.2     1  UNL1       -0.0050
      3 C         -23.9060   -3.1730   29.1460 C.2     1  UNL1       -0.0029
      4 C         -23.9890   -4.5490   28.8530 C.2     1  UNL1       -0.0003
      5 C         -25.1370   -5.2800   29.2050 C.2     1  UNL1       -0.0000
      6 C         -26.2320   -4.6110   29.7840 C.2     1  UNL1       -0.0003
      7 C         -26.1550   -3.2320   30.0650 C.2     1  UNL1       -0.0029
      8 C         -25.3870   -0.6790   31.5710 C.3     1  UNL1        0.0930
      9 C         -25.1890    0.7730   32.0280 C.3     1  UNL1        0.0206
     10 C         -25.3360    0.6840   33.5440 C.3     1  UNL1        0.0203
     11 C         -24.8290   -0.7150   33.9050 C.3     1  UNL1        0.0888
     12 N         -24.7580   -1.4810   32.6460 N.3     1  UNL1       -0.2177
     13 C         -25.6880    1.6140   26.4610 C.3     1  UNL1        0.1453
     14 C         -26.2500    2.9200   26.3950 C.2     1  UNL1        0.0731
     15 C         -25.6420    4.0930   27.1230 C.2     1  UNL1        0.2640
     16 N         -25.6140    5.2520   26.4490 N.am    1  UNL1       -0.1999
     17 C         -25.0260    6.4790   26.9630 C.3     1  UNL1        0.1388
     18 O         -25.1430    3.9660   28.2430 O.2     1  UNL1       -0.2686
     19 C         -27.4380    3.0910   25.6450 C.2     1  UNL1        0.1038
     20 N         -28.0750    2.0890   25.0030 N.2     1  UNL1       -0.2118
     21 C         -27.5430    0.8490   25.0790 C.2     1  UNL1        0.2358
     22 O         -28.1930   -0.2080   24.4770 O.2     1  UNL1       -0.4585
     23 C         -29.4600    0.0050   23.8660 C.3     1  UNL1        0.2423
     24 C         -30.0650   -1.3770   23.5730 C.3     1  UNL1        0.2292
     25 O         -30.7290   -1.8780   24.7210 O.3     1  UNL1       -0.2162
     26 C         -26.3540    0.5760   25.7770 C.3     1  UNL1        0.2581
     27 F         -25.8600   -0.6810   25.7950 F       1  UNL1       -0.2251
     28 C         -26.9939    5.0168   30.4621 C.3     1  UNL1        0.1437
     29 C         -22.9844    0.6459   28.6259 C.2     1  UNL1        0.0146
     30 C         -20.9651    1.5306   27.6053 C.2     1  UNL1        0.0001
     31 C         -27.8130    3.9673   29.6922 C.3     1  UNL1        0.0521
     32 C         -23.7618    1.3174   27.6479 C.2     1  UNL1        0.0501
     33 C         -27.6586    3.3960   32.0937 C.3     1  UNL1        0.1596
     34 O         -26.5183    4.3303   31.6820 O.3     1  UNL1       -0.3522
     35 C         -21.5831    0.7684   28.6268 C.2     1  UNL1        0.0013
     36 N         -25.1630    1.2446   27.7468 N.pl3   1  UNL1       -0.2758
     37 C         -21.7120    2.1268   26.5777 C.2     1  UNL1        0.0013
     38 N         -25.9203   -0.4510   29.2993 N.3     1  UNL1       -0.1800
     39 C         -27.9006    2.7680   30.6370 C.3     1  UNL1        0.1079
     40 N         -27.1512    1.8048   29.6480 N.3     1  UNL1       -0.1832
     41 C         -26.1491    0.7665   28.8465 C.3     1  UNL1        0.2281
     42 C         -23.1037    1.9710   26.5709 C.2     1  UNL1        0.0146
@<TRIPOS>BOND
     1     1    38    1
     2     2     7    1
     3     2     1    1
     4     3     2    2
     5     4     3    1
     6     4     5    2
     7     5     6    1
     8     6     7    2
     9     8     1    1
    10     8     9    1
    11     8    12    1
    12     9    10    1
    13    10    11    1
    14    12    11    1
    15    13    36    1
    16    14    13    1
    17    14    15    1
    18    15    18    2
    19    16    17    1
    20    16    15    1
    21    19    14    2
    22    20    21    2
    23    20    19    1
    24    21    26    1
    25    22    21    1
    26    23    22    1
    27    24    23    1
    28    24    25    1
    29    26    27    1
    30    26    13    1
    31    28    34    1
    32    29    35    1
    33    30    35    2
    34    31    28    1
    35    31    39    1
    36    32    36    1
    37    32    29    2
    38    34    33    1
    39    36    41    1
    40    37    30    1
    41    39    40    1
    42    39    33    1
    43    41    38    1
    44    41    40    1
    45    42    37    2
    46    42    32    1
