@<TRIPOS>MOLECULE
outputs/IAG933/test6/raw/output_3847_IAG933_linker_design_.xyz
 42 45 0 0 0
SMALL
GASTEIGER

@<TRIPOS>ATOM
      1 C         -24.8550   -1.0120   30.1430 C.3     1  UNL1        0.0511
      2 C         -24.9730   -2.5050   29.7880 C.2     1  UNL1       -0.0204
      3 C         -23.9060   -3.1730   29.1460 C.2     1  UNL1       -0.0042
      4 C         -23.9890   -4.5490   28.8530 C.2     1  UNL1       -0.0003
      5 C         -25.1370   -5.2800   29.2050 C.2     1  UNL1       -0.0000
      6 C         -26.2320   -4.6110   29.7840 C.2     1  UNL1       -0.0003
      7 C         -26.1550   -3.2320   30.0650 C.2     1  UNL1       -0.0042
      8 C         -25.3870   -0.6790   31.5710 C.3     1  UNL1        0.0776
      9 C         -25.1890    0.7730   32.0280 C.3     1  UNL1        0.0192
     10 C         -25.3360    0.6840   33.5440 C.3     1  UNL1        0.0202
     11 C         -24.8290   -0.7150   33.9050 C.3     1  UNL1        0.0887
     12 N         -24.7580   -1.4810   32.6460 N.3     1  UNL1       -0.2191
     13 C         -25.6880    1.6140   26.4610 C.2     1  UNL1        0.0391
     14 C         -26.2500    2.9200   26.3950 C.2     1  UNL1        0.0766
     15 C         -25.6420    4.0930   27.1230 C.2     1  UNL1        0.2664
     16 N         -25.6140    5.2520   26.4490 N.am    1  UNL1       -0.1997
     17 C         -25.0260    6.4790   26.9630 C.3     1  UNL1        0.1388
     18 O         -25.1430    3.9660   28.2430 O.2     1  UNL1       -0.2683
     19 C         -27.4380    3.0910   25.6450 C.2     1  UNL1        0.1067
     20 N         -28.0750    2.0890   25.0030 N.2     1  UNL1       -0.2081
     21 C         -27.5430    0.8490   25.0790 C.2     1  UNL1        0.2533
     22 O         -28.1930   -0.2080   24.4770 O.2     1  UNL1       -0.4558
     23 C         -29.4600    0.0050   23.8660 C.3     1  UNL1        0.2426
     24 C         -30.0650   -1.3770   23.5730 C.3     1  UNL1        0.2292
     25 O         -30.7290   -1.8780   24.7210 O.3     1  UNL1       -0.2162
     26 C         -26.3540    0.5760   25.7770 C.2     1  UNL1        0.1931
     27 F         -25.8600   -0.6810   25.7950 F       1  UNL1       -0.1992
     28 C         -21.7840    1.3086   27.8111 C.3     1  UNL1        0.1520
     29 C         -24.1377    0.7379   28.2334 C.2     1  UNL1       -0.0146
     30 N         -29.6504    3.4832   31.4618 N.am    1  UNL1       -0.0862
     31 C         -25.2018   -0.0757   29.0217 C.3     1  UNL1        0.1055
     32 F         -21.8934    1.7924   25.4382 F       1  UNL1       -0.1077
     33 C         -26.6431    0.2938   29.1143 C.2     1  UNL1        0.2458
     34 C         -22.7855    0.7922   28.6577 C.2     1  UNL1       -0.0057
     35 N         -27.0041    1.7026   29.7069 N.am    1  UNL1       -0.1951
     36 C         -28.4946    3.1211   30.9178 C.2     1  UNL1        0.2828
     37 O         -27.5528   -0.4508   28.7391 O.2     1  UNL1       -0.2730
     38 C         -28.3948    1.8197   30.1512 C.3     1  UNL1        0.2030
     39 N         -22.1200    1.7626   26.4978 N.pl3   1  UNL1       -0.1534
     40 C         -23.1920    1.8516   26.1729 C.2     1  UNL1        0.0938
     41 O         -27.4951    3.8515   31.0152 O.2     1  UNL1       -0.2697
     42 C         -24.3199    1.3965   26.9732 C.2     1  UNL1        0.0158
@<TRIPOS>BOND
     1     1    31    1
     2     2     7    1
     3     2     1    1
     4     3     2    2
     5     4     3    1
     6     4     5    2
     7     5     6    1
     8     6     7    2
     9     8     1    1
    10     8     9    1
    11     8    12    1
    12     9    10    1
    13    10    11    1
    14    12    11    1
    15    13    42    1
    16    14    13    1
    17    14    15    1
    18    15    18    2
    19    16    17    1
    20    16    15    1
    21    19    14    2
    22    20    21    2
    23    20    19    1
    24    21    26    1
    25    22    21    1
    26    23    22    1
    27    24    23    1
    28    24    25    1
    29    26    27    1
    30    26    13    2
    31    28    34    1
    32    29    34    2
    33    29    31    1
    34    31    33    1
    35    32    39    1
    36    33    35    1
    37    35    38    1
    38    36    41    2
    39    36    30    1
    40    37    33    2
    41    38    36    1
    42    39    28    1
    43    40    39    1
    44    40    42    2
    45    42    29    1
