@<TRIPOS>MOLECULE
No_3849-gen_results/8p0m/2024-11-27-11-27-31/
 35 38 0 0 0
SMALL
GASTEIGER

@<TRIPOS>ATOM
      1 C         -28.0162   -0.8135   28.8779 C.ar    1  UNL1        0.0369
      2 C         -27.0636   -0.1189   28.6079 C.ar    1  UNL1        0.0031
      3 C         -25.7923   -0.4302   29.0761 C.ar    1  UNL1        0.0002
      4 C         -25.5756   -1.5654   29.9363 C.ar    1  UNL1        0.0031
      5 C         -26.7354   -2.3004   30.2173 C.ar    1  UNL1        0.0369
      6 C         -27.9184   -1.9537   29.7629 C.ar    1  UNL1        0.1392
      7 O         -29.0001   -2.7012   30.1151 O.3     1  UNL1       -0.4672
      8 C         -24.5290    0.3490   28.7998 C.ar    1  UNL1        0.0000
      9 C         -24.1172    1.3368   29.6649 C.ar    1  UNL1        0.0000
     10 C         -23.4035    2.1416   29.4871 C.ar    1  UNL1        0.0000
     11 C         -22.5641    2.1647   28.2389 C.ar    1  UNL1        0.0000
     12 C         -22.9405    1.2319   27.2747 C.ar    1  UNL1        0.0000
     13 C         -23.9254    0.3817   27.5324 C.ar    1  UNL1        0.0000
     14 C         -29.3529   -2.8512   31.4325 C.3     1  UNL1        0.2729
     15 C         -29.7682   -4.1719   31.7054 C.3     1  UNL1        0.2011
     16 C         -29.8349   -5.0751   30.7499 C.3     1  UNL1        0.0419
     17 O         -29.1843   -4.4209   32.8789 O.3     1  UNL1       -0.2187
     18 C         -31.1341   -5.5636   30.2553 C.3     1  UNL1        0.0307
     19 C         -31.7231   -4.6454   29.4407 C.ar    1  UNL1       -0.0029
     20 C         -31.9770   -3.5291   29.6409 C.ar    1  UNL1       -0.0012
     21 C         -32.5628   -2.5979   28.6558 C.ar    1  UNL1        0.0174
     22 C         -32.6552   -1.1841   28.8434 C.ar    1  UNL1        0.0015
     23 C         -32.7949   -0.3316   27.8050 C.ar    1  UNL1        0.0001
     24 C         -32.0538   -5.2253   28.0592 C.ar    1  UNL1        0.0945
     25 N         -32.5638   -4.4461   27.1101 N.ar    1  UNL1       -0.2442
     26 C         -32.7185   -3.0792   27.3650 C.ar    1  UNL1        0.0813
     27 C         -33.0623   -0.8569   26.5518 C.ar    1  UNL1        0.0015
     28 C         -32.9609   -2.2313   26.2680 C.ar    1  UNL1        0.0191
     29 C         -30.1952   -1.6186   31.8922 C.2     1  UNL1        0.2884
     30 N         -31.2118   -1.7228   32.5485 N.am    1  UNL1       -0.1748
     31 C         -31.4165   -1.2035   33.7575 C.2     1  UNL1        0.0887
     32 O         -29.7733   -0.4502   31.5579 O.2     1  UNL1       -0.2690
     33 C         -32.1961   -1.4390   34.5550 C.2     1  UNL1        0.0179
     34 C         -33.1581   -2.3828   34.3805 C.2     1  UNL1        0.0014
     35 C         -33.1398   -3.0445   33.0838 C.2     1  UNL1        0.0000
@<TRIPOS>BOND
     1     6     7    1
     2     3     8    1
     3     7    14    1
     4    14    15    1
     5    15    16    1
     6    15    17    1
     7    16    18    1
     8    18    19    1
     9    14    29    1
    10    29    30   am
    11    30    31    1
    12    29    32    2
    13    31    33    2
    14    33    34    1
    15    34    35    2
    16     1     2   ar
    17     2     3   ar
    18     3     4   ar
    19     4     5   ar
    20     5     6   ar
    21     6     1   ar
    22    21    22   ar
    23    22    23   ar
    24    23    27   ar
    25    27    28   ar
    26    28    26   ar
    27    19    20   ar
    28    20    21   ar
    29    21    26   ar
    30    26    25   ar
    31    25    24   ar
    32    24    19   ar
    33     8     9   ar
    34     9    10   ar
    35    10    11   ar
    36    11    12   ar
    37    12    13   ar
    38    13     8   ar
