@<TRIPOS>MOLECULE
No_3851-gen_results/8p0m/2024-11-27-11-27-31/
 20 22 0 0 0
SMALL
GASTEIGER

@<TRIPOS>ATOM
      1 C         -28.0162   -0.8135   28.8779 C.ar    1  UNL1        0.0369
      2 C         -27.0636   -0.1190   28.6079 C.ar    1  UNL1        0.0031
      3 C         -25.7647   -0.3897   29.0360 C.ar    1  UNL1        0.0002
      4 C         -25.5296   -1.5302   29.9014 C.ar    1  UNL1        0.0031
      5 C         -26.6888   -2.2893   30.1810 C.ar    1  UNL1        0.0369
      6 C         -27.8727   -1.9508   29.7373 C.ar    1  UNL1        0.1391
      7 O         -29.0153   -2.5742   30.0979 O.3     1  UNL1       -0.4706
      8 C         -24.5281    0.4003   28.7256 C.ar    1  UNL1        0.0000
      9 C         -23.3412    0.1065   29.1740 C.ar    1  UNL1        0.0000
     10 C         -22.2269    0.9199   28.8689 C.ar    1  UNL1        0.0000
     11 C         -24.4605    1.1774   27.5099 C.ar    1  UNL1        0.0000
     12 C         -23.4555    2.0130   27.1325 C.ar    1  UNL1        0.0000
     13 C         -22.2361    1.8305   27.8141 C.ar    1  UNL1        0.0000
     14 C         -29.2931   -2.8172   31.4440 C.3     1  UNL1        0.2320
     15 C         -29.7407   -4.1523   31.6570 C.ar    1  UNL1        0.0212
     16 C         -29.6875   -5.0439   30.7131 C.ar    1  UNL1       -0.0007
     17 C         -30.3295   -6.3585   30.8489 C.ar    1  UNL1       -0.0002
     18 C         -30.8696   -6.6828   32.1284 C.ar    1  UNL1       -0.0000
     19 C         -30.8974   -5.7730   33.1519 C.ar    1  UNL1       -0.0002
     20 C         -30.3776   -4.4801   32.9560 C.ar    1  UNL1       -0.0007
@<TRIPOS>BOND
     1     6     7    1
     2     3     8    1
     3     7    14    1
     4    14    15    1
     5    15    16   ar
     6    16    17   ar
     7    17    18   ar
     8    18    19   ar
     9    19    20   ar
    10    20    15   ar
    11     1     2   ar
    12     2     3   ar
    13     3     4   ar
    14     4     5   ar
    15     5     6   ar
    16     6     1   ar
    17     8     9   ar
    18     9    10   ar
    19    10    13   ar
    20    13    12   ar
    21    12    11   ar
    22    11     8   ar
