@<TRIPOS>MOLECULE
No_3852-gen_results/8p0m/2024-11-27-11-27-31/
 21 23 0 0 0
SMALL
GASTEIGER

@<TRIPOS>ATOM
      1 C         -28.0162   -0.8135   28.8779 C.ar    1  UNL1        0.0156
      2 C         -28.4690   -0.7850   29.8287 C.ar    1  UNL1        0.0544
      3 C         -26.5455   -0.8762   28.8500 C.ar    1  UNL1        0.0541
      4 C         -25.8041   -1.0324   30.0571 C.ar    1  UNL1       -0.0075
      5 C         -24.3697   -1.0998   30.0718 C.3     1  UNL1        0.0511
      6 C         -27.9902   -1.0051   31.2092 C.ar    1  UNL1        0.0043
      7 C         -26.5616   -1.1368   31.2600 C.ar    1  UNL1       -0.0030
      8 C         -23.7274    0.1713   30.0259 C.2     1  UNL1       -0.0142
      9 C         -24.0505    1.2537   30.5567 C.2     1  UNL1        0.0139
     10 C         -23.4331    2.5222   30.2587 C.2     1  UNL1        0.0930
     11 N         -22.5860    2.3737   29.2353 N.2     1  UNL1       -0.2644
     12 C         -22.6254    0.5342   29.0427 C.3     1  UNL1        0.1481
     13 CL        -25.5818   -0.7299   27.4368 Cl      1  UNL1       -0.0826
     14 C         -30.0754   -0.7166   29.8649 C.2     1  UNL1        0.2490
     15 O         -30.7850   -1.4783   30.3132 O.2     1  UNL1       -0.2699
     16 N         -30.5244    0.3992   29.2313 N.am    1  UNL1       -0.2761
     17 C         -31.9450    0.6227   29.0751 C.3     1  UNL1        0.0937
     18 C         -32.2866    1.5775   28.5472 C.3     1  UNL1        0.0216
     19 C         -31.3679    2.5495   27.9423 C.3     1  UNL1        0.0035
     20 C         -29.9890    2.3350   28.0349 C.3     1  UNL1        0.0216
     21 C         -29.5937    1.3180   28.6828 C.3     1  UNL1        0.0937
@<TRIPOS>BOND
     1     4     5    1
     2     5     8    1
     3     8     9    2
     4     9    10    1
     5    10    11    2
     6     8    12    1
     7    11    12    1
     8     3    13    1
     9     2    14    1
    10    14    15    2
    11    14    16   am
    12    16    17    1
    13    18    19    1
    14    16    21    1
    15    20    21    1
    16    17    18    1
    17    19    20    1
    18     1     2   ar
    19     2     6   ar
    20     6     7   ar
    21     7     4   ar
    22     4     3   ar
    23     3     1   ar
