@<TRIPOS>MOLECULE
outputs/IAG933/test6/raw/output_3854_IAG933_linker_design_.xyz
 41 46 0 0 0
SMALL
GASTEIGER

@<TRIPOS>ATOM
      1 C         -24.8550   -1.0120   30.1430 C.3     1  UNL1        0.1164
      2 C         -24.9730   -2.5050   29.7880 C.2     1  UNL1       -0.0125
      3 C         -23.9060   -3.1730   29.1460 C.2     1  UNL1       -0.0038
      4 C         -23.9890   -4.5490   28.8530 C.2     1  UNL1       -0.0003
      5 C         -25.1370   -5.2800   29.2050 C.2     1  UNL1       -0.0000
      6 C         -26.2320   -4.6110   29.7840 C.2     1  UNL1       -0.0003
      7 C         -26.1550   -3.2320   30.0650 C.2     1  UNL1       -0.0038
      8 C         -25.3870   -0.6790   31.5710 C.3     1  UNL1        0.0855
      9 C         -25.1890    0.7730   32.0280 C.3     1  UNL1        0.0197
     10 C         -25.3360    0.6840   33.5440 C.3     1  UNL1        0.0203
     11 C         -24.8290   -0.7150   33.9050 C.3     1  UNL1        0.0887
     12 N         -24.7580   -1.4810   32.6460 N.3     1  UNL1       -0.2186
     13 C         -25.6880    1.6140   26.4610 C.2     1  UNL1        0.0398
     14 C         -26.2500    2.9200   26.3950 C.2     1  UNL1        0.0745
     15 C         -25.6420    4.0930   27.1230 C.2     1  UNL1        0.2662
     16 N         -25.6140    5.2520   26.4490 N.am    1  UNL1       -0.1997
     17 C         -25.0260    6.4790   26.9630 C.3     1  UNL1        0.1388
     18 O         -25.1430    3.9660   28.2430 O.2     1  UNL1       -0.2683
     19 C         -27.4380    3.0910   25.6450 C.2     1  UNL1        0.1065
     20 N         -28.0750    2.0890   25.0030 N.2     1  UNL1       -0.2081
     21 C         -27.5430    0.8490   25.0790 C.2     1  UNL1        0.2530
     22 O         -28.1930   -0.2080   24.4770 O.2     1  UNL1       -0.4558
     23 C         -29.4600    0.0050   23.8660 C.3     1  UNL1        0.2426
     24 C         -30.0650   -1.3770   23.5730 C.3     1  UNL1        0.2292
     25 O         -30.7290   -1.8780   24.7210 O.3     1  UNL1       -0.2162
     26 C         -26.3540    0.5760   25.7770 C.2     1  UNL1        0.1910
     27 F         -25.8600   -0.6810   25.7950 F       1  UNL1       -0.1995
     28 O         -19.9632    0.8899   27.8444 O.3     1  UNL1       -0.4209
     29 C         -24.5683    1.1585   27.0661 C.3     1  UNL1        0.1465
     30 O         -21.8462   -0.6699   29.3012 O.3     1  UNL1       -0.3096
     31 C         -22.1412    1.1691   27.5872 C.ar    1  UNL1        0.0851
     32 N         -24.7635    0.1210   27.9781 N.am    1  UNL1       -0.1976
     33 C         -20.6995   -0.3943   28.6992 C.3     1  UNL1        0.3231
     34 O         -21.3312    2.0847   25.7437 O.2     1  UNL1       -0.4069
     35 C         -22.6643    2.0193   25.6208 C.ar    1  UNL1        0.2358
     36 C         -24.6006    0.2426   29.2643 C.2     1  UNL1        0.2469
     37 C         -21.0682    1.5594   27.0868 C.ar    1  UNL1        0.2976
     38 O         -24.2217    1.3529   29.7100 O.2     1  UNL1       -0.2729
     39 C         -21.8226    0.2681   28.7780 C.3     1  UNL1        0.2169
     40 C         -23.2146    1.4946   26.7690 C.ar    1  UNL1        0.0587
     41 N         -23.3756    2.3921   24.4925 N.pl3   1  UNL1       -0.0879
@<TRIPOS>BOND
     1     1    36    1
     2     2     7    1
     3     2     1    1
     4     3     2    2
     5     4     3    1
     6     4     5    2
     7     5     6    1
     8     6     7    2
     9     8     1    1
    10     8     9    1
    11     8    12    1
    12     9    10    1
    13    10    11    1
    14    12    11    1
    15    13    29    1
    16    14    13    1
    17    14    15    1
    18    15    18    2
    19    16    17    1
    20    16    15    1
    21    19    14    2
    22    20    21    2
    23    20    19    1
    24    21    26    1
    25    22    21    1
    26    23    22    1
    27    24    23    1
    28    24    25    1
    29    26    27    1
    30    26    13    2
    31    29    32    1
    32    32    36    1
    33    33    28    1
    34    33    39    1
    35    33    30    1
    36    34    37   ar
    37    35    34   ar
    38    35    40   ar
    39    36    38    2
    40    37    31   ar
    41    37    28    1
    42    39    31    1
    43    39    30    1
    44    40    29    1
    45    40    31   ar
    46    41    35    1
