@<TRIPOS>MOLECULE
outputs/IAG933/test6/raw/output_3860_IAG933_linker_design_.xyz
 46 50 0 0 0
SMALL
GASTEIGER

@<TRIPOS>ATOM
      1 C         -24.8550   -1.0120   30.1430 C.3     1  UNL1        0.0438
      2 C         -24.9730   -2.5050   29.7880 C.2     1  UNL1       -0.0208
      3 C         -23.9060   -3.1730   29.1460 C.2     1  UNL1       -0.0042
      4 C         -23.9890   -4.5490   28.8530 C.2     1  UNL1       -0.0003
      5 C         -25.1370   -5.2800   29.2050 C.2     1  UNL1       -0.0000
      6 C         -26.2320   -4.6110   29.7840 C.2     1  UNL1       -0.0003
      7 C         -26.1550   -3.2320   30.0650 C.2     1  UNL1       -0.0042
      8 C         -25.3870   -0.6790   31.5710 C.3     1  UNL1        0.0789
      9 C         -25.1890    0.7730   32.0280 C.3     1  UNL1        0.0412
     10 C         -25.3360    0.6840   33.5440 C.3     1  UNL1        0.0220
     11 C         -24.8290   -0.7150   33.9050 C.3     1  UNL1        0.0888
     12 N         -24.7580   -1.4810   32.6460 N.3     1  UNL1       -0.2191
     13 C         -25.6880    1.6140   26.4610 C.3     1  UNL1        0.1075
     14 C         -26.2500    2.9200   26.3950 C.2     1  UNL1        0.0580
     15 C         -25.6420    4.0930   27.1230 C.2     1  UNL1        0.2625
     16 N         -25.6140    5.2520   26.4490 N.am    1  UNL1       -0.2000
     17 C         -25.0260    6.4790   26.9630 C.3     1  UNL1        0.1388
     18 O         -25.1430    3.9660   28.2430 O.2     1  UNL1       -0.2687
     19 C         -27.4380    3.0910   25.6450 C.2     1  UNL1        0.1022
     20 N         -28.0750    2.0890   25.0030 N.2     1  UNL1       -0.2119
     21 C         -27.5430    0.8490   25.0790 C.2     1  UNL1        0.2342
     22 O         -28.1930   -0.2080   24.4770 O.2     1  UNL1       -0.4585
     23 C         -29.4600    0.0050   23.8660 C.3     1  UNL1        0.2423
     24 C         -30.0650   -1.3770   23.5730 C.3     1  UNL1        0.2292
     25 O         -30.7290   -1.8780   24.7210 O.3     1  UNL1       -0.2162
     26 C         -26.3540    0.5760   25.7770 C.3     1  UNL1        0.2432
     27 F         -25.8600   -0.6810   25.7950 F       1  UNL1       -0.2268
     28 CL        -22.4698    2.6712   24.9646 Cl      1  UNL1       -0.0237
     29 O         -27.8616    0.8217   30.2857 O.2     1  UNL1       -0.2684
     30 C         -23.2214    1.5144   28.4943 C.cat   1  UNL1        0.4495
     31 N         -24.4002    1.6013   29.3798 N.pl3   1  UNL1       -0.0612
     32 N         -21.8077    1.4105   28.5394 N.2     1  UNL1        0.1205
     33 C         -28.8771    2.9581   30.2591 C.2     1  UNL1        0.0550
     34 C         -24.6010    1.2811   26.4599 C.3     1  UNL1        0.1800
     35 C         -29.3717    5.3367   29.8959 C.2     1  UNL1        0.0001
     36 C         -22.3307    1.9795   26.5076 C.3     1  UNL1        0.4343
     37 C         -31.1768    3.7598   30.3646 C.2     1  UNL1        0.0001
     38 O         -21.3196    1.8629   27.3329 O.2     1  UNL1       -0.2548
     39 C         -28.4590    4.2563   29.8828 C.2     1  UNL1        0.0046
     40 C         -30.7268    5.0730   30.1324 C.2     1  UNL1        0.0000
     41 N         -23.4562    1.5686   27.1863 N.pl3   1  UNL1       -0.1435
     42 C         -24.6593    2.4768   30.4706 C.3     1  UNL1        0.2286
     43 C         -27.8069    2.0305   30.6141 C.2     1  UNL1        0.2648
     44 N         -26.8818    2.5752   31.3683 N.am    1  UNL1       -0.1999
     45 C         -25.7597    1.9431   31.3156 C.3     1  UNL1        0.1376
     46 C         -30.2451    2.6989   30.4278 C.2     1  UNL1        0.0046
@<TRIPOS>BOND
     1     2     7    1
     2     2     1    1
     3     3     2    2
     4     4     3    1
     5     4     5    2
     6     5     6    1
     7     6     7    2
     8     8     1    1
     9     8     9    1
    10     8    12    1
    11     9    45    1
    12     9    10    1
    13    10    11    1
    14    12    11    1
    15    13    34    1
    16    14    13    1
    17    14    15    1
    18    15    18    2
    19    16    17    1
    20    16    15    1
    21    19    14    2
    22    20    21    2
    23    20    19    1
    24    21    26    1
    25    22    21    1
    26    23    22    1
    27    24    23    1
    28    24    25    1
    29    26    27    1
    30    26    13    1
    31    29    43    2
    32    30    32    2
    33    30    31    1
    34    31    42    1
    35    33    46    1
    36    33    43    1
    37    34    41    1
    38    35    40    2
    39    36    28    1
    40    36    41    1
    41    36    38    1
    42    37    46    2
    43    38    32    1
    44    39    35    1
    45    39    33    2
    46    40    37    1
    47    41    30    1
    48    43    44    1
    49    45    42    1
    50    45    44    1
