@<TRIPOS>MOLECULE
outputs/IAG933/test6/raw/output_3864_IAG933_linker_design_.xyz
 46 49 0 0 0
SMALL
GASTEIGER

@<TRIPOS>ATOM
      1 C         -24.8550   -1.0120   30.1430 C.3     1  UNL1        0.0558
      2 C         -24.9730   -2.5050   29.7880 C.2     1  UNL1       -0.0197
      3 C         -23.9060   -3.1730   29.1460 C.2     1  UNL1       -0.0042
      4 C         -23.9890   -4.5490   28.8530 C.2     1  UNL1       -0.0003
      5 C         -25.1370   -5.2800   29.2050 C.2     1  UNL1       -0.0000
      6 C         -26.2320   -4.6110   29.7840 C.2     1  UNL1       -0.0003
      7 C         -26.1550   -3.2320   30.0650 C.2     1  UNL1       -0.0042
      8 C         -25.3870   -0.6790   31.5710 C.3     1  UNL1        0.0782
      9 C         -25.1890    0.7730   32.0280 C.3     1  UNL1        0.0192
     10 C         -25.3360    0.6840   33.5440 C.3     1  UNL1        0.0202
     11 C         -24.8290   -0.7150   33.9050 C.3     1  UNL1        0.0887
     12 N         -24.7580   -1.4810   32.6460 N.3     1  UNL1       -0.2191
     13 C         -25.6880    1.6140   26.4610 C.3     1  UNL1        0.0727
     14 C         -26.2500    2.9200   26.3950 C.2     1  UNL1        0.0549
     15 C         -25.6420    4.0930   27.1230 C.2     1  UNL1        0.2624
     16 N         -25.6140    5.2520   26.4490 N.am    1  UNL1       -0.2000
     17 C         -25.0260    6.4790   26.9630 C.3     1  UNL1        0.1388
     18 O         -25.1430    3.9660   28.2430 O.2     1  UNL1       -0.2687
     19 C         -27.4380    3.0910   25.6450 C.2     1  UNL1        0.1021
     20 N         -28.0750    2.0890   25.0030 N.2     1  UNL1       -0.2119
     21 C         -27.5430    0.8490   25.0790 C.2     1  UNL1        0.2341
     22 O         -28.1930   -0.2080   24.4770 O.2     1  UNL1       -0.4586
     23 C         -29.4600    0.0050   23.8660 C.3     1  UNL1        0.2388
     24 C         -30.0650   -1.3770   23.5730 C.3     1  UNL1        0.1914
     25 O         -30.7290   -1.8780   24.7210 O.3     1  UNL1       -0.3292
     26 C         -26.3540    0.5760   25.7770 C.3     1  UNL1        0.2401
     27 F         -25.8600   -0.6810   25.7950 F       1  UNL1       -0.2269
     28 C         -31.0135    1.0902   29.8210 C.3     1  UNL1        0.0111
     29 C         -30.3755    1.9679   30.9170 C.3     1  UNL1        0.0006
     30 C         -30.1774    0.9705   28.5008 C.3     1  UNL1        0.0978
     31 C         -29.0248   -0.0168   28.6774 C.3     1  UNL1        0.1524
     32 O         -32.1117    0.9827   27.0065 O.2     1  UNL1       -0.2732
     33 C         -28.8503    2.1081   30.7500 C.3     1  UNL1        0.0000
     34 C         -28.5030    2.8011   29.4207 C.3     1  UNL1        0.0006
     35 C         -31.5532   -1.4429   25.8122 C.3     1  UNL1        0.2606
     36 C         -29.4768    2.4040   28.2523 C.3     1  UNL1        0.0111
     37 N         -30.7738   -0.8694   26.9112 N.am    1  UNL1       -0.1736
     38 O         -27.8418   -0.7849   28.9310 O.3     1  UNL1       -0.3359
     39 C         -21.7185    1.5272   27.6626 C.3     1  UNL1        0.0355
     40 C         -25.1997   -0.1692   29.2069 C.3     1  UNL1        0.0970
     41 O         -23.0553   -0.1425   28.3595 O.3     1  UNL1       -0.2231
     42 C         -24.1132    1.3511   26.6697 C.3     1  UNL1        0.0407
     43 C         -26.7328   -0.0722   29.0147 C.3     1  UNL1        0.2345
     44 C         -31.1448    0.3122   27.3975 C.2     1  UNL1        0.2450
     45 C         -23.1720    1.1706   27.9526 C.3     1  UNL1        0.1525
     46 N         -25.9725    0.6763   28.7456 N.3     1  UNL1       -0.1881
@<TRIPOS>BOND
     1     1    40    1
     2     2     7    1
     3     2     1    1
     4     3     2    2
     5     4     3    1
     6     4     5    2
     7     5     6    1
     8     6     7    2
     9     8     1    1
    10     8     9    1
    11     8    12    1
    12     9    10    1
    13    10    11    1
    14    12    11    1
    15    13    42    1
    16    14    13    1
    17    14    15    1
    18    15    18    2
    19    16    17    1
    20    16    15    1
    21    19    14    2
    22    20    21    2
    23    20    19    1
    24    21    26    1
    25    22    21    1
    26    23    22    1
    27    24    23    1
    28    24    25    1
    29    25    35    1
    30    26    27    1
    31    26    13    1
    32    28    29    1
    33    30    31    1
    34    30    28    1
    35    31    38    1
    36    32    44    2
    37    33    29    1
    38    34    33    1
    39    35    37    1
    40    36    30    1
    41    36    34    1
    42    37    44    1
    43    38    43    1
    44    42    45    1
    45    44    30    1
    46    45    39    1
    47    45    41    1
    48    46    43    1
    49    46    40    1
