@<TRIPOS>MOLECULE
No_3866-gen_results/8p0m/2024-11-27-11-27-31/
 18 19 0 0 0
SMALL
GASTEIGER

@<TRIPOS>ATOM
      1 C         -28.0162   -0.8135   28.8779 C.ar    1  UNL1        0.0041
      2 C         -28.4690   -0.7850   29.8287 C.ar    1  UNL1        0.0031
      3 C         -28.1816    0.4277   28.1134 C.ar    1  UNL1        0.0030
      4 C         -27.4498    0.6435   26.8500 C.ar    1  UNL1        0.0001
      5 C         -26.1815    0.0357   26.7145 C.ar    1  UNL1       -0.0001
      6 C         -25.7800   -0.9326   27.6938 C.ar    1  UNL1        0.0039
      7 C         -26.5568   -1.2134   28.7413 C.ar    1  UNL1        0.0714
      8 C         -29.6470   -0.2239   30.2207 C.ar    1  UNL1        0.0375
      9 C         -30.0496    0.8403   29.3478 C.ar    1  UNL1        0.1454
     10 C         -29.3564    1.1395   28.2109 C.ar    1  UNL1        0.0375
     11 C         -25.9897   -2.3068   29.6290 C.3     1  UNL1        0.4186
     12 F         -25.4516   -3.0717   29.0652 F       1  UNL1       -0.1659
     13 F         -25.2717   -1.6952   30.6747 F       1  UNL1       -0.1659
     14 F         -27.0666   -2.9219   30.3760 F       1  UNL1       -0.1659
     15 O         -31.2552    1.5270   29.6499 O.3     1  UNL1       -0.4508
     16 C         -31.3212    2.2192   30.7541 C.2     1  UNL1        0.1750
     17 C         -30.5537    2.7017   31.3922 C.2     1  UNL1        0.0148
     18 C         -30.7334    3.4820   32.6120 C.3     1  UNL1        0.0341
@<TRIPOS>BOND
     1     7    11    1
     2    11    12    1
     3    11    13    1
     4    11    14    1
     5     9    15    1
     6    15    16    1
     7    16    17    2
     8    17    18    1
     9     1     2   ar
    10     2     8   ar
    11     8     9   ar
    12     9    10   ar
    13    10     3   ar
    14     1     3   ar
    15     3     4   ar
    16     4     5   ar
    17     5     6   ar
    18     6     7   ar
    19     7     1   ar
