@<TRIPOS>MOLECULE
outputs/IAG933/test6/raw/output_3867_IAG933_linker_design_.xyz
 41 45 0 0 0
SMALL
GASTEIGER

@<TRIPOS>ATOM
      1 C         -24.8550   -1.0120   30.1430 C.3     1  UNL1        0.1240
      2 C         -24.9730   -2.5050   29.7880 C.2     1  UNL1       -0.0020
      3 C         -23.9060   -3.1730   29.1460 C.2     1  UNL1       -0.0026
      4 C         -23.9890   -4.5490   28.8530 C.2     1  UNL1       -0.0003
      5 C         -25.1370   -5.2800   29.2050 C.2     1  UNL1       -0.0000
      6 C         -26.2320   -4.6110   29.7840 C.2     1  UNL1       -0.0003
      7 C         -26.1550   -3.2320   30.0650 C.2     1  UNL1       -0.0026
      8 C         -25.3870   -0.6790   31.5710 C.3     1  UNL1        0.0961
      9 C         -25.1890    0.7730   32.0280 C.3     1  UNL1        0.0209
     10 C         -25.3360    0.6840   33.5440 C.3     1  UNL1        0.0203
     11 C         -24.8290   -0.7150   33.9050 C.3     1  UNL1        0.0888
     12 N         -24.7580   -1.4810   32.6460 N.3     1  UNL1       -0.2174
     13 C         -25.6880    1.6140   26.4610 C.2     1  UNL1        0.0421
     14 C         -26.2500    2.9200   26.3950 C.2     1  UNL1        0.0767
     15 C         -25.6420    4.0930   27.1230 C.2     1  UNL1        0.2664
     16 N         -25.6140    5.2520   26.4490 N.am    1  UNL1       -0.1997
     17 C         -25.0260    6.4790   26.9630 C.3     1  UNL1        0.1388
     18 O         -25.1430    3.9660   28.2430 O.2     1  UNL1       -0.2683
     19 C         -27.4380    3.0910   25.6450 C.2     1  UNL1        0.1067
     20 N         -28.0750    2.0890   25.0030 N.2     1  UNL1       -0.2081
     21 C         -27.5430    0.8490   25.0790 C.2     1  UNL1        0.2533
     22 O         -28.1930   -0.2080   24.4770 O.2     1  UNL1       -0.4558
     23 C         -29.4600    0.0050   23.8660 C.3     1  UNL1        0.2426
     24 C         -30.0650   -1.3770   23.5730 C.3     1  UNL1        0.2292
     25 O         -30.7290   -1.8780   24.7210 O.3     1  UNL1       -0.2162
     26 C         -26.3540    0.5760   25.7770 C.2     1  UNL1        0.1932
     27 F         -25.8600   -0.6810   25.7950 F       1  UNL1       -0.1992
     28 C         -23.4767    1.6228   26.2335 C.2     1  UNL1        0.1818
     29 N         -22.6023   -0.4755   29.0870 N.pl3   1  UNL1       -0.2375
     30 C         -27.7410   -1.0762   28.3206 C.1     1  UNL1        0.0075
     31 N         -25.4176   -0.2621   29.0368 N.pl3   1  UNL1       -0.2422
     32 C         -20.7312   -0.2064   28.7545 C.3     1  UNL1        0.1654
     33 O         -23.1773    1.7677   24.9041 O.2     1  UNL1       -0.2908
     34 C         -24.5034    0.5132   28.1220 C.2     1  UNL1        0.0733
     35 C         -22.6712    1.3885   27.2395 C.3     1  UNL1        0.1299
     36 C         -24.6355    1.2115   26.9657 C.2     1  UNL1        0.0528
     37 C         -21.2935   -0.7769   29.1121 C.3     1  UNL1        0.1438
     38 C         -26.6196   -0.6867   28.6092 C.1     1  UNL1        0.0180
     39 C         -23.2439    0.4435   28.1857 C.2     1  UNL1        0.0667
     40 O         -20.4134    1.0265   27.8300 O.3     1  UNL1       -0.3510
     41 C         -21.2306    1.8880   27.2999 C.3     1  UNL1        0.1556
@<TRIPOS>BOND
     1     1    31    1
     2     2     7    1
     3     2     1    1
     4     3     2    2
     5     4     3    1
     6     4     5    2
     7     5     6    1
     8     6     7    2
     9     8     1    1
    10     8     9    1
    11     8    12    1
    12     9    10    1
    13    10    11    1
    14    12    11    1
    15    13    36    1
    16    14    13    1
    17    14    15    1
    18    15    18    2
    19    16    17    1
    20    16    15    1
    21    19    14    2
    22    20    21    2
    23    20    19    1
    24    21    26    1
    25    22    21    1
    26    23    22    1
    27    24    23    1
    28    24    25    1
    29    26    27    1
    30    26    13    2
    31    28    36    2
    32    28    35    1
    33    29    37    1
    34    30    38    3
    35    32    37    1
    36    33    28    1
    37    34    39    2
    38    34    31    1
    39    35    41    1
    40    35    39    1
    41    36    34    1
    42    38    31    1
    43    39    29    1
    44    40    32    1
    45    41    40    1
