@<TRIPOS>MOLECULE
No_3869-gen_results/8p0m/2024-11-27-11-27-31/
 15 16 0 0 0
SMALL
GASTEIGER

@<TRIPOS>ATOM
      1 C         -28.0162   -0.8135   28.8779 C.ar    1  UNL1       -0.0036
      2 C         -27.0636   -0.1190   28.6079 C.ar    1  UNL1       -0.0143
      3 C         -25.7923   -0.4302   29.0761 C.ar    1  UNL1       -0.0036
      4 C         -25.5756   -1.5654   29.9363 C.ar    1  UNL1       -0.0003
      5 C         -26.7354   -2.3004   30.2173 C.ar    1  UNL1       -0.0000
      6 C         -27.9184   -1.9537   29.7629 C.ar    1  UNL1       -0.0003
      7 C         -26.8968    1.1016   27.7052 C.3     1  UNL1        0.0664
      8 C         -27.7061    1.4295   26.9663 C.ar    1  UNL1       -0.0143
      9 C         -28.9293    0.7867   26.8882 C.ar    1  UNL1       -0.0036
     10 C         -29.7406    1.1421   25.7574 C.ar    1  UNL1       -0.0003
     11 C         -29.3106    2.1008   24.8457 C.ar    1  UNL1       -0.0000
     12 C         -28.1178    2.7639   24.9381 C.ar    1  UNL1       -0.0003
     13 C         -27.2924    2.4398   25.9373 C.ar    1  UNL1       -0.0036
     14 C         -25.5108    1.7232   27.8652 C.2     1  UNL1       -0.0177
     15 C         -24.4923    1.1069   28.4037 C.2     1  UNL1       -0.0042
@<TRIPOS>BOND
     1     2     7    1
     2     7     8    1
     3     7    14    1
     4    14    15    2
     5     1     2   ar
     6     2     3   ar
     7     3     4   ar
     8     4     5   ar
     9     5     6   ar
    10     6     1   ar
    11     8     9   ar
    12     9    10   ar
    13    10    11   ar
    14    11    12   ar
    15    12    13   ar
    16    13     8   ar
