@<TRIPOS>MOLECULE
outputs/IAG933/test6/raw/output_3873_IAG933_linker_design_.xyz
 47 52 0 0 0
SMALL
GASTEIGER

@<TRIPOS>ATOM
      1 C         -24.8550   -1.0120   30.1430 C.3     1  UNL1        0.0591
      2 C         -24.9730   -2.5050   29.7880 C.2     1  UNL1       -0.0194
      3 C         -23.9060   -3.1730   29.1460 C.2     1  UNL1       -0.0042
      4 C         -23.9890   -4.5490   28.8530 C.2     1  UNL1       -0.0003
      5 C         -25.1370   -5.2800   29.2050 C.2     1  UNL1       -0.0000
      6 C         -26.2320   -4.6110   29.7840 C.2     1  UNL1       -0.0003
      7 C         -26.1550   -3.2320   30.0650 C.2     1  UNL1       -0.0042
      8 C         -25.3870   -0.6790   31.5710 C.3     1  UNL1        0.0785
      9 C         -25.1890    0.7730   32.0280 C.3     1  UNL1        0.0192
     10 C         -25.3360    0.6840   33.5440 C.3     1  UNL1        0.0202
     11 C         -24.8290   -0.7150   33.9050 C.3     1  UNL1        0.0887
     12 N         -24.7580   -1.4810   32.6460 N.3     1  UNL1       -0.2191
     13 C         -25.6880    1.6140   26.4610 C.3     1  UNL1        0.0793
     14 C         -26.2500    2.9200   26.3950 C.2     1  UNL1        0.0556
     15 C         -25.6420    4.0930   27.1230 C.2     1  UNL1        0.2625
     16 N         -25.6140    5.2520   26.4490 N.am    1  UNL1       -0.2000
     17 C         -25.0260    6.4790   26.9630 C.3     1  UNL1        0.1388
     18 O         -25.1430    3.9660   28.2430 O.2     1  UNL1       -0.2687
     19 C         -27.4380    3.0910   25.6450 C.2     1  UNL1        0.1022
     20 N         -28.0750    2.0890   25.0030 N.2     1  UNL1       -0.2119
     21 C         -27.5430    0.8490   25.0790 C.2     1  UNL1        0.2341
     22 O         -28.1930   -0.2080   24.4770 O.2     1  UNL1       -0.4585
     23 C         -29.4600    0.0050   23.8660 C.3     1  UNL1        0.2423
     24 C         -30.0650   -1.3770   23.5730 C.3     1  UNL1        0.2292
     25 O         -30.7290   -1.8780   24.7210 O.3     1  UNL1       -0.2162
     26 C         -26.3540    0.5760   25.7770 C.3     1  UNL1        0.2408
     27 F         -25.8600   -0.6810   25.7950 F       1  UNL1       -0.2269
     28 C         -30.0285    3.1222   28.9485 C.3     1  UNL1        0.0030
     29 C         -28.6334    3.1286   31.0053 C.3     1  UNL1        0.0005
     30 C         -30.3150    2.9212   27.6505 C.3     1  UNL1        0.0329
     31 O         -27.9120   -1.0120   29.4473 O.2     1  UNL1       -0.2734
     32 S         -23.3404    1.9532   28.0515 S.3     1  UNL1       -0.1782
     33 N         -26.3794    0.6811   28.9952 N.am    1  UNL1       -0.2059
     34 C         -24.2336    1.5445   26.6021 C.3     1  UNL1        0.0464
     35 C         -27.6751    0.1580   29.1988 C.2     1  UNL1        0.2410
     36 O         -32.0985    1.6644   26.2397 O.3     1  UNL1       -0.2231
     37 C         -21.9419    2.1146   25.8135 C.3     1  UNL1        0.0117
     38 C         -29.9484    3.9601   31.1687 C.3     1  UNL1        0.0000
     39 C         -23.3184    1.5574   25.4015 C.3     1  UNL1        0.0113
     40 C         -25.0940   -0.0831   28.9356 C.3     1  UNL1        0.1106
     41 C         -23.7019    0.6381   28.8448 C.3     1  UNL1        0.0701
     42 C         -28.9557    1.0908   29.1101 C.3     1  UNL1        0.0807
     43 C         -28.7491    2.5255   29.6156 C.3     1  UNL1        0.0088
     44 C         -30.9196    1.4788   27.3537 C.3     1  UNL1        0.1525
     45 C         -30.2691    0.4503   28.3492 C.3     1  UNL1        0.0420
     46 C         -21.7557    1.8208   27.3780 C.3     1  UNL1        0.0482
     47 C         -30.9214    3.4756   29.9591 C.3     1  UNL1        0.0001
@<TRIPOS>BOND
     1     1    40    1
     2     2     7    1
     3     2     1    1
     4     3     2    2
     5     4     3    1
     6     4     5    2
     7     5     6    1
     8     6     7    2
     9     8     1    1
    10     8     9    1
    11     8    12    1
    12     9    10    1
    13    10    11    1
    14    12    11    1
    15    13    14    1
    16    13    34    1
    17    14    15    1
    18    15    18    2
    19    16    17    1
    20    16    15    1
    21    19    14    2
    22    20    21    2
    23    20    19    1
    24    21    26    1
    25    22    21    1
    26    23    22    1
    27    24    23    1
    28    24    25    1
    29    26    27    1
    30    26    13    1
    31    28    30    1
    32    28    43    1
    33    28    47    1
    34    29    38    1
    35    32    41    1
    36    33    35    1
    37    34    39    1
    38    34    32    1
    39    35    31    2
    40    37    46    1
    41    39    37    1
    42    40    41    1
    43    40    33    1
    44    42    35    1
    45    42    43    1
    46    43    29    1
    47    44    36    1
    48    44    30    1
    49    44    45    1
    50    45    42    1
    51    46    32    1
    52    47    38    1
