@<TRIPOS>MOLECULE
No_3874-gen_results/8p0m/2024-11-27-11-27-31/
 35 38 0 0 0
SMALL
GASTEIGER

@<TRIPOS>ATOM
      1 C         -28.0162   -0.8135   28.8779 C.ar    1  UNL1        0.0110
      2 C         -27.0636   -0.1189   28.6079 C.ar    1  UNL1        0.0538
      3 C         -25.7923   -0.4302   29.0761 C.ar    1  UNL1        0.0045
      4 C         -25.5756   -1.5654   29.9363 C.ar    1  UNL1        0.0004
      5 C         -26.7354   -2.3004   30.2173 C.ar    1  UNL1        0.0064
      6 C         -27.9184   -1.9537   29.7629 C.ar    1  UNL1        0.0758
      7 C         -27.1057    1.1023   27.7593 C.2     1  UNL1        0.2490
      8 N         -26.2345    1.4562   27.0152 N.am    1  UNL1       -0.2757
      9 O         -28.0034    1.9622   28.0076 O.2     1  UNL1       -0.2699
     10 C         -24.9654    0.7741   26.7927 C.3     1  UNL1        0.0980
     11 C         -23.7949    1.6731   27.1901 C.3     1  UNL1        0.0422
     12 C         -22.5919    1.1317   27.6636 C.ar    1  UNL1       -0.0208
     13 C         -21.4292    1.8748   27.7683 C.ar    1  UNL1       -0.0042
     14 C         -23.8722    3.0829   26.9346 C.3     1  UNL1        0.0078
     15 C         -25.1252    3.5956   26.4224 C.3     1  UNL1        0.0219
     16 C         -25.9740    2.9965   27.2624 C.3     1  UNL1        0.0937
     17 C         -22.6439   -0.1595   28.3729 C.ar    1  UNL1       -0.0042
     18 C         -21.4822   -0.6167   29.0441 C.ar    1  UNL1       -0.0003
     19 C         -20.2689    1.3302   28.3854 C.ar    1  UNL1       -0.0003
     20 C         -20.3353    0.1385   29.0489 C.ar    1  UNL1       -0.0000
     21 C         -29.0752   -2.7943   30.1305 C.2     1  UNL1        0.3412
     22 O         -28.9992   -4.0141   30.3147 O.2     1  UNL1       -0.2449
     23 O         -30.2308   -2.2248   30.2992 O.3     1  UNL1       -0.4454
     24 C         -31.0968   -2.5968   31.1141 C.3     1  UNL1        0.2091
     25 C         -31.0108   -2.2847   32.4154 C.3     1  UNL1        0.0521
     26 C         -30.5879   -0.9630   32.6126 C.3     1  UNL1        0.0304
     27 C         -31.3097    0.0934   32.2461 C.ar    1  UNL1       -0.0221
     28 C         -32.4395    0.3009   32.5832 C.ar    1  UNL1       -0.0043
     29 C         -33.2302    1.4749   32.1269 C.ar    1  UNL1       -0.0003
     30 C         -32.5699    2.3464   31.2268 C.ar    1  UNL1       -0.0000
     31 C         -31.2667    2.1036   30.7878 C.ar    1  UNL1       -0.0003
     32 C         -30.5863    1.0525   31.2917 C.ar    1  UNL1       -0.0043
     33 C         -29.3514   -0.7639   33.4684 C.3     1  UNL1        0.0305
     34 C         -29.4413   -0.2312   34.7080 C.2     1  UNL1       -0.0258
     35 C         -28.3300    0.0224   35.4365 C.2     1  UNL1       -0.0049
@<TRIPOS>BOND
     1     2     7    1
     2     7     8   am
     3     7     9    2
     4     8    10    1
     5    10    11    1
     6    11    14    1
     7    14    15    1
     8     8    16    1
     9    15    16    1
    10     6    21    1
    11    21    22    2
    12    21    23    1
    13    23    24    1
    14    24    25    1
    15    25    26    1
    16    26    27    1
    17    26    33    1
    18    33    34    1
    19    34    35    2
    20    11    12    1
    21     1     2   ar
    22     2     3   ar
    23     3     4   ar
    24     4     5   ar
    25     5     6   ar
    26     6     1   ar
    27    27    28   ar
    28    28    29   ar
    29    29    30   ar
    30    30    31   ar
    31    31    32   ar
    32    32    27   ar
    33    12    13   ar
    34    13    19   ar
    35    19    20   ar
    36    20    18   ar
    37    18    17   ar
    38    17    12   ar
