@<TRIPOS>MOLECULE
No_3875-gen_results/8p0m/2024-11-27-11-27-31/
 17 17 0 0 0
SMALL
GASTEIGER

@<TRIPOS>ATOM
      1 C         -28.0162   -0.8135   28.8779 C.2     1  UNL1       -0.0173
      2 C         -27.0636   -0.1189   28.6079 C.2     1  UNL1       -0.0466
      3 C         -26.8756    1.1325   28.9134 C.3     1  UNL1        0.0319
      4 C         -25.6883    1.9515   28.5672 C.3     1  UNL1        0.0964
      5 C         -24.6394    1.2834   27.8753 C.3     1  UNL1        0.0254
      6 C         -24.8068   -0.0513   27.6040 C.3     1  UNL1        0.0061
      7 C         -25.9020   -0.7670   27.9511 C.3     1  UNL1        0.0218
      8 C         -29.2159   -0.1185   29.1813 C.3     1  UNL1        0.0983
      9 N         -30.1606   -0.7081   29.8314 N.3     1  UNL1       -0.2665
     10 C         -23.4208    1.9744   27.5040 C.3     1  UNL1        0.0804
     11 CL        -21.8546    1.8122   27.7951 Cl      1  UNL1       -0.1150
     12 C         -23.6822    2.9634   26.3730 C.3     1  UNL1        0.0175
     13 C         -29.9127   -1.4666   30.8132 C.3     1  UNL1        0.0899
     14 C         -31.5941   -0.6816   29.4573 C.3     1  UNL1        0.0899
     15 C         -25.5499    3.4095   28.9007 C.2     1  UNL1        0.3105
     16 O         -25.1799    3.6842   29.9963 O.2     1  UNL1       -0.2591
     17 F         -25.9046    4.2342   28.0613 F       1  UNL1       -0.1636
@<TRIPOS>BOND
     1     1     2    2
     2     2     3    1
     3     3     4    1
     4     4     5    1
     5     5     6    1
     6     2     7    1
     7     6     7    1
     8     1     8    1
     9     8     9    1
    10     5    10    1
    11    10    11    1
    12    10    12    1
    13     9    13    1
    14     9    14    1
    15     4    15    1
    16    15    16    2
    17    15    17    1
