@<TRIPOS>MOLECULE
outputs/IAG933/test6/raw/output_3877_IAG933_linker_design_.xyz
 59 66 0 0 0
SMALL
GASTEIGER

@<TRIPOS>ATOM
      1 C         -24.8550   -1.0120   30.1430 C.3     1  UNL1        0.1548
      2 C         -24.9730   -2.5050   29.7880 C.2     1  UNL1        0.0060
      3 C         -23.9060   -3.1730   29.1460 C.2     1  UNL1       -0.0019
      4 C         -23.9890   -4.5490   28.8530 C.2     1  UNL1       -0.0002
      5 C         -25.1370   -5.2800   29.2050 C.2     1  UNL1       -0.0000
      6 C         -26.2320   -4.6110   29.7840 C.2     1  UNL1       -0.0002
      7 C         -26.1550   -3.2320   30.0650 C.2     1  UNL1       -0.0019
      8 C         -25.3870   -0.6790   31.5710 C.3     1  UNL1        0.1041
      9 C         -25.1890    0.7730   32.0280 C.3     1  UNL1        0.0217
     10 C         -25.3360    0.6840   33.5440 C.3     1  UNL1        0.0203
     11 C         -24.8290   -0.7150   33.9050 C.3     1  UNL1        0.0888
     12 N         -24.7580   -1.4810   32.6460 N.3     1  UNL1       -0.2166
     13 C         -25.6880    1.6140   26.4610 C.3     1  UNL1        0.1300
     14 C         -26.2500    2.9200   26.3950 C.2     1  UNL1        0.0696
     15 C         -25.6420    4.0930   27.1230 C.2     1  UNL1        0.2637
     16 N         -25.6140    5.2520   26.4490 N.am    1  UNL1       -0.2000
     17 C         -25.0260    6.4790   26.9630 C.3     1  UNL1        0.1388
     18 O         -25.1430    3.9660   28.2430 O.2     1  UNL1       -0.2686
     19 C         -27.4380    3.0910   25.6450 C.2     1  UNL1        0.1035
     20 N         -28.0750    2.0890   25.0030 N.2     1  UNL1       -0.2118
     21 C         -27.5430    0.8490   25.0790 C.2     1  UNL1        0.2355
     22 O         -28.1930   -0.2080   24.4770 O.2     1  UNL1       -0.4585
     23 C         -29.4600    0.0050   23.8660 C.3     1  UNL1        0.2423
     24 C         -30.0650   -1.3770   23.5730 C.3     1  UNL1        0.2292
     25 O         -30.7290   -1.8780   24.7210 O.3     1  UNL1       -0.2162
     26 C         -26.3540    0.5760   25.7770 C.3     1  UNL1        0.2546
     27 F         -25.8600   -0.6810   25.7950 F       1  UNL1       -0.2254
     28 S         -28.6663    4.0629   29.2235 S.3     1  UNL1       -0.1229
     29 N         -30.1023    3.5017   32.4889 N.3     1  UNL1       -0.1997
     30 C         -32.8543    1.6867   26.6021 C.3     1  UNL1        0.1020
     31 N         -24.8002    1.4054   27.5102 N.3     1  UNL1       -0.2467
     32 C         -27.2224    2.1406   30.2150 C.3     1  UNL1        0.0871
     33 C         -30.8723    4.0685   28.9743 C.3     1  UNL1        0.1002
     34 C         -23.4745    2.0164   27.3789 C.3     1  UNL1        0.0600
     35 C         -31.9351    4.0226   26.2246 C.3     1  UNL1        0.0600
     36 N         -31.8276    2.7353   27.1136 N.3     1  UNL1       -0.2706
     37 C         -31.4890    3.4615   23.8152 C.3     1  UNL1        0.0064
     38 O         -24.4587   -0.0618   29.1133 O.3     1  UNL1       -0.3375
     39 C         -32.4439    1.8344   25.2014 C.3     1  UNL1        0.1323
     40 N         -31.0721    4.1519   30.1456 N.3     1  UNL1       -0.1989
     41 C         -29.7331    2.1804   33.6694 C.3     1  UNL1        0.0362
     42 C         -22.3272    1.1458   27.9202 C.3     1  UNL1        0.0160
     43 C         -32.6114    1.3066   22.9347 C.3     1  UNL1        0.1421
     44 C         -30.7871    2.3988   32.5924 C.3     1  UNL1        0.0917
     45 C         -30.8891    5.2061   25.8824 C.3     1  UNL1        0.0170
     46 C         -20.9563    1.7090   27.5596 C.3     1  UNL1        0.0014
     47 C         -29.9117    4.6795   28.2161 C.3     1  UNL1        0.0664
     48 O         -33.2302    1.2838   24.1835 O.3     1  UNL1       -0.3548
     49 C         -32.4874    3.3563   24.9633 C.3     1  UNL1        0.0433
     50 N         -28.3123    1.9543   31.4201 N.3     1  UNL1       -0.2633
     51 C         -30.5490    4.3974   31.4053 C.3     1  UNL1        0.1782
     52 C         -23.2634    2.3051   25.8765 C.3     1  UNL1        0.0174
     53 C         -31.9764    2.6503   22.6093 C.3     1  UNL1        0.0322
     54 C         -31.4753    2.8858   28.4260 C.3     1  UNL1        0.0906
     55 C         -28.6331    1.5672   32.9322 C.3     1  UNL1        0.0743
     56 C         -25.3232    1.0642   28.8211 C.3     1  UNL1        0.1782
     57 C         -29.6952    5.2313   26.8705 C.3     1  UNL1        0.0137
     58 C         -26.7816    0.9473   29.2264 C.3     1  UNL1        0.0650
     59 C         -28.5098    2.5914   30.1682 C.3     1  UNL1        0.1210
@<TRIPOS>BOND
     1     1    38    1
     2     2     7    1
     3     2     1    1
     4     3     2    2
     5     4     3    1
     6     4     5    2
     7     5     6    1
     8     6     7    2
     9     8     1    1
    10     8     9    1
    11     8    12    1
    12     9    10    1
    13    10    11    1
    14    12    11    1
    15    13    31    1
    16    14    13    1
    17    14    15    1
    18    15    18    2
    19    16    17    1
    20    16    15    1
    21    19    14    2
    22    20    21    2
    23    20    19    1
    24    21    26    1
    25    22    21    1
    26    23    22    1
    27    24    23    1
    28    24    25    1
    29    26    27    1
    30    26    13    1
    31    29    44    1
    32    31    56    1
    33    32    58    1
    34    32    50    1
    35    33    54    1
    36    33    40    1
    37    34    52    1
    38    34    31    1
    39    34    42    1
    40    35    45    1
    41    35    36    1
    42    36    30    1
    43    36    54    1
    44    39    30    1
    45    40    51    1
    46    43    48    1
    47    44    41    1
    48    45    57    1
    49    46    42    1
    50    47    57    1
    51    47    33    1
    52    47    28    1
    53    48    39    1
    54    49    37    1
    55    49    39    1
    56    49    35    1
    57    50    55    1
    58    51    29    1
    59    53    43    1
    60    53    37    1
    61    55    41    1
    62    56    38    1
    63    56    58    1
    64    59    28    1
    65    59    32    1
    66    59    50    1
