@<TRIPOS>MOLECULE
outputs/IAG933/test6/raw/output_388_IAG933_linker_design_.xyz
 51 57 0 0 0
SMALL
GASTEIGER

@<TRIPOS>ATOM
      1 C         -24.8550   -1.0120   30.1430 C.3     1  UNL1        0.0697
      2 C         -24.9730   -2.5050   29.7880 C.2     1  UNL1       -0.0184
      3 C         -23.9060   -3.1730   29.1460 C.2     1  UNL1       -0.0041
      4 C         -23.9890   -4.5490   28.8530 C.2     1  UNL1       -0.0003
      5 C         -25.1370   -5.2800   29.2050 C.2     1  UNL1       -0.0000
      6 C         -26.2320   -4.6110   29.7840 C.2     1  UNL1       -0.0003
      7 C         -26.1550   -3.2320   30.0650 C.2     1  UNL1       -0.0041
      8 C         -25.3870   -0.6790   31.5710 C.3     1  UNL1        0.0795
      9 C         -25.1890    0.7730   32.0280 C.3     1  UNL1        0.0193
     10 C         -25.3360    0.6840   33.5440 C.3     1  UNL1        0.0202
     11 C         -24.8290   -0.7150   33.9050 C.3     1  UNL1        0.0887
     12 N         -24.7580   -1.4810   32.6460 N.3     1  UNL1       -0.2190
     13 C         -25.6880    1.6140   26.4610 C.2     1  UNL1        0.0400
     14 C         -26.2500    2.9200   26.3950 C.2     1  UNL1        0.0766
     15 C         -25.6420    4.0930   27.1230 C.2     1  UNL1        0.2664
     16 N         -25.6140    5.2520   26.4490 N.am    1  UNL1       -0.1997
     17 C         -25.0260    6.4790   26.9630 C.3     1  UNL1        0.1388
     18 O         -25.1430    3.9660   28.2430 O.2     1  UNL1       -0.2683
     19 C         -27.4380    3.0910   25.6450 C.2     1  UNL1        0.1067
     20 N         -28.0750    2.0890   25.0030 N.2     1  UNL1       -0.2081
     21 C         -27.5430    0.8490   25.0790 C.2     1  UNL1        0.2533
     22 O         -28.1930   -0.2080   24.4770 O.2     1  UNL1       -0.4546
     23 C         -29.4600    0.0050   23.8660 C.3     1  UNL1        0.2544
     24 C         -30.0650   -1.3770   23.5730 C.3     1  UNL1        0.2573
     25 O         -30.7290   -1.8780   24.7210 O.3     1  UNL1       -0.4294
     26 C         -26.3540    0.5760   25.7770 C.2     1  UNL1        0.1931
     27 F         -25.8600   -0.6810   25.7950 F       1  UNL1       -0.1992
     28 O         -34.0949    2.2426   28.0435 O.3     1  UNL1       -0.2045
     29 O         -26.6408   -0.2845   28.7855 O.3     1  UNL1       -0.3515
     30 C         -30.8119    1.3296   29.9310 C.3     1  UNL1        0.0003
     31 O         -31.7270   -1.8517   26.8069 O.2     1  UNL1       -0.2246
     32 C         -25.2427   -0.2490   28.9113 C.3     1  UNL1        0.1428
     33 C         -32.3491    0.7354   28.1327 C.3     1  UNL1        0.0707
     34 F         -23.1752    2.0119   25.1132 F       1  UNL1       -0.2042
     35 N         -31.7988    0.0474   25.4205 N.am    1  UNL1       -0.1663
     36 C         -31.0721    1.0180   28.6190 C.3     1  UNL1        0.0057
     37 C         -33.4997    1.1772   27.5056 C.3     1  UNL1        0.2213
     38 C         -31.4357   -1.2708   25.7517 C.2     1  UNL1        0.4213
     39 C         -24.3688    1.2886   27.1102 C.2     1  UNL1        0.0283
     40 C         -24.0964    0.4766   28.3776 C.2     1  UNL1        0.0071
     41 C         -27.6053   -0.2871   29.9800 C.3     1  UNL1        0.1424
     42 C         -21.6360    0.7950   28.2449 C.2     1  UNL1        0.0021
     43 C         -28.7891    0.0455   29.6809 C.3     1  UNL1        0.0297
     44 C         -32.6538    0.7621   26.5732 C.3     1  UNL1        0.1471
     45 C         -21.8450    1.5276   27.0851 C.2     1  UNL1        0.0296
     46 C         -28.9567   -0.0177   28.1229 C.3     1  UNL1        0.0025
     47 C         -30.0930    0.5719   27.6947 C.3     1  UNL1        0.0003
     48 C         -23.1180    1.6774   26.4659 C.2     1  UNL1        0.1399
     49 C         -29.7602    0.6526   30.5391 C.3     1  UNL1        0.0025
     50 C         -22.7689    0.2659   28.8982 C.2     1  UNL1       -0.0018
     51 N         -34.5523    0.5381   26.7320 N.3     1  UNL1       -0.0991
@<TRIPOS>BOND
     1     1     2    1
     2     2     7    1
     3     3     2    2
     4     4     3    1
     5     4     5    2
     6     5     6    1
     7     6     7    2
     8     8     1    1
     9     8     9    1
    10     8    12    1
    11     9    10    1
    12    10    11    1
    13    12    11    1
    14    13    39    1
    15    14    13    1
    16    14    15    1
    17    15    18    2
    18    16    17    1
    19    16    15    1
    20    19    14    2
    21    20    21    2
    22    20    19    1
    23    21    26    1
    24    22    21    1
    25    23    22    1
    26    24    23    1
    27    24    25    1
    28    25    38    1
    29    26    27    1
    30    26    13    2
    31    29    32    1
    32    29    41    1
    33    30    49    1
    34    32     1    1
    35    33    36    1
    36    34    48    1
    37    35    38    1
    38    35    44    1
    39    36    30    1
    40    37    28    1
    41    37    33    1
    42    38    31    2
    43    39    40    1
    44    40    50    2
    45    40    32    1
    46    42    50    1
    47    43    41    1
    48    43    49    1
    49    44    37    1
    50    44    33    1
    51    45    42    2
    52    46    43    1
    53    47    46    1
    54    47    36    1
    55    48    45    1
    56    48    39    2
    57    51    37    1
