@<TRIPOS>MOLECULE
outputs/IAG933/test6/raw/output_3880_IAG933_linker_design_.xyz
 40 43 0 0 0
SMALL
GASTEIGER

@<TRIPOS>ATOM
      1 C         -24.8550   -1.0120   30.1430 C.3     1  UNL1        0.0437
      2 C         -24.9730   -2.5050   29.7880 C.2     1  UNL1       -0.0208
      3 C         -23.9060   -3.1730   29.1460 C.2     1  UNL1       -0.0042
      4 C         -23.9890   -4.5490   28.8530 C.2     1  UNL1       -0.0003
      5 C         -25.1370   -5.2800   29.2050 C.2     1  UNL1       -0.0000
      6 C         -26.2320   -4.6110   29.7840 C.2     1  UNL1       -0.0003
      7 C         -26.1550   -3.2320   30.0650 C.2     1  UNL1       -0.0042
      8 C         -25.3870   -0.6790   31.5710 C.3     1  UNL1        0.0781
      9 C         -25.1890    0.7730   32.0280 C.3     1  UNL1        0.0373
     10 C         -25.3360    0.6840   33.5440 C.3     1  UNL1        0.0212
     11 C         -24.8290   -0.7150   33.9050 C.3     1  UNL1        0.0887
     12 N         -24.7580   -1.4810   32.6460 N.3     1  UNL1       -0.2191
     13 C         -25.6880    1.6140   26.4610 C.2     1  UNL1        0.0378
     14 C         -26.2500    2.9200   26.3950 C.2     1  UNL1        0.0744
     15 C         -25.6420    4.0930   27.1230 C.2     1  UNL1        0.2662
     16 N         -25.6140    5.2520   26.4490 N.am    1  UNL1       -0.1997
     17 C         -25.0260    6.4790   26.9630 C.3     1  UNL1        0.1388
     18 O         -25.1430    3.9660   28.2430 O.2     1  UNL1       -0.2683
     19 C         -27.4380    3.0910   25.6450 C.2     1  UNL1        0.1065
     20 N         -28.0750    2.0890   25.0030 N.2     1  UNL1       -0.2081
     21 C         -27.5430    0.8490   25.0790 C.2     1  UNL1        0.2530
     22 O         -28.1930   -0.2080   24.4770 O.2     1  UNL1       -0.4558
     23 C         -29.4600    0.0050   23.8660 C.3     1  UNL1        0.2426
     24 C         -30.0650   -1.3770   23.5730 C.3     1  UNL1        0.2292
     25 O         -30.7290   -1.8780   24.7210 O.3     1  UNL1       -0.2162
     26 C         -26.3540    0.5760   25.7770 C.2     1  UNL1        0.1910
     27 F         -25.8600   -0.6810   25.7950 F       1  UNL1       -0.1995
     28 C         -23.1063    1.2256   28.9559 C.3     1  UNL1        0.1499
     29 N         -24.5054    1.3774   28.6823 N.am    1  UNL1       -0.2669
     30 O         -26.8276    1.6259   29.2869 O.2     1  UNL1       -0.2743
     31 F         -21.0114    1.5818   27.5641 F       1  UNL1       -0.2077
     32 C         -24.3827    1.5305   27.3778 C.3     1  UNL1        0.1213
     33 C         -22.9490    2.5114   25.4268 C.3     1  UNL1        0.0304
     34 C         -25.2801    3.3416   32.0256 C.2     1  UNL1        0.3730
     35 C         -22.3690    1.5292   27.7615 C.2     1  UNL1        0.1316
     36 O         -26.0984    4.1468   32.5094 O.co2   1  UNL1       -0.2451
     37 C         -23.2641    1.8538   26.7298 C.2     1  UNL1        0.0031
     38 O         -23.9529    3.5808   32.2012 O.co2   1  UNL1       -0.2451
     39 C         -25.6567    1.6921   29.6468 C.2     1  UNL1        0.2369
     40 C         -25.3913    2.0639   31.1710 C.3     1  UNL1        0.1809
@<TRIPOS>BOND
     1     2     7    1
     2     2     1    1
     3     3     2    2
     4     4     3    1
     5     4     5    2
     6     5     6    1
     7     6     7    2
     8     8     1    1
     9     8     9    1
    10     8    12    1
    11     9    40    1
    12     9    10    1
    13    10    11    1
    14    12    11    1
    15    14    13    1
    16    14    15    1
    17    15    18    2
    18    16    17    1
    19    16    15    1
    20    19    14    2
    21    20    21    2
    22    20    19    1
    23    21    26    1
    24    22    21    1
    25    23    22    1
    26    24    23    1
    27    24    25    1
    28    26    27    1
    29    26    13    2
    30    29    28    1
    31    29    39   am
    32    30    39    2
    33    31    35    1
    34    32    13    1
    35    32    29    1
    36    33    37    1
    37    34    38   ar
    38    34    36   ar
    39    35    28    1
    40    37    32    1
    41    37    35    2
    42    40    39    1
    43    40    34    1
