@<TRIPOS>MOLECULE
outputs/IAG933/test6/raw/output_3882_IAG933_linker_design_.xyz
 45 50 0 0 0
SMALL
GASTEIGER

@<TRIPOS>ATOM
      1 C         -24.8550   -1.0120   30.1430 C.3     1  UNL1        0.0640
      2 C         -24.9730   -2.5050   29.7880 C.2     1  UNL1       -0.0191
      3 C         -23.9060   -3.1730   29.1460 C.2     1  UNL1       -0.0042
      4 C         -23.9890   -4.5490   28.8530 C.2     1  UNL1       -0.0003
      5 C         -25.1370   -5.2800   29.2050 C.2     1  UNL1       -0.0000
      6 C         -26.2320   -4.6110   29.7840 C.2     1  UNL1       -0.0003
      7 C         -26.1550   -3.2320   30.0650 C.2     1  UNL1       -0.0042
      8 C         -25.3870   -0.6790   31.5710 C.3     1  UNL1        0.0789
      9 C         -25.1890    0.7730   32.0280 C.3     1  UNL1        0.0193
     10 C         -25.3360    0.6840   33.5440 C.3     1  UNL1        0.0202
     11 C         -24.8290   -0.7150   33.9050 C.3     1  UNL1        0.0887
     12 N         -24.7580   -1.4810   32.6460 N.3     1  UNL1       -0.2191
     13 C         -25.6880    1.6140   26.4610 C.3     1  UNL1        0.1268
     14 C         -26.2500    2.9200   26.3950 C.2     1  UNL1        0.0620
     15 C         -25.6420    4.0930   27.1230 C.2     1  UNL1        0.2629
     16 N         -25.6140    5.2520   26.4490 N.am    1  UNL1       -0.2000
     17 C         -25.0260    6.4790   26.9630 C.3     1  UNL1        0.1388
     18 O         -25.1430    3.9660   28.2430 O.2     1  UNL1       -0.2686
     19 C         -27.4380    3.0910   25.6450 C.2     1  UNL1        0.1026
     20 N         -28.0750    2.0890   25.0030 N.2     1  UNL1       -0.2118
     21 C         -27.5430    0.8490   25.0790 C.2     1  UNL1        0.2345
     22 O         -28.1930   -0.2080   24.4770 O.2     1  UNL1       -0.4585
     23 C         -29.4600    0.0050   23.8660 C.3     1  UNL1        0.2423
     24 C         -30.0650   -1.3770   23.5730 C.3     1  UNL1        0.2292
     25 O         -30.7290   -1.8780   24.7210 O.3     1  UNL1       -0.2162
     26 C         -26.3540    0.5760   25.7770 C.3     1  UNL1        0.2471
     27 F         -25.8600   -0.6810   25.7950 F       1  UNL1       -0.2264
     28 C         -22.1014    1.8327   25.9989 C.3     1  UNL1        0.2523
     29 N         -22.2794    0.1223   29.2325 N.2     1  UNL1       -0.1507
     30 C         -29.6367   -0.1791   28.0045 C.2     1  UNL1        0.0382
     31 N         -21.4613    0.6069   28.3039 N.2     1  UNL1       -0.1488
     32 C         -24.3078    1.4606   26.6128 C.2     1  UNL1        0.1261
     33 N         -26.0369    0.9910   29.1226 N.pl3   1  UNL1       -0.2329
     34 C         -29.7248    2.1200   29.2401 C.2     1  UNL1        0.0382
     35 O         -23.5189    2.0686   25.6184 O.2     1  UNL1       -0.4727
     36 C         -30.3942    1.0465   28.4646 C.2     1  UNL1        0.1388
     37 C         -28.2674    2.2188   29.4021 C.2     1  UNL1        0.0192
     38 C         -23.5038    0.4050   28.7538 C.2     1  UNL1        0.1044
     39 C         -24.8875    0.0925   29.2252 C.3     1  UNL1        0.1394
     40 C         -32.2270    0.8767   29.3150 C.3     1  UNL1        0.2525
     41 C         -22.1801    1.1757   27.3197 C.2     1  UNL1        0.1279
     42 C         -23.4755    1.0384   27.5547 C.2     1  UNL1        0.0660
     43 C         -27.5138    0.9673   29.0919 C.2     1  UNL1        0.0659
     44 C         -28.2021   -0.1897   28.3164 C.2     1  UNL1        0.0192
     45 O         -31.5640    1.1884   28.1375 O.2     1  UNL1       -0.4714
@<TRIPOS>BOND
     1     1    39    1
     2     2     7    1
     3     2     1    1
     4     3     2    2
     5     4     3    1
     6     4     5    2
     7     5     6    1
     8     6     7    2
     9     8     1    1
    10     8     9    1
    11     8    12    1
    12     9    10    1
    13    10    11    1
    14    12    11    1
    15    13    32    1
    16    14    13    1
    17    14    15    1
    18    15    18    2
    19    16    17    1
    20    16    15    1
    21    19    14    2
    22    20    21    2
    23    20    19    1
    24    21    26    1
    25    22    21    1
    26    23    22    1
    27    24    23    1
    28    24    25    1
    29    26    27    1
    30    26    13    1
    31    28    41    1
    32    30    44    2
    33    30    36    1
    34    31    29    1
    35    32    42    2
    36    34    37    1
    37    35    28    1
    38    35    32    1
    39    36    34    2
    40    38    39    1
    41    38    29    2
    42    39    33    1
    43    41    42    1
    44    41    31    2
    45    42    38    1
    46    43    33    1
    47    43    37    2
    48    44    43    1
    49    45    36    1
    50    45    40    1
