@<TRIPOS>MOLECULE
outputs/IAG933/test6/raw/output_3883_IAG933_linker_design_.xyz
 48 52 0 0 0
SMALL
GASTEIGER

@<TRIPOS>ATOM
      1 C         -24.8550   -1.0120   30.1430 C.3     1  UNL1        0.0661
      2 C         -24.9730   -2.5050   29.7880 C.2     1  UNL1       -0.0188
      3 C         -23.9060   -3.1730   29.1460 C.2     1  UNL1       -0.0042
      4 C         -23.9890   -4.5490   28.8530 C.2     1  UNL1       -0.0003
      5 C         -25.1370   -5.2800   29.2050 C.2     1  UNL1       -0.0000
      6 C         -26.2320   -4.6110   29.7840 C.2     1  UNL1       -0.0003
      7 C         -26.1550   -3.2320   30.0650 C.2     1  UNL1       -0.0042
      8 C         -25.3870   -0.6790   31.5710 C.3     1  UNL1        0.0792
      9 C         -25.1890    0.7730   32.0280 C.3     1  UNL1        0.0193
     10 C         -25.3360    0.6840   33.5440 C.3     1  UNL1        0.0202
     11 C         -24.8290   -0.7150   33.9050 C.3     1  UNL1        0.0887
     12 N         -24.7580   -1.4810   32.6460 N.3     1  UNL1       -0.2190
     13 C         -25.6880    1.6140   26.4610 C.2     1  UNL1        0.0354
     14 C         -26.2500    2.9200   26.3950 C.2     1  UNL1        0.0763
     15 C         -25.6420    4.0930   27.1230 C.2     1  UNL1        0.2664
     16 N         -25.6140    5.2520   26.4490 N.am    1  UNL1       -0.1997
     17 C         -25.0260    6.4790   26.9630 C.3     1  UNL1        0.1388
     18 O         -25.1430    3.9660   28.2430 O.2     1  UNL1       -0.2683
     19 C         -27.4380    3.0910   25.6450 C.2     1  UNL1        0.1067
     20 N         -28.0750    2.0890   25.0030 N.2     1  UNL1       -0.2081
     21 C         -27.5430    0.8490   25.0790 C.2     1  UNL1        0.2533
     22 O         -28.1930   -0.2080   24.4770 O.2     1  UNL1       -0.4558
     23 C         -29.4600    0.0050   23.8660 C.3     1  UNL1        0.2426
     24 C         -30.0650   -1.3770   23.5730 C.3     1  UNL1        0.2292
     25 O         -30.7290   -1.8780   24.7210 O.3     1  UNL1       -0.2162
     26 C         -26.3540    0.5760   25.7770 C.2     1  UNL1        0.1928
     27 F         -25.8600   -0.6810   25.7950 F       1  UNL1       -0.1992
     28 C         -22.9599    0.5523   28.5681 C.2     1  UNL1        0.0109
     29 F         -20.8886    1.5427   27.4636 F       1  UNL1       -0.2036
     30 O         -28.4866   -4.0609   32.5205 O.co2   1  UNL1       -0.2409
     31 C         -23.1781    1.8992   26.6779 C.2     1  UNL1        0.0812
     32 C         -30.4616   -2.0730   29.9049 C.2     1  UNL1       -0.0421
     33 C         -32.5077   -3.7119   29.2069 C.3     1  UNL1        0.0043
     34 C         -22.2709    1.4245   27.5791 C.2     1  UNL1        0.1464
     35 C         -29.4849   -3.9535   31.5986 C.2     1  UNL1        0.3832
     36 C         -28.5665   -0.7051   30.0206 C.3     1  UNL1        0.0382
     37 C         -24.4089    0.5741   28.2304 C.3     1  UNL1        0.0750
     38 C         -24.5387    1.3612   27.1050 C.2     1  UNL1       -0.0007
     39 O         -30.2471   -4.8035   31.4076 O.co2   1  UNL1       -0.2409
     40 C         -31.6812   -2.4327   29.3667 C.3     1  UNL1        0.0182
     41 C         -27.6883    0.1770   29.5176 C.3     1  UNL1        0.1427
     42 C         -25.4784    0.0046   29.0639 C.3     1  UNL1        0.1286
     43 C         -29.5307   -2.5773   30.9218 C.2     1  UNL1        0.0498
     44 O         -26.7234   -0.2804   28.6219 O.3     1  UNL1       -0.3552
     45 C         -29.7523   -0.9098   29.3275 C.3     1  UNL1        0.0247
     46 C         -28.5133   -1.6181   31.1416 C.3     1  UNL1        0.0352
     47 CL        -22.7854    2.7894   25.2095 Cl      1  UNL1       -0.0802
     48 C         -32.4811   -1.2552   28.9025 C.3     1  UNL1        0.0043
@<TRIPOS>BOND
     1     1    42    1
     2     2     7    1
     3     2     1    1
     4     3     2    2
     5     4     3    1
     6     4     5    2
     7     5     6    1
     8     6     7    2
     9     8     1    1
    10     8     9    1
    11     8    12    1
    12     9    10    1
    13    10    11    1
    14    12    11    1
    15    13    38    1
    16    14    13    1
    17    14    15    1
    18    15    18    2
    19    16    17    1
    20    16    15    1
    21    19    14    2
    22    20    21    2
    23    20    19    1
    24    21    26    1
    25    22    21    1
    26    23    22    1
    27    24    23    1
    28    24    25    1
    29    26    27    1
    30    26    13    2
    31    29    34    1
    32    31    38    2
    33    31    34    1
    34    32    43    2
    35    33    40    1
    36    34    28    2
    37    35    30   ar
    38    36    41    1
    39    36    46    1
    40    37    28    1
    41    37    42    1
    42    38    37    1
    43    39    35   ar
    44    40    32    1
    45    42    44    1
    46    43    46    1
    47    43    35    1
    48    44    41    1
    49    45    32    1
    50    45    36    1
    51    47    31    1
    52    48    40    1
