@<TRIPOS>MOLECULE
No_3886-gen_results/8p0m/2024-11-27-11-27-31/
 24 26 0 0 0
SMALL
GASTEIGER

@<TRIPOS>ATOM
      1 C         -28.0162   -0.8135   28.8779 C.ar    1  UNL1        0.0030
      2 C         -27.0636   -0.1189   28.6079 C.ar    1  UNL1        0.0001
      3 C         -26.9716    0.7139   27.5060 C.ar    1  UNL1        0.0002
      4 C         -28.1053    0.7744   26.6421 C.ar    1  UNL1        0.0046
      5 C         -29.2008    0.1044   27.0527 C.ar    1  UNL1        0.0564
      6 C         -29.2096   -0.6029   28.1853 C.ar    1  UNL1        0.0408
      7 C         -30.3702    0.2264   26.1604 C.2     1  UNL1        0.2495
      8 O         -30.3387    0.2161   24.9661 O.2     1  UNL1       -0.2699
      9 N         -31.5967   -0.2850   26.7546 N.am    1  UNL1       -0.2671
     10 C         -31.8074   -0.4184   28.1132 C.3     1  UNL1        0.1632
     11 C         -30.6038   -0.9385   28.7959 C.2     1  UNL1        0.1932
     12 O         -30.6378   -1.4982   29.9626 O.2     1  UNL1       -0.2895
     13 C         -32.8568   -0.2404   25.9254 C.3     1  UNL1        0.1156
     14 C         -25.6460    1.3114   27.0517 C.ar    1  UNL1        0.0013
     15 C         -24.5556    1.0593   27.7446 C.ar    1  UNL1        0.0161
     16 C         -23.2911    1.7599   27.3703 C.ar    1  UNL1        0.0655
     17 C         -23.3024    2.4480   26.1471 C.ar    1  UNL1        0.0161
     18 C         -24.4781    2.6857   25.4966 C.ar    1  UNL1        0.0013
     19 C         -25.6439    2.1026   25.8921 C.ar    1  UNL1        0.0001
     20 N         -22.1152    1.5126   28.0228 N.pl3   1  UNL1       -0.2316
     21 C         -21.0960    0.9166   27.5410 C.3     1  UNL1        0.1842
     22 C         -20.6530   -0.1307   28.5540 C.3     1  UNL1        0.3398
     23 F         -20.9834    0.0916   29.6808 F       1  UNL1       -0.1964
     24 F         -19.9988   -1.0570   28.1037 F       1  UNL1       -0.1964
@<TRIPOS>BOND
     1     5     7    1
     2     7     8    2
     3     7     9   am
     4     9    10    1
     5     6    11    1
     6    10    11    1
     7    11    12    2
     8     9    13    1
     9     3    14    1
    10    16    20    1
    11    20    21    1
    12    21    22    1
    13    22    23    1
    14    22    24    1
    15     1     2   ar
    16     2     3   ar
    17     3     4   ar
    18     4     5   ar
    19     5     6   ar
    20     6     1   ar
    21    14    15   ar
    22    15    16   ar
    23    16    17   ar
    24    17    18   ar
    25    18    19   ar
    26    19    14   ar
