@<TRIPOS>MOLECULE
No_3887-gen_results/8p0m/2024-11-27-11-27-31/
 13 13 0 0 0
SMALL
GASTEIGER

@<TRIPOS>ATOM
      1 N         -28.0544   -1.0498   28.7246 N.ar    1  UNL1       -0.2478
      2 C         -27.7460   -0.0733   29.0098 C.ar    1  UNL1        0.0634
      3 C         -27.1741    0.7325   28.8254 C.3     1  UNL1        0.0717
      4 C         -26.3364    1.3983   28.5352 C.2     1  UNL1       -0.0160
      5 C         -25.2160    1.9556   28.0399 C.2     1  UNL1        0.0711
      6 C         -23.9423    1.5824   28.2237 C.3     1  UNL1        0.4182
      7 F         -23.4575    1.6833   29.3545 F       1  UNL1       -0.1659
      8 F         -23.6401    0.3755   27.6856 F       1  UNL1       -0.1659
      9 F         -23.0751    2.4012   27.4071 F       1  UNL1       -0.1659
     10 C         -28.3411    0.0796   30.4594 C.ar    1  UNL1        0.0151
     11 C         -29.2486   -0.8514   30.9760 C.ar    1  UNL1        0.0028
     12 C         -29.4673   -1.9930   30.3180 C.ar    1  UNL1        0.0207
     13 C         -28.7664   -2.1029   29.2368 C.ar    1  UNL1        0.0985
@<TRIPOS>BOND
     1     3     4    1
     2     4     5    2
     3     5     6    1
     4     6     7    1
     5     6     8    1
     6     6     9    1
     7     3     2    1
     8     1     2   ar
     9     2    10   ar
    10    10    11   ar
    11    11    12   ar
    12    12    13   ar
    13    13     1   ar
