@<TRIPOS>MOLECULE
No_3888-gen_results/8p0m/2024-11-27-11-27-31/
 12 12 0 0 0
SMALL
GASTEIGER

@<TRIPOS>ATOM
      1 C         -28.0162   -0.8135   28.8779 C.3     1  UNL1        0.0676
      2 C         -28.4690   -0.7850   29.8287 C.3     1  UNL1        0.0080
      3 C         -26.5455   -0.8762   28.8500 C.2     1  UNL1        0.1882
      4 C         -25.8041   -1.0324   30.0571 C.3     1  UNL1        0.2700
      5 C         -26.5373   -1.0386   31.2171 C.3     1  UNL1        0.0486
      6 C         -27.8843   -0.9532   31.1862 C.3     1  UNL1        0.0039
      7 C         -24.3655   -1.1134   30.0483 C.3     1  UNL1        0.4309
      8 F         -23.8409    0.0468   30.2589 F       1  UNL1       -0.1668
      9 F         -23.8967   -1.8871   31.0536 F       1  UNL1       -0.1668
     10 F         -23.8227   -1.5898   28.9219 F       1  UNL1       -0.1668
     11 F         -25.6286   -2.0810   30.0506 F       1  UNL1       -0.2236
     12 O         -25.8773   -0.6336   27.7095 O.2     1  UNL1       -0.2930
@<TRIPOS>BOND
     1     1     3    1
     2     3     4    1
     3     4     5    1
     4     2     6    1
     5     4     7    1
     6     7     8    1
     7     7     9    1
     8     7    10    1
     9     4    11    1
    10     3    12    2
    11     1     2    1
    12     6     5    1
