@<TRIPOS>MOLECULE
outputs/IAG933/test6/raw/output_3889_IAG933_linker_design_.xyz
 43 46 0 0 0
SMALL
GASTEIGER

@<TRIPOS>ATOM
      1 C         -24.8550   -1.0120   30.1430 C.3     1  UNL1        0.0981
      2 C         -24.9730   -2.5050   29.7880 C.2     1  UNL1       -0.0064
      3 C         -23.9060   -3.1730   29.1460 C.2     1  UNL1       -0.0029
      4 C         -23.9890   -4.5490   28.8530 C.2     1  UNL1       -0.0003
      5 C         -25.1370   -5.2800   29.2050 C.2     1  UNL1       -0.0000
      6 C         -26.2320   -4.6110   29.7840 C.2     1  UNL1       -0.0003
      7 C         -26.1550   -3.2320   30.0650 C.2     1  UNL1       -0.0029
      8 C         -25.3870   -0.6790   31.5710 C.3     1  UNL1        0.0916
      9 C         -25.1890    0.7730   32.0280 C.3     1  UNL1        0.0206
     10 C         -25.3360    0.6840   33.5440 C.3     1  UNL1        0.0203
     11 C         -24.8290   -0.7150   33.9050 C.3     1  UNL1        0.0888
     12 N         -24.7580   -1.4810   32.6460 N.3     1  UNL1       -0.2178
     13 C         -25.6880    1.6140   26.4610 C.2     1  UNL1        0.0353
     14 C         -26.2500    2.9200   26.3950 C.2     1  UNL1        0.0740
     15 C         -25.6420    4.0930   27.1230 C.2     1  UNL1        0.2662
     16 N         -25.6140    5.2520   26.4490 N.am    1  UNL1       -0.1997
     17 C         -25.0260    6.4790   26.9630 C.3     1  UNL1        0.1388
     18 O         -25.1430    3.9660   28.2430 O.2     1  UNL1       -0.2683
     19 C         -27.4380    3.0910   25.6450 C.2     1  UNL1        0.1065
     20 N         -28.0750    2.0890   25.0030 N.2     1  UNL1       -0.2081
     21 C         -27.5430    0.8490   25.0790 C.2     1  UNL1        0.2530
     22 O         -28.1930   -0.2080   24.4770 O.2     1  UNL1       -0.4558
     23 C         -29.4600    0.0050   23.8660 C.3     1  UNL1        0.2426
     24 C         -30.0650   -1.3770   23.5730 C.3     1  UNL1        0.2292
     25 O         -30.7290   -1.8780   24.7210 O.3     1  UNL1       -0.2162
     26 C         -26.3540    0.5760   25.7770 C.2     1  UNL1        0.1905
     27 F         -25.8600   -0.6810   25.7950 F       1  UNL1       -0.1995
     28 C         -30.0093   -0.1597   28.4477 C.2     1  UNL1        0.2588
     29 N         -24.4668   -0.0540   29.1576 N.3     1  UNL1       -0.2442
     30 C         -22.9790    0.0300   28.8301 C.3     1  UNL1        0.0932
     31 C         -29.0973   -0.8114   29.6717 C.3     1  UNL1        0.2568
     32 C         -25.1666    0.7565   28.4506 C.3     1  UNL1        0.1967
     33 O         -30.6673   -0.8313   27.6148 O.2     1  UNL1       -0.2720
     34 N         -23.2902    1.7985   26.9206 N.3     1  UNL1       -0.1903
     35 C         -24.4686    1.1629   27.5157 C.3     1  UNL1        0.1406
     36 C         -30.9324    1.1425   29.8469 C.3     1  UNL1        0.1150
     37 C         -27.5476   -0.3387   29.4765 C.3     1  UNL1        0.1860
     38 O         -29.9302   -2.1586   30.0882 O.3     1  UNL1       -0.2105
     39 C         -28.8411    2.0322   28.8165 C.3     1  UNL1        0.1150
     40 O         -26.5769    0.3426   28.2995 O.3     1  UNL1       -0.3358
     41 N         -30.0264    1.2481   28.7894 N.am    1  UNL1       -0.2739
     42 CL        -22.7436    2.3579   25.3026 Cl      1  UNL1       -0.0193
     43 C         -22.3417    1.1850   27.8983 C.3     1  UNL1        0.1067
@<TRIPOS>BOND
     1     1     2    1
     2     2     7    1
     3     3     2    2
     4     4     3    1
     5     4     5    2
     6     5     6    1
     7     6     7    2
     8     8     1    1
     9     8     9    1
    10     8    12    1
    11     9    10    1
    12    10    11    1
    13    12    11    1
    14    14    13    1
    15    14    15    1
    16    15    18    2
    17    16    17    1
    18    16    15    1
    19    19    14    2
    20    20    21    2
    21    20    19    1
    22    21    26    1
    23    22    21    1
    24    23    22    1
    25    24    23    1
    26    24    25    1
    27    26    27    1
    28    26    13    2
    29    28    41   am
    30    28    31    1
    31    29     1    1
    32    30    29    1
    33    31    38    1
    34    32    40    1
    35    32    29    1
    36    33    28    2
    37    34    35    1
    38    34    43    1
    39    35    13    1
    40    35    32    1
    41    37    31    1
    42    40    37    1
    43    41    39    1
    44    41    36    1
    45    42    34    1
    46    43    30    1
