@<TRIPOS>MOLECULE
No_389-gen_results/8p0m/2024-11-27-11-27-31/
 16 17 0 0 0
SMALL
GASTEIGER

@<TRIPOS>ATOM
      1 C         -28.0162   -0.8135   28.8779 C.ar    1  UNL1       -0.0028
      2 C         -27.0636   -0.1189   28.6079 C.ar    1  UNL1       -0.0003
      3 C         -25.7923   -0.4302   29.0761 C.ar    1  UNL1       -0.0000
      4 C         -25.5756   -1.5654   29.9363 C.ar    1  UNL1       -0.0003
      5 C         -26.7354   -2.3004   30.2173 C.ar    1  UNL1       -0.0028
      6 C         -27.9184   -1.9537   29.7629 C.ar    1  UNL1       -0.0024
      7 C         -27.1057    1.1023   27.7593 C.ar    1  UNL1       -0.0000
      8 C         -26.7157    2.2350   27.9945 C.ar    1  UNL1       -0.0000
      9 C         -26.6929    3.3459   27.0337 C.ar    1  UNL1       -0.0000
     10 C         -27.1962    3.0779   25.7437 C.ar    1  UNL1        0.0000
     11 C         -27.5814    0.8882   26.3714 C.ar    1  UNL1       -0.0000
     12 C         -27.6132    1.8443   25.4645 C.ar    1  UNL1       -0.0000
     13 CA        -29.0590   -2.7811   30.2183 C.3     1  UNL1        0.1469
     14 N         -28.9490   -4.0553   30.5422 N.3     1  UNL1       -0.1253
     15 C         -30.3628   -2.1983   30.2833 C.3     1  UNL1        0.2054
     16 O         -30.5749   -1.0322   30.2403 O.3     1  UNL1       -0.2184
@<TRIPOS>BOND
     1     2     7    1
     2     6    13    1
     3    13    14    1
     4    13    15    1
     5    15    16    1
     6     7     8   ar
     7     8     9   ar
     8     9    10   ar
     9    10    12   ar
    10    12    11   ar
    11    11     7   ar
    12     1     2   ar
    13     2     3   ar
    14     3     4   ar
    15     4     5   ar
    16     5     6   ar
    17     6     1   ar
