@<TRIPOS>MOLECULE
outputs/IAG933/test6/raw/output_3891_IAG933_linker_design_.xyz
 44 47 0 0 0
SMALL
GASTEIGER

@<TRIPOS>ATOM
      1 C         -24.8550   -1.0120   30.1430 C.3     1  UNL1        0.0975
      2 C         -24.9730   -2.5050   29.7880 C.2     1  UNL1       -0.0064
      3 C         -23.9060   -3.1730   29.1460 C.2     1  UNL1       -0.0029
      4 C         -23.9890   -4.5490   28.8530 C.2     1  UNL1       -0.0003
      5 C         -25.1370   -5.2800   29.2050 C.2     1  UNL1       -0.0000
      6 C         -26.2320   -4.6110   29.7840 C.2     1  UNL1       -0.0003
      7 C         -26.1550   -3.2320   30.0650 C.2     1  UNL1       -0.0029
      8 C         -25.3870   -0.6790   31.5710 C.3     1  UNL1        0.0916
      9 C         -25.1890    0.7730   32.0280 C.3     1  UNL1        0.0206
     10 C         -25.3360    0.6840   33.5440 C.3     1  UNL1        0.0203
     11 C         -24.8290   -0.7150   33.9050 C.3     1  UNL1        0.0888
     12 N         -24.7580   -1.4810   32.6460 N.3     1  UNL1       -0.2178
     13 C         -25.6880    1.6140   26.4610 C.3     1  UNL1        0.1311
     14 C         -26.2500    2.9200   26.3950 C.2     1  UNL1        0.0697
     15 C         -25.6420    4.0930   27.1230 C.2     1  UNL1        0.2637
     16 N         -25.6140    5.2520   26.4490 N.am    1  UNL1       -0.2000
     17 C         -25.0260    6.4790   26.9630 C.3     1  UNL1        0.1388
     18 O         -25.1430    3.9660   28.2430 O.2     1  UNL1       -0.2686
     19 C         -27.4380    3.0910   25.6450 C.2     1  UNL1        0.1035
     20 N         -28.0750    2.0890   25.0030 N.2     1  UNL1       -0.2118
     21 C         -27.5430    0.8490   25.0790 C.2     1  UNL1        0.2355
     22 O         -28.1930   -0.2080   24.4770 O.2     1  UNL1       -0.4585
     23 C         -29.4600    0.0050   23.8660 C.3     1  UNL1        0.2423
     24 C         -30.0650   -1.3770   23.5730 C.3     1  UNL1        0.2292
     25 O         -30.7290   -1.8780   24.7210 O.3     1  UNL1       -0.2162
     26 C         -26.3540    0.5760   25.7770 C.3     1  UNL1        0.2547
     27 F         -25.8600   -0.6810   25.7950 F       1  UNL1       -0.2254
     28 O         -29.9407   -0.0413   27.9277 O.2     1  UNL1       -0.2836
     29 C         -23.3651    0.9879   27.2694 C.3     1  UNL1        0.1777
     30 C         -28.3184    2.5965   30.8192 C.2     1  UNL1        0.0030
     31 O         -22.5989    0.2629   28.2613 O.3     1  UNL1       -0.3382
     32 C         -29.4397    0.6574   28.9768 C.2     1  UNL1        0.2266
     33 C         -28.0316    0.7991   29.1593 C.2     1  UNL1        0.0359
     34 C         -32.5293    2.3980   30.2929 C.3     1  UNL1        0.2526
     35 C         -27.1133   -0.3557   28.8073 C.3     1  UNL1        0.1037
     36 C         -25.1449    1.1264   28.8211 C.3     1  UNL1        0.1519
     37 C         -21.3335    1.0118   28.4872 C.3     1  UNL1        0.1758
     38 C         -22.5387    1.9730   26.3677 C.3     1  UNL1        0.0508
     39 N         -25.6237   -0.2142   29.1273 N.3     1  UNL1       -0.2511
     40 C         -27.4938    1.9157   29.8612 C.2     1  UNL1        0.0005
     41 C         -29.7169    2.2762   30.8323 C.2     1  UNL1        0.0402
     42 N         -24.6863    1.1966   27.4845 N.3     1  UNL1       -0.2309
     43 O         -31.6299    1.5357   29.5667 O.2     1  UNL1       -0.4682
     44 C         -30.2795    1.4922   29.8592 C.2     1  UNL1        0.1771
@<TRIPOS>BOND
     1     1    39    1
     2     2     7    1
     3     2     1    1
     4     3     2    2
     5     4     3    1
     6     4     5    2
     7     5     6    1
     8     6     7    2
     9     8     1    1
    10     8     9    1
    11     8    12    1
    12     9    10    1
    13    10    11    1
    14    12    11    1
    15    13    42    1
    16    14    13    1
    17    14    15    1
    18    15    18    2
    19    16    17    1
    20    16    15    1
    21    19    14    2
    22    20    21    2
    23    20    19    1
    24    21    26    1
    25    22    21    1
    26    23    22    1
    27    24    23    1
    28    24    25    1
    29    26    27    1
    30    26    13    1
    31    28    32    1
    32    29    38    1
    33    29    42    1
    34    29    31    1
    35    30    41    1
    36    31    37    1
    37    32    33    2
    38    32    44    1
    39    33    40    1
    40    35    39    1
    41    35    33    1
    42    36    39    1
    43    40    30    2
    44    42    36    1
    45    43    44    1
    46    43    34    1
    47    44    41    2
