@<TRIPOS>MOLECULE
outputs/IAG933/test6/raw/output_3892_IAG933_linker_design_.xyz
 48 55 0 0 0
SMALL
GASTEIGER

@<TRIPOS>ATOM
      1 C         -24.8550   -1.0120   30.1430 C.3     1  UNL1        0.0607
      2 C         -24.9730   -2.5050   29.7880 C.2     1  UNL1       -0.0193
      3 C         -23.9060   -3.1730   29.1460 C.2     1  UNL1       -0.0042
      4 C         -23.9890   -4.5490   28.8530 C.2     1  UNL1       -0.0003
      5 C         -25.1370   -5.2800   29.2050 C.2     1  UNL1       -0.0000
      6 C         -26.2320   -4.6110   29.7840 C.2     1  UNL1       -0.0003
      7 C         -26.1550   -3.2320   30.0650 C.2     1  UNL1       -0.0042
      8 C         -25.3870   -0.6790   31.5710 C.3     1  UNL1        0.0787
      9 C         -25.1890    0.7730   32.0280 C.3     1  UNL1        0.0193
     10 C         -25.3360    0.6840   33.5440 C.3     1  UNL1        0.0202
     11 C         -24.8290   -0.7150   33.9050 C.3     1  UNL1        0.0887
     12 N         -24.7580   -1.4810   32.6460 N.3     1  UNL1       -0.2191
     13 C         -25.6880    1.6140   26.4610 C.2     1  UNL1        0.0169
     14 C         -26.2500    2.9200   26.3950 C.2     1  UNL1        0.0726
     15 C         -25.6420    4.0930   27.1230 C.2     1  UNL1        0.2661
     16 N         -25.6140    5.2520   26.4490 N.am    1  UNL1       -0.1997
     17 C         -25.0260    6.4790   26.9630 C.3     1  UNL1        0.1388
     18 O         -25.1430    3.9660   28.2430 O.2     1  UNL1       -0.2683
     19 C         -27.4380    3.0910   25.6450 C.2     1  UNL1        0.1064
     20 N         -28.0750    2.0890   25.0030 N.2     1  UNL1       -0.2081
     21 C         -27.5430    0.8490   25.0790 C.2     1  UNL1        0.2530
     22 O         -28.1930   -0.2080   24.4770 O.2     1  UNL1       -0.4558
     23 C         -29.4600    0.0050   23.8660 C.3     1  UNL1        0.2437
     24 C         -30.0650   -1.3770   23.5730 C.3     1  UNL1        0.2427
     25 O         -30.7290   -1.8780   24.7210 O.3     1  UNL1       -0.1656
     26 C         -26.3540    0.5760   25.7770 C.2     1  UNL1        0.1891
     27 F         -25.8600   -0.6810   25.7950 F       1  UNL1       -0.1996
     28 C         -31.4594   -0.6550   26.5085 C.2     1  UNL1        0.3536
     29 O         -30.4240   -1.4108   25.8525 O.3     1  UNL1       -0.2955
     30 C         -23.1923    1.8507   26.8557 C.3     1  UNL1        0.1138
     31 CL        -22.8477    2.2426   25.3041 Cl      1  UNL1       -0.1119
     32 C         -22.5206   -0.3840   28.3383 C.3     1  UNL1        0.0366
     33 C         -24.6086    1.5204   27.3956 C.3     1  UNL1        0.0445
     34 S         -30.7002    3.0070   27.5758 S.3     1  UNL1       -0.0652
     35 C         -25.4484    0.0926   29.2815 C.3     1  UNL1        0.1083
     36 C         -23.0490    0.7930   29.1482 C.3     1  UNL1        0.0362
     37 N         -29.6502    1.9040   28.4091 N.3     1  UNL1       -0.2228
     38 C         -28.7453   -0.1082   27.9700 C.3     1  UNL1        0.0598
     39 C         -31.6181    1.8187   26.8418 C.3     1  UNL1        0.0865
     40 N         -26.6362    0.0573   28.8824 N.2     1  UNL1       -0.2791
     41 C         -31.0336    0.6253   26.9986 C.3     1  UNL1        0.1301
     42 C         -29.8273    0.7481   27.8060 C.3     1  UNL1        0.0855
     43 C         -24.5104    1.2321   28.8592 C.3     1  UNL1        0.0308
     44 O         -32.5612   -1.0537   26.5081 O.2     1  UNL1       -0.2468
     45 C         -27.8752    0.5653   28.8334 C.2     1  UNL1        0.0498
     46 C         -22.3303    1.0890   27.7483 C.3     1  UNL1        0.1480
     47 F         -21.0470    1.6461   27.4699 F       1  UNL1       -0.2387
     48 C         -28.5387    1.7388   29.2790 C.3     1  UNL1        0.1239
@<TRIPOS>BOND
     1     1     2    1
     2     2     7    1
     3     3     2    2
     4     4     3    1
     5     4     5    2
     6     5     6    1
     7     6     7    2
     8     8     1    1
     9     8     9    1
    10     8    12    1
    11     9    10    1
    12    10    11    1
    13    12    11    1
    14    14    13    1
    15    14    15    1
    16    15    18    2
    17    16    17    1
    18    16    15    1
    19    19    14    2
    20    20    21    2
    21    20    19    1
    22    21    26    1
    23    22    21    1
    24    23    22    1
    25    24    23    1
    26    24    25    1
    27    25    29    1
    28    26    27    1
    29    26    13    2
    30    28    41    1
    31    29    28    1
    32    30    31    1
    33    30    33    1
    34    30    46    1
    35    33    13    1
    36    33    43    1
    37    34    37    1
    38    35     1    1
    39    36    32    1
    40    37    48    1
    41    38    45    1
    42    39    34    1
    43    40    35    1
    44    41    39    1
    45    41    42    1
    46    42    38    1
    47    42    37    1
    48    43    36    1
    49    43    35    1
    50    44    28    2
    51    45    40    2
    52    45    48    1
    53    46    32    1
    54    46    36    1
    55    47    46    1
