@<TRIPOS>MOLECULE
No_3893-gen_results/8p0m/2024-11-27-11-27-31/
 13 14 0 0 0
SMALL
GASTEIGER

@<TRIPOS>ATOM
      1 C         -28.0162   -0.8135   28.8779 C.ar    1  UNL1        0.0045
      2 C         -28.4690   -0.7850   29.8287 C.ar    1  UNL1        0.0539
      3 C         -26.5042   -0.7777   28.8766 C.ar    1  UNL1        0.0001
      4 C         -25.8103   -0.8531   30.1028 C.ar    1  UNL1        0.0000
      5 C         -30.0136   -0.8410   29.8508 C.2     1  UNL1        0.2527
      6 C         -26.5670   -0.8850   31.2517 C.ar    1  UNL1        0.0001
      7 C         -27.9411   -0.9069   31.1850 C.ar    1  UNL1        0.0045
      8 O         -30.6563   -1.6921   30.1809 O.2     1  UNL1       -0.2696
      9 N         -30.6002    0.3117   29.2879 N.am    1  UNL1       -0.2540
     10 C         -29.9171    1.4676   28.8574 C.2     1  UNL1        0.0632
     11 C         -30.7760    2.3080   28.2352 C.2     1  UNL1       -0.0082
     12 C         -32.0306    2.0645   27.9653 C.3     1  UNL1        0.0493
     13 C         -31.9240    0.3213   28.8713 C.3     1  UNL1        0.1032
@<TRIPOS>BOND
     1     2     5    1
     2     5     8    2
     3     5     9   am
     4     9    10    1
     5    10    11    2
     6    11    12    1
     7     9    13    1
     8    12    13    1
     9     1     2   ar
    10     2     7   ar
    11     7     6   ar
    12     6     4   ar
    13     4     3   ar
    14     3     1   ar
