@<TRIPOS>MOLECULE
No_3896-gen_results/8p0m/2024-11-27-11-27-31/
 18 19 0 0 0
SMALL
GASTEIGER

@<TRIPOS>ATOM
      1 C         -28.0162   -0.8135   28.8779 C.2     1  UNL1        0.0022
      2 C         -27.0636   -0.1190   28.6079 C.2     1  UNL1       -0.0457
      3 C         -26.9716    0.7139   27.5060 C.3     1  UNL1        0.0223
      4 C         -25.8205    1.4909   27.1160 C.3     1  UNL1        0.0156
      5 C         -24.6562    1.4242   27.9180 C.3     1  UNL1        0.1041
      6 C         -24.6847    0.5901   29.0659 C.3     1  UNL1        0.0156
      7 C         -25.8099   -0.1266   29.3338 C.3     1  UNL1        0.0223
      8 C         -29.2185   -0.0422   29.3127 C.3     1  UNL1        0.1957
      9 C         -30.2802   -0.8075   29.8362 C.ar    1  UNL1        0.0119
     10 C         -23.4679    2.2043   27.6013 C.2     1  UNL1        0.3643
     11 O         -23.2801    2.7366   26.5147 O.co2   1  UNL1       -0.2457
     12 O         -22.3467    1.9853   28.3312 O.co2   1  UNL1       -0.2457
     13 C         -31.5600   -0.7102   29.3616 C.ar    1  UNL1       -0.0015
     14 C         -32.5450   -1.5884   29.6429 C.ar    1  UNL1       -0.0002
     15 C         -32.2875   -2.6223   30.5736 C.ar    1  UNL1       -0.0000
     16 C         -31.0196   -2.7817   31.1170 C.ar    1  UNL1       -0.0002
     17 C         -29.9757   -1.9179   30.6876 C.ar    1  UNL1       -0.0015
     18 O         -28.8250    0.9522   30.2016 O.3     1  UNL1       -0.2134
@<TRIPOS>BOND
     1     1     2    2
     2     2     3    1
     3     3     4    1
     4     4     5    1
     5     5     6    1
     6     2     7    1
     7     6     7    1
     8     1     8    1
     9     8     9    1
    10     5    10    1
    11    10    11   ar
    12    10    12   ar
    13     8    18    1
    14     9    13   ar
    15    13    14   ar
    16    14    15   ar
    17    15    16   ar
    18    16    17   ar
    19    17     9   ar
