@<TRIPOS>MOLECULE
outputs/IAG933/test6/raw/output_3899_IAG933_linker_design_.xyz
 44 47 0 0 0
SMALL
GASTEIGER

@<TRIPOS>ATOM
      1 C         -24.8550   -1.0120   30.1430 C.3     1  UNL1        0.0437
      2 C         -24.9730   -2.5050   29.7880 C.2     1  UNL1       -0.0208
      3 C         -23.9060   -3.1730   29.1460 C.2     1  UNL1       -0.0042
      4 C         -23.9890   -4.5490   28.8530 C.2     1  UNL1       -0.0003
      5 C         -25.1370   -5.2800   29.2050 C.2     1  UNL1       -0.0000
      6 C         -26.2320   -4.6110   29.7840 C.2     1  UNL1       -0.0003
      7 C         -26.1550   -3.2320   30.0650 C.2     1  UNL1       -0.0042
      8 C         -25.3870   -0.6790   31.5710 C.3     1  UNL1        0.0775
      9 C         -25.1890    0.7730   32.0280 C.3     1  UNL1        0.0237
     10 C         -25.3360    0.6840   33.5440 C.3     1  UNL1        0.0206
     11 C         -24.8290   -0.7150   33.9050 C.3     1  UNL1        0.0887
     12 N         -24.7580   -1.4810   32.6460 N.3     1  UNL1       -0.2191
     13 C         -25.6880    1.6140   26.4610 C.3     1  UNL1        0.0938
     14 C         -26.2500    2.9200   26.3950 C.2     1  UNL1        0.0589
     15 C         -25.6420    4.0930   27.1230 C.2     1  UNL1        0.2628
     16 N         -25.6140    5.2520   26.4490 N.am    1  UNL1       -0.2000
     17 C         -25.0260    6.4790   26.9630 C.3     1  UNL1        0.1388
     18 O         -25.1430    3.9660   28.2430 O.2     1  UNL1       -0.2686
     19 C         -27.4380    3.0910   25.6450 C.2     1  UNL1        0.1025
     20 N         -28.0750    2.0890   25.0030 N.2     1  UNL1       -0.2118
     21 C         -27.5430    0.8490   25.0790 C.2     1  UNL1        0.2344
     22 O         -28.1930   -0.2080   24.4770 O.2     1  UNL1       -0.4585
     23 C         -29.4600    0.0050   23.8660 C.3     1  UNL1        0.2423
     24 C         -30.0650   -1.3770   23.5730 C.3     1  UNL1        0.2292
     25 O         -30.7290   -1.8780   24.7210 O.3     1  UNL1       -0.2162
     26 C         -26.3540    0.5760   25.7770 C.3     1  UNL1        0.2440
     27 F         -25.8600   -0.6810   25.7950 F       1  UNL1       -0.2265
     28 O         -21.5640    1.2898   28.7333 O.2     1  UNL1       -0.4430
     29 C         -28.6353    6.3740   33.6083 C.2     1  UNL1        0.0354
     30 C         -22.1133    0.4647   29.8147 C.3     1  UNL1        0.2559
     31 C         -27.2027    4.2357   32.2428 C.2     1  UNL1        0.0153
     32 C         -26.1561    1.8811   31.3033 C.3     1  UNL1        0.0478
     33 C         -25.7081    2.1095   29.8308 C.2     1  UNL1        0.0726
     34 C         -27.8848    5.2392   32.8418 C.1     1  UNL1       -0.1083
     35 C         -24.3594    1.6510   26.5690 C.2     1  UNL1        0.0081
     36 C         -23.6994    1.6508   27.7092 C.2     1  UNL1        0.1483
     37 C         -22.2710    1.9708   25.2369 C.3     1  UNL1        0.2348
     38 N         -28.3887    8.5937   34.9810 N.3     1  UNL1       -0.1255
     39 C         -23.6746    1.8584   25.3315 C.2     1  UNL1        0.0186
     40 C         -22.3146    1.6488   27.6000 C.2     1  UNL1        0.3103
     41 O         -21.6362    1.8759   26.4919 O.2     1  UNL1       -0.4421
     42 C         -26.1419    3.2424   32.1409 C.3     1  UNL1        0.0404
     43 N         -24.4086    1.6419   29.1087 N.2     1  UNL1       -0.2424
     44 C         -27.8959    7.2221   34.7012 C.3     1  UNL1        0.1435
@<TRIPOS>BOND
     1     2     7    1
     2     2     1    1
     3     3     2    2
     4     4     3    1
     5     4     5    2
     6     5     6    1
     7     6     7    2
     8     8     1    1
     9     8     9    1
    10     8    12    1
    11     9    32    1
    12     9    10    1
    13    10    11    1
    14    12    11    1
    15    13    35    1
    16    14    13    1
    17    14    15    1
    18    15    18    2
    19    16    17    1
    20    16    15    1
    21    19    14    2
    22    20    21    2
    23    20    19    1
    24    21    26    1
    25    22    21    1
    26    23    22    1
    27    24    23    1
    28    24    25    1
    29    26    27    1
    30    26    13    1
    31    28    30    1
    32    29    44    1
    33    31    34    2
    34    32    33    1
    35    32    42    1
    36    34    29    2
    37    35    36    1
    38    36    43    1
    39    37    39    1
    40    37    41    1
    41    39    35    2
    42    40    36    2
    43    40    28    1
    44    41    40    1
    45    42    31    1
    46    43    33    2
    47    44    38    1
