@<TRIPOS>MOLECULE
No_39-gen_results/8p0m/2024-11-27-11-27-31/
 16 17 0 0 0
SMALL
GASTEIGER

@<TRIPOS>ATOM
      1 C         -28.0162   -0.8135   28.8779 C.ar    1  UNL1        0.0002
      2 C         -27.0636   -0.1189   28.6079 C.ar    1  UNL1        0.0001
      3 C         -27.0010    0.6913   27.4910 C.ar    1  UNL1        0.0002
      4 C         -28.1373    0.7363   26.6350 C.ar    1  UNL1        0.0066
      5 C         -29.2360    0.0765   27.0690 C.ar    1  UNL1        0.0798
      6 C         -30.3815    0.2048   26.2662 C.2     1  UNL1        0.3878
      7 C         -29.1803   -0.6422   28.1830 C.ar    1  UNL1        0.0066
      8 O         -30.4107   -0.0071   25.0540 O.co2   1  UNL1       -0.2406
      9 O         -31.5922   -0.0313   26.9144 O.co2   1  UNL1       -0.2406
     10 C         -25.6884   -0.2025   29.4108 C.ar    1  UNL1        0.0032
     11 C         -25.3326   -0.9020   30.0369 C.ar    1  UNL1        0.0002
     12 C         -24.1700   -1.0489   30.5771 C.ar    1  UNL1        0.0033
     13 C         -23.1255   -0.0619   30.3955 C.ar    1  UNL1        0.0420
     14 C         -23.5279    0.9509   29.5079 C.ar    1  UNL1        0.1957
     15 C         -24.8268    0.9576   28.9182 C.ar    1  UNL1        0.0420
     16 O         -22.6260    1.9007   29.2085 O.3     1  UNL1       -0.2866
@<TRIPOS>BOND
     1     5     6    1
     2     6     8   ar
     3     6     9   ar
     4     2    10    1
     5    14    16    1
     6     1     2   ar
     7     2     3   ar
     8     3     4   ar
     9     4     5   ar
    10     5     7   ar
    11     7     1   ar
    12    10    11   ar
    13    11    12   ar
    14    12    13   ar
    15    13    14   ar
    16    14    15   ar
    17    15    10   ar
