@<TRIPOS>MOLECULE
No_390-gen_results/8p0m/2024-11-27-11-27-31/
 14 15 0 0 0
SMALL
GASTEIGER

@<TRIPOS>ATOM
      1 O         -28.1229   -1.3353   28.4874 O.2     1  UNL1       -0.2699
      2 C         -27.4806   -0.4044   28.7094 C.2     1  UNL1        0.2490
      3 C         -27.1904    0.2460   29.5268 C.ar    1  UNL1        0.0536
      4 N         -26.6871   -0.0001   27.4423 N.am    1  UNL1       -0.2761
      5 C         -27.6511    0.1259   30.8799 C.ar    1  UNL1        0.0045
      6 C         -26.8881   -0.4289   26.2603 C.3     1  UNL1        0.0937
      7 C         -26.1307    1.4289   29.5753 C.ar    1  UNL1        0.0045
      8 C         -25.7966    2.1228   30.6259 C.ar    1  UNL1        0.0001
      9 C         -27.3474    0.8949   32.0677 C.ar    1  UNL1        0.0001
     10 C         -26.4021    1.9011   31.9237 C.ar    1  UNL1        0.0000
     11 C         -26.0215    0.4085   25.3136 C.3     1  UNL1        0.0216
     12 C         -24.9012    1.0729   25.7406 C.3     1  UNL1        0.0035
     13 C         -24.6896    1.2635   27.0312 C.3     1  UNL1        0.0216
     14 C         -25.5711    0.7666   27.9376 C.3     1  UNL1        0.0937
@<TRIPOS>BOND
     1     1     2    2
     2     2     3    1
     3     2     4   am
     4     4     6    1
     5    11    12    1
     6     4    14    1
     7    13    14    1
     8     6    11    1
     9    12    13    1
    10     3     5   ar
    11     5     9   ar
    12     9    10   ar
    13    10     8   ar
    14     8     7   ar
    15     7     3   ar
