@<TRIPOS>MOLECULE
No_3900-gen_results/8p0m/2024-11-27-11-27-31/
 29 31 0 0 0
SMALL
GASTEIGER

@<TRIPOS>ATOM
      1 C         -28.0162   -0.8135   28.8779 C.3     1  UNL1        0.1691
      2 C         -27.0636   -0.1190   28.6079 C.ar    1  UNL1        0.0117
      3 C         -27.0010    0.6913   27.4910 C.ar    1  UNL1        0.0536
      4 C         -25.8548    1.4825   27.0830 C.ar    1  UNL1        0.0089
      5 C         -24.6901    1.4526   27.8807 C.ar    1  UNL1        0.0568
      6 C         -24.7379    0.6010   29.0416 C.ar    1  UNL1        0.0044
      7 C         -25.8234   -0.1688   29.3887 C.ar    1  UNL1       -0.0016
      8 O         -28.6636   -0.5451   29.9829 O.3     1  UNL1       -0.3467
      9 C         -23.5123    2.1944   27.5723 C.2     1  UNL1        0.2842
     10 N         -22.9761    2.2481   26.3046 N.am    1  UNL1       -0.0837
     11 O         -22.6515    2.5210   28.4895 O.2     1  UNL1       -0.2667
     12 C         -29.6300   -1.3235   30.5068 C.3     1  UNL1        0.1449
     13 C         -30.1268   -1.0703   31.8586 C.2     1  UNL1       -0.0013
     14 C         -30.8835   -1.8872   32.4368 C.2     1  UNL1       -0.0278
     15 C         -29.7901   -2.6631   30.8579 C.3     1  UNL1        0.1005
     16 C         -29.2342   -3.5555   29.7372 C.2     1  UNL1        0.2101
     17 C         -30.4012   -3.1570   31.8881 C.3     1  UNL1        0.0364
     18 O         -29.6503   -4.7852   29.7512 O.2     1  UNL1       -0.2882
     19 C         -28.1406    0.7608   26.6002 C.2     1  UNL1        0.2646
     20 N         -27.9723    0.5738   25.4000 N.am    1  UNL1       -0.2013
     21 O         -29.2911    0.8494   27.0579 O.2     1  UNL1       -0.2684
     22 C         -29.0140    0.4864   24.3681 C.3     1  UNL1        0.1201
     23 C         -29.4678   -0.7746   24.2437 C.3     1  UNL1        0.0498
     24 C         -30.6790   -1.0959   24.9107 C.ar    1  UNL1       -0.0204
     25 C         -31.5720   -1.4532   24.5876 C.ar    1  UNL1       -0.0042
     26 C         -32.8051   -1.5775   25.1549 C.ar    1  UNL1       -0.0003
     27 C         -32.8578   -1.3973   26.5488 C.ar    1  UNL1       -0.0000
     28 C         -31.6546   -0.9708   27.1319 C.ar    1  UNL1       -0.0003
     29 C         -30.5879   -0.7435   26.4000 C.ar    1  UNL1       -0.0042
@<TRIPOS>BOND
     1     1     2    1
     2     1     8    1
     3     5     9    1
     4     9    10   am
     5     9    11    2
     6     8    12    1
     7    12    13    1
     8    13    14    2
     9    12    15    1
    10    15    16    1
    11    14    17    1
    12    15    17    1
    13    16    18    2
    14     3    19    1
    15    19    20   am
    16    19    21    2
    17    20    22    1
    18    22    23    1
    19    23    24    1
    20     2     3   ar
    21     3     4   ar
    22     4     5   ar
    23     5     6   ar
    24     6     7   ar
    25     7     2   ar
    26    24    25   ar
    27    25    26   ar
    28    26    27   ar
    29    27    28   ar
    30    28    29   ar
    31    29    24   ar
