@<TRIPOS>MOLECULE
outputs/IAG933/test6/raw/output_3901_IAG933_linker_design_.xyz
 44 48 0 0 0
SMALL
GASTEIGER

@<TRIPOS>ATOM
      1 C         -24.8550   -1.0120   30.1430 C.3     1  UNL1        0.0649
      2 C         -24.9730   -2.5050   29.7880 C.2     1  UNL1       -0.0189
      3 C         -23.9060   -3.1730   29.1460 C.2     1  UNL1       -0.0042
      4 C         -23.9890   -4.5490   28.8530 C.2     1  UNL1       -0.0003
      5 C         -25.1370   -5.2800   29.2050 C.2     1  UNL1       -0.0000
      6 C         -26.2320   -4.6110   29.7840 C.2     1  UNL1       -0.0003
      7 C         -26.1550   -3.2320   30.0650 C.2     1  UNL1       -0.0042
      8 C         -25.3870   -0.6790   31.5710 C.3     1  UNL1        0.0790
      9 C         -25.1890    0.7730   32.0280 C.3     1  UNL1        0.0193
     10 C         -25.3360    0.6840   33.5440 C.3     1  UNL1        0.0202
     11 C         -24.8290   -0.7150   33.9050 C.3     1  UNL1        0.0887
     12 N         -24.7580   -1.4810   32.6460 N.3     1  UNL1       -0.2191
     13 C         -25.6880    1.6140   26.4610 C.2     1  UNL1        0.1085
     14 C         -26.2500    2.9200   26.3950 C.2     1  UNL1        0.0918
     15 C         -25.6420    4.0930   27.1230 C.2     1  UNL1        0.2677
     16 N         -25.6140    5.2520   26.4490 N.am    1  UNL1       -0.1997
     17 C         -25.0260    6.4790   26.9630 C.3     1  UNL1        0.1388
     18 O         -25.1430    3.9660   28.2430 O.2     1  UNL1       -0.2683
     19 C         -27.4380    3.0910   25.6450 C.2     1  UNL1        0.1080
     20 N         -28.0750    2.0890   25.0030 N.2     1  UNL1       -0.2080
     21 C         -27.5430    0.8490   25.0790 C.2     1  UNL1        0.2546
     22 O         -28.1930   -0.2080   24.4770 O.2     1  UNL1       -0.4558
     23 C         -29.4600    0.0050   23.8660 C.3     1  UNL1        0.2426
     24 C         -30.0650   -1.3770   23.5730 C.3     1  UNL1        0.2292
     25 O         -30.7290   -1.8780   24.7210 O.3     1  UNL1       -0.2162
     26 C         -26.3540    0.5760   25.7770 C.2     1  UNL1        0.2082
     27 F         -25.8600   -0.6810   25.7950 F       1  UNL1       -0.1978
     28 C         -24.7362    0.1083   29.1844 C.3     1  UNL1        0.1314
     29 C         -23.5768    1.1725   27.4268 C.2     1  UNL1        0.1140
     30 C         -29.7045    1.5998   28.2695 C.3     1  UNL1        0.0059
     31 N         -25.9386    0.9889   29.0132 N.2     1  UNL1       -0.2761
     32 C         -29.9135    0.2272   27.7495 C.3     1  UNL1        0.0008
     33 N         -24.4889    1.3700   27.1903 N.pl3   1  UNL1       -0.2061
     34 C         -27.3548    0.6369   28.6808 C.2     1  UNL1        0.0318
     35 CL        -22.7836    2.9330   25.4232 Cl      1  UNL1       -0.0412
     36 C         -28.3318    1.8194   28.7887 C.3     1  UNL1        0.0409
     37 C         -21.2683    0.4822   28.0602 C.2     1  UNL1        0.1465
     38 C         -22.5609    1.7541   26.6737 C.2     1  UNL1        0.2179
     39 O         -21.3003    1.3533   26.9618 O.2     1  UNL1       -0.4410
     40 C         -27.8857   -0.7768   28.7722 C.3     1  UNL1        0.0409
     41 C         -23.4980    0.3935   28.4961 C.2     1  UNL1        0.0223
     42 C         -29.3980   -0.8328   28.7055 C.3     1  UNL1        0.0059
     43 C         -20.0248   -0.0272   28.2952 C.2     1  UNL1        0.0407
     44 C         -22.2724    0.0220   28.9248 C.2     1  UNL1        0.0366
@<TRIPOS>BOND
     1     1    28    1
     2     2     7    1
     3     2     1    1
     4     3     2    2
     5     4     3    1
     6     4     5    2
     7     5     6    1
     8     6     7    2
     9     8     1    1
    10     8     9    1
    11     8    12    1
    12     9    10    1
    13    10    11    1
    14    12    11    1
    15    13    33    1
    16    14    13    1
    17    14    15    1
    18    15    18    2
    19    16    17    1
    20    16    15    1
    21    19    14    2
    22    20    21    2
    23    20    19    1
    24    21    26    1
    25    22    21    1
    26    23    22    1
    27    24    23    1
    28    24    25    1
    29    26    27    1
    30    26    13    2
    31    28    31    1
    32    29    41    1
    33    30    36    1
    34    32    30    1
    35    32    42    1
    36    33    29    1
    37    34    40    1
    38    34    36    1
    39    34    31    2
    40    35    38    1
    41    37    43    2
    42    37    44    1
    43    38    39    1
    44    38    29    2
    45    39    37    1
    46    41    44    2
    47    41    28    1
    48    42    40    1
