@<TRIPOS>MOLECULE
outputs/IAG933/test6/raw/output_3903_IAG933_linker_design_.xyz
 44 46 0 0 0
SMALL
GASTEIGER

@<TRIPOS>ATOM
      1 C         -24.8550   -1.0120   30.1430 C.3     1  UNL1        0.0591
      2 C         -24.9730   -2.5050   29.7880 C.2     1  UNL1       -0.0194
      3 C         -23.9060   -3.1730   29.1460 C.2     1  UNL1       -0.0042
      4 C         -23.9890   -4.5490   28.8530 C.2     1  UNL1       -0.0003
      5 C         -25.1370   -5.2800   29.2050 C.2     1  UNL1       -0.0000
      6 C         -26.2320   -4.6110   29.7840 C.2     1  UNL1       -0.0003
      7 C         -26.1550   -3.2320   30.0650 C.2     1  UNL1       -0.0042
      8 C         -25.3870   -0.6790   31.5710 C.3     1  UNL1        0.0785
      9 C         -25.1890    0.7730   32.0280 C.3     1  UNL1        0.0192
     10 C         -25.3360    0.6840   33.5440 C.3     1  UNL1        0.0202
     11 C         -24.8290   -0.7150   33.9050 C.3     1  UNL1        0.0887
     12 N         -24.7580   -1.4810   32.6460 N.3     1  UNL1       -0.2191
     13 C         -25.6880    1.6140   26.4610 C.3     1  UNL1        0.1175
     14 C         -26.2500    2.9200   26.3950 C.2     1  UNL1        0.0649
     15 C         -25.6420    4.0930   27.1230 C.2     1  UNL1        0.2633
     16 N         -25.6140    5.2520   26.4490 N.am    1  UNL1       -0.2000
     17 C         -25.0260    6.4790   26.9630 C.3     1  UNL1        0.1388
     18 O         -25.1430    3.9660   28.2430 O.2     1  UNL1       -0.2686
     19 C         -27.4380    3.0910   25.6450 C.2     1  UNL1        0.1030
     20 N         -28.0750    2.0890   25.0030 N.2     1  UNL1       -0.2118
     21 C         -27.5430    0.8490   25.0790 C.2     1  UNL1        0.2350
     22 O         -28.1930   -0.2080   24.4770 O.2     1  UNL1       -0.4585
     23 C         -29.4600    0.0050   23.8660 C.3     1  UNL1        0.2423
     24 C         -30.0650   -1.3770   23.5730 C.3     1  UNL1        0.2292
     25 O         -30.7290   -1.8780   24.7210 O.3     1  UNL1       -0.2162
     26 C         -26.3540    0.5760   25.7770 C.3     1  UNL1        0.2499
     27 F         -25.8600   -0.6810   25.7950 F       1  UNL1       -0.2260
     28 C         -23.9022    0.9358   28.3432 C.3     1  UNL1        0.0683
     29 N         -26.0565    0.9213   29.3430 N.am    1  UNL1       -0.2048
     30 S         -23.9829    1.3352   26.5637 S.3     1  UNL1       -0.1322
     31 C         -22.5054    0.4588   28.7602 C.3     1  UNL1        0.0125
     32 C         -27.2899    0.4740   29.1322 C.2     1  UNL1        0.2572
     33 C         -32.2001    1.5943   28.3757 C.3     1  UNL1        0.1092
     34 C         -21.4652    1.2653   27.9264 C.3     1  UNL1        0.0010
     35 C         -28.0093    2.4007   30.4130 C.3     1  UNL1        0.0287
     36 C         -24.9853    0.0308   28.9808 C.3     1  UNL1        0.1105
     37 C         -32.9567    2.6995   28.2844 C.3     1  UNL1        0.1280
     38 N         -29.3265    1.5369   28.4513 N.3     1  UNL1       -0.2087
     39 C         -30.8685    0.4364   26.8440 C.3     1  UNL1        0.1075
     40 N         -32.2163    3.7815   27.6901 N.3     1  UNL1       -0.1298
     41 C         -28.2468    1.4491   29.3162 C.3     1  UNL1        0.1505
     42 C         -29.7409    0.2624   27.8586 C.3     1  UNL1        0.1080
     43 N         -31.7477    1.5053   27.1735 N.3     1  UNL1       -0.2150
     44 O         -27.6239   -0.7366   28.8804 O.2     1  UNL1       -0.2718
@<TRIPOS>BOND
     1     1    36    1
     2     2     7    1
     3     2     1    1
     4     3     2    2
     5     4     3    1
     6     4     5    2
     7     5     6    1
     8     6     7    2
     9     8     1    1
    10     8     9    1
    11     8    12    1
    12     9    10    1
    13    10    11    1
    14    12    11    1
    15    13    30    1
    16    14    13    1
    17    14    15    1
    18    15    18    2
    19    16    17    1
    20    16    15    1
    21    19    14    2
    22    20    21    2
    23    20    19    1
    24    21    26    1
    25    22    21    1
    26    23    22    1
    27    24    23    1
    28    24    25    1
    29    26    27    1
    30    26    13    1
    31    28    31    1
    32    28    36    1
    33    30    28    1
    34    32    41    1
    35    32    29    1
    36    34    31    1
    37    36    29    1
    38    37    33    1
    39    38    41    1
    40    39    43    1
    41    39    42    1
    42    40    37    1
    43    41    35    1
    44    42    38    1
    45    43    33    1
    46    44    32    2
