@<TRIPOS>MOLECULE
outputs/IAG933/test6/raw/output_3905_IAG933_linker_design_.xyz
 45 50 0 0 0
SMALL
GASTEIGER

@<TRIPOS>ATOM
      1 C         -24.8550   -1.0120   30.1430 C.3     1  UNL1        0.0571
      2 C         -24.9730   -2.5050   29.7880 C.2     1  UNL1       -0.0195
      3 C         -23.9060   -3.1730   29.1460 C.2     1  UNL1       -0.0042
      4 C         -23.9890   -4.5490   28.8530 C.2     1  UNL1       -0.0003
      5 C         -25.1370   -5.2800   29.2050 C.2     1  UNL1       -0.0000
      6 C         -26.2320   -4.6110   29.7840 C.2     1  UNL1       -0.0003
      7 C         -26.1550   -3.2320   30.0650 C.2     1  UNL1       -0.0042
      8 C         -25.3870   -0.6790   31.5710 C.3     1  UNL1        0.0784
      9 C         -25.1890    0.7730   32.0280 C.3     1  UNL1        0.0192
     10 C         -25.3360    0.6840   33.5440 C.3     1  UNL1        0.0202
     11 C         -24.8290   -0.7150   33.9050 C.3     1  UNL1        0.0887
     12 N         -24.7580   -1.4810   32.6460 N.3     1  UNL1       -0.2191
     13 C         -25.6880    1.6140   26.4610 C.2     1  UNL1        0.0354
     14 C         -26.2500    2.9200   26.3950 C.2     1  UNL1        0.0763
     15 C         -25.6420    4.0930   27.1230 C.2     1  UNL1        0.2664
     16 N         -25.6140    5.2520   26.4490 N.am    1  UNL1       -0.1997
     17 C         -25.0260    6.4790   26.9630 C.3     1  UNL1        0.1388
     18 O         -25.1430    3.9660   28.2430 O.2     1  UNL1       -0.2683
     19 C         -27.4380    3.0910   25.6450 C.2     1  UNL1        0.1067
     20 N         -28.0750    2.0890   25.0030 N.2     1  UNL1       -0.2081
     21 C         -27.5430    0.8490   25.0790 C.2     1  UNL1        0.2533
     22 O         -28.1930   -0.2080   24.4770 O.2     1  UNL1       -0.4558
     23 C         -29.4600    0.0050   23.8660 C.3     1  UNL1        0.2426
     24 C         -30.0650   -1.3770   23.5730 C.3     1  UNL1        0.2292
     25 O         -30.7290   -1.8780   24.7210 O.3     1  UNL1       -0.2162
     26 C         -26.3540    0.5760   25.7770 C.2     1  UNL1        0.1928
     27 F         -25.8600   -0.6810   25.7950 F       1  UNL1       -0.1992
     28 C         -28.5639    2.3640   30.4291 C.2     1  UNL1       -0.0111
     29 C         -27.8018    0.3446   29.3303 C.3     1  UNL1        0.0954
     30 C         -24.3925    1.2805   27.1332 C.2     1  UNL1       -0.0015
     31 F         -21.0163    1.7473   27.7426 F       1  UNL1       -0.2036
     32 C         -25.5058   -0.0303   29.1092 C.3     1  UNL1        0.0862
     33 CL        -22.6383    2.2958   25.1021 Cl      1  UNL1       -0.0802
     34 C         -27.1762    2.3979   30.3853 C.2     1  UNL1        0.0435
     35 C         -26.5318    3.4814   31.0171 C.2     1  UNL1        0.0142
     36 C         -22.3086    1.2873   27.7040 C.2     1  UNL1        0.1464
     37 C         -28.6932    4.4447   31.7739 C.2     1  UNL1       -0.0045
     38 C         -29.0556    1.1994   29.6077 C.3     1  UNL1        0.0487
     39 N         -26.5311    1.2029   29.6125 N.pl3   1  UNL1       -0.3080
     40 C         -27.2632    4.5024   31.7045 C.2     1  UNL1        0.0009
     41 C         -24.3006    0.5964   28.2294 C.3     1  UNL1        0.0660
     42 C         -30.8718    3.4311   31.0222 C.3     1  UNL1        0.0307
     43 C         -29.3395    3.3802   31.0878 C.2     1  UNL1       -0.0246
     44 C         -23.1441    1.6787   26.5773 C.2     1  UNL1        0.0812
     45 C         -22.9435    0.6242   28.6362 C.2     1  UNL1        0.0101
@<TRIPOS>BOND
     1     1    32    1
     2     2     7    1
     3     2     1    1
     4     3     2    2
     5     4     3    1
     6     4     5    2
     7     5     6    1
     8     6     7    2
     9     8     1    1
    10     8     9    1
    11     8    12    1
    12     9    10    1
    13    10    11    1
    14    12    11    1
    15    13    30    1
    16    14    13    1
    17    14    15    1
    18    15    18    2
    19    16    17    1
    20    16    15    1
    21    19    14    2
    22    20    21    2
    23    20    19    1
    24    21    26    1
    25    22    21    1
    26    23    22    1
    27    24    23    1
    28    24    25    1
    29    26    27    1
    30    26    13    2
    31    28    43    1
    32    29    38    1
    33    29    39    1
    34    30    41    1
    35    32    39    1
    36    33    44    1
    37    34    28    2
    38    34    35    1
    39    35    40    2
    40    36    31    1
    41    36    45    2
    42    38    28    1
    43    39    34    1
    44    40    37    1
    45    41    45    1
    46    41    32    1
    47    42    43    1
    48    43    37    2
    49    44    30    2
    50    44    36    1
