@<TRIPOS>MOLECULE
No_3907-gen_results/8p0m/2024-11-27-11-27-31/
 22 23 0 0 0
SMALL
GASTEIGER

@<TRIPOS>ATOM
      1 C         -28.0162   -0.8135   28.8779 C.ar    1  UNL1        0.0045
      2 C         -27.0636   -0.1189   28.6079 C.ar    1  UNL1        0.0001
      3 C         -27.0010    0.6913   27.4910 C.ar    1  UNL1        0.0000
      4 C         -27.1778    1.9037   27.5632 C.ar    1  UNL1        0.0000
      5 C         -28.0594   -1.3960   30.2136 C.ar    1  UNL1        0.0545
      6 C         -26.8947   -1.6080   30.9179 C.ar    1  UNL1        0.0045
      7 C         -25.7839   -0.2253   29.3757 C.ar    1  UNL1        0.0000
      8 C         -25.7520   -0.9581   30.5316 C.ar    1  UNL1        0.0001
      9 C         -27.1170    2.7946   26.3619 C.ar    1  UNL1        0.0000
     10 C         -26.8513    2.2095   25.1238 C.ar    1  UNL1        0.0000
     11 C         -26.6683    0.1690   26.1643 C.ar    1  UNL1        0.0000
     12 C         -26.6112    0.9191   25.0364 C.ar    1  UNL1        0.0000
     13 C         -29.2899   -2.1784   30.6429 C.2     1  UNL1        0.2596
     14 O         -30.2495   -1.7246   30.8106 O.2     1  UNL1       -0.2690
     15 N         -29.0958   -3.5611   30.7897 N.am    1  UNL1       -0.2132
     16 C         -30.2078   -4.4378   31.0741 C.1     1  UNL1        0.0114
     17 C         -27.8536   -4.2986   30.5195 C.3     1  UNL1        0.1306
     18 C         -30.6753   -5.3329   31.2800 C.1     1  UNL1       -0.0436
     19 C         -29.9321   -6.3903   31.9724 C.2     1  UNL1        0.0508
     20 C         -30.4748   -7.7975   32.0568 C.2     1  UNL1        0.0089
     21 C         -31.6163   -8.0239   31.3424 C.2     1  UNL1        0.0006
     22 C         -32.2928   -7.0497   30.6234 C.2     1  UNL1        0.0000
@<TRIPOS>BOND
     1     2     3    1
     2     5    13    1
     3    13    14    2
     4    13    15   am
     5    15    16    1
     6    15    17    1
     7    16    18    3
     8    18    19    1
     9    19    20    2
    10    20    21    1
    11    21    22    2
    12     1     2   ar
    13     2     7   ar
    14     7     8   ar
    15     8     6   ar
    16     6     5   ar
    17     5     1   ar
    18     3     4   ar
    19     4     9   ar
    20     9    10   ar
    21    10    12   ar
    22    12    11   ar
    23    11     3   ar
