@<TRIPOS>MOLECULE
outputs/IAG933/test6/raw/output_391_IAG933_linker_design_.xyz
 41 45 0 0 0
SMALL
GASTEIGER

@<TRIPOS>ATOM
      1 C         -24.8550   -1.0120   30.1430 C.3     1  UNL1        0.0965
      2 C         -24.9730   -2.5050   29.7880 C.2     1  UNL1       -0.0064
      3 C         -23.9060   -3.1730   29.1460 C.2     1  UNL1       -0.0029
      4 C         -23.9890   -4.5490   28.8530 C.2     1  UNL1       -0.0003
      5 C         -25.1370   -5.2800   29.2050 C.2     1  UNL1       -0.0000
      6 C         -26.2320   -4.6110   29.7840 C.2     1  UNL1       -0.0003
      7 C         -26.1550   -3.2320   30.0650 C.2     1  UNL1       -0.0029
      8 C         -25.3870   -0.6790   31.5710 C.3     1  UNL1        0.0916
      9 C         -25.1890    0.7730   32.0280 C.3     1  UNL1        0.0206
     10 C         -25.3360    0.6840   33.5440 C.3     1  UNL1        0.0203
     11 C         -24.8290   -0.7150   33.9050 C.3     1  UNL1        0.0888
     12 N         -24.7580   -1.4810   32.6460 N.3     1  UNL1       -0.2178
     13 C         -25.6880    1.6140   26.4610 C.2     1  UNL1        0.0195
     14 C         -26.2500    2.9200   26.3950 C.2     1  UNL1        0.0727
     15 C         -25.6420    4.0930   27.1230 C.2     1  UNL1        0.2661
     16 N         -25.6140    5.2520   26.4490 N.am    1  UNL1       -0.1997
     17 C         -25.0260    6.4790   26.9630 C.3     1  UNL1        0.1388
     18 O         -25.1430    3.9660   28.2430 O.2     1  UNL1       -0.2683
     19 C         -27.4380    3.0910   25.6450 C.2     1  UNL1        0.1064
     20 N         -28.0750    2.0890   25.0030 N.2     1  UNL1       -0.2081
     21 C         -27.5430    0.8490   25.0790 C.2     1  UNL1        0.2530
     22 O         -28.1930   -0.2080   24.4770 O.2     1  UNL1       -0.4558
     23 C         -29.4600    0.0050   23.8660 C.3     1  UNL1        0.2426
     24 C         -30.0650   -1.3770   23.5730 C.3     1  UNL1        0.2292
     25 O         -30.7290   -1.8780   24.7210 O.3     1  UNL1       -0.2162
     26 C         -26.3540    0.5760   25.7770 C.2     1  UNL1        0.1892
     27 F         -25.8600   -0.6810   25.7950 F       1  UNL1       -0.1996
     28 C         -27.3547    2.0335   29.5375 C.2     1  UNL1       -0.0029
     29 C         -28.5479    2.7797   29.4505 C.2     1  UNL1       -0.0003
     30 N         -24.6961    0.1039   29.1962 N.3     1  UNL1       -0.2653
     31 C         -29.7317    0.8975   28.4530 C.2     1  UNL1       -0.0003
     32 C         -22.7083    1.8546   26.8262 C.3     1  UNL1        0.2044
     33 F         -21.2621    1.3991   26.7765 F       1  UNL1       -0.2231
     34 C         -29.7016    2.2322   28.8879 C.2     1  UNL1       -0.0000
     35 CL        -22.8817    2.7596   25.3443 Cl      1  UNL1       -0.0801
     36 C         -27.3219    0.7328   28.9811 C.2     1  UNL1       -0.0061
     37 C         -26.0715    0.0398   28.6641 C.3     1  UNL1        0.0994
     38 C         -23.3072    0.5759   27.0760 C.3     1  UNL1        0.0688
     39 C         -23.2737    0.2522   28.6292 C.3     1  UNL1        0.0770
     40 C         -24.3747    1.3660   26.9694 C.3     1  UNL1        0.0746
     41 C         -28.5467    0.1371   28.5899 C.2     1  UNL1       -0.0029
@<TRIPOS>BOND
     1     1    30    1
     2     2     7    1
     3     2     1    1
     4     3     2    2
     5     4     3    1
     6     4     5    2
     7     5     6    1
     8     6     7    2
     9     8     1    1
    10     8     9    1
    11     8    12    1
    12     9    10    1
    13    10    11    1
    14    12    11    1
    15    14    13    1
    16    14    15    1
    17    15    18    2
    18    16    17    1
    19    16    15    1
    20    19    14    2
    21    20    21    2
    22    20    19    1
    23    21    26    1
    24    22    21    1
    25    23    22    1
    26    24    23    1
    27    24    25    1
    28    26    27    1
    29    26    13    2
    30    29    28    1
    31    31    41    2
    32    31    34    1
    33    32    35    1
    34    32    40    1
    35    32    38    1
    36    33    32    1
    37    34    29    2
    38    36    28    2
    39    37    36    1
    40    37    30    1
    41    38    39    1
    42    39    30    1
    43    40    13    1
    44    40    38    1
    45    41    36    1
