@<TRIPOS>MOLECULE
outputs/IAG933/test6/raw/output_3910_IAG933_linker_design_.xyz
 40 42 0 0 0
SMALL
GASTEIGER

@<TRIPOS>ATOM
      1 C         -24.8550   -1.0120   30.1430 C.3     1  UNL1        0.0619
      2 C         -24.9730   -2.5050   29.7880 C.2     1  UNL1       -0.0193
      3 C         -23.9060   -3.1730   29.1460 C.2     1  UNL1       -0.0042
      4 C         -23.9890   -4.5490   28.8530 C.2     1  UNL1       -0.0003
      5 C         -25.1370   -5.2800   29.2050 C.2     1  UNL1       -0.0000
      6 C         -26.2320   -4.6110   29.7840 C.2     1  UNL1       -0.0003
      7 C         -26.1550   -3.2320   30.0650 C.2     1  UNL1       -0.0042
      8 C         -25.3870   -0.6790   31.5710 C.3     1  UNL1        0.0786
      9 C         -25.1890    0.7730   32.0280 C.3     1  UNL1        0.0193
     10 C         -25.3360    0.6840   33.5440 C.3     1  UNL1        0.0202
     11 C         -24.8290   -0.7150   33.9050 C.3     1  UNL1        0.0887
     12 N         -24.7580   -1.4810   32.6460 N.3     1  UNL1       -0.2191
     13 C         -25.6880    1.6140   26.4610 C.3     1  UNL1        0.1290
     14 C         -26.2500    2.9200   26.3950 C.2     1  UNL1        0.0696
     15 C         -25.6420    4.0930   27.1230 C.2     1  UNL1        0.2637
     16 N         -25.6140    5.2520   26.4490 N.am    1  UNL1       -0.2000
     17 C         -25.0260    6.4790   26.9630 C.3     1  UNL1        0.1388
     18 O         -25.1430    3.9660   28.2430 O.2     1  UNL1       -0.2686
     19 C         -27.4380    3.0910   25.6450 C.2     1  UNL1        0.1035
     20 N         -28.0750    2.0890   25.0030 N.2     1  UNL1       -0.2118
     21 C         -27.5430    0.8490   25.0790 C.2     1  UNL1        0.2355
     22 O         -28.1930   -0.2080   24.4770 O.2     1  UNL1       -0.4585
     23 C         -29.4600    0.0050   23.8660 C.3     1  UNL1        0.2423
     24 C         -30.0650   -1.3770   23.5730 C.3     1  UNL1        0.2292
     25 O         -30.7290   -1.8780   24.7210 O.3     1  UNL1       -0.2162
     26 C         -26.3540    0.5760   25.7770 C.3     1  UNL1        0.2546
     27 F         -25.8600   -0.6810   25.7950 F       1  UNL1       -0.2254
     28 N         -27.0395    1.2546   29.9161 N.am    1  UNL1       -0.1436
     29 C         -29.4549    1.8361   29.5828 C.3     1  UNL1        0.0969
     30 C         -22.4394    1.2731   28.0972 C.2     1  UNL1        0.3248
     31 F         -21.2407    1.5825   27.4860 F       1  UNL1       -0.1621
     32 C         -23.4687    1.3519   27.0696 C.3     1  UNL1        0.1503
     33 C         -28.3070    1.4150   30.4461 C.2     1  UNL1        0.2484
     34 C         -23.2167    2.1984   25.7491 C.3     1  UNL1        0.0284
     35 O         -28.5884    1.1536   31.6251 O.2     1  UNL1       -0.2729
     36 O         -27.4781   -0.6389   28.6419 O.2     1  UNL1       -0.2714
     37 C         -25.1395    0.0415   28.8293 C.3     1  UNL1        0.1429
     38 N         -24.7802    0.9629   27.5194 N.3     1  UNL1       -0.2538
     39 O         -22.5126    1.0108   29.2654 O.2     1  UNL1       -0.2576
     40 C         -26.6662    0.2167   29.0602 C.2     1  UNL1        0.2628
@<TRIPOS>BOND
     1     1    37    1
     2     2     7    1
     3     2     1    1
     4     3     2    2
     5     4     3    1
     6     4     5    2
     7     5     6    1
     8     6     7    2
     9     8     1    1
    10     8     9    1
    11     8    12    1
    12     9    10    1
    13    10    11    1
    14    12    11    1
    15    13    38    1
    16    14    13    1
    17    14    15    1
    18    15    18    2
    19    16    17    1
    20    16    15    1
    21    19    14    2
    22    20    21    2
    23    20    19    1
    24    21    26    1
    25    22    21    1
    26    23    22    1
    27    24    23    1
    28    24    25    1
    29    26    27    1
    30    26    13    1
    31    28    33    1
    32    29    33    1
    33    30    39    2
    34    31    30    1
    35    32    34    1
    36    32    38    1
    37    32    30    1
    38    33    35    2
    39    36    40    2
    40    37    40    1
    41    38    37    1
    42    40    28    1
