@<TRIPOS>MOLECULE
No_3913-gen_results/8p0m/2024-11-27-11-27-31/
 18 21 0 0 0
SMALL
GASTEIGER

@<TRIPOS>ATOM
      1 C         -28.0162   -0.8135   28.8779 C.ar    1  UNL1        0.0206
      2 C         -27.0636   -0.1190   28.6079 C.ar    1  UNL1        0.0988
      3 C         -25.7923   -0.4302   29.0761 C.ar    1  UNL1        0.1612
      4 C         -25.5756   -1.5654   29.9363 C.ar    1  UNL1        0.0390
      5 C         -26.7354   -2.3004   30.2173 C.ar    1  UNL1        0.0032
      6 C         -27.9184   -1.9537   29.7629 C.ar    1  UNL1        0.0017
      7 N         -27.1059    1.0338   27.8185 N.ar    1  UNL1       -0.3022
      8 C         -27.8211    1.6842   27.5015 C.ar    1  UNL1        0.0802
      9 C         -27.6759    2.7503   26.5051 C.ar    1  UNL1        0.0205
     10 C         -26.3302    2.6763   26.0288 C.ar    1  UNL1        0.0192
     11 C         -25.7902    1.5854   26.9461 C.ar    1  UNL1        0.0671
     12 C         -24.5115    1.0848   26.9512 C.ar    1  UNL1        0.0506
     13 C         -23.5259    1.9944   26.4541 C.ar    1  UNL1        0.0045
     14 C         -22.1528    1.7014   26.8107 C.ar    1  UNL1        0.0002
     15 C         -21.8694    0.8464   27.8877 C.ar    1  UNL1        0.0031
     16 C         -22.8712    0.0288   28.4418 C.ar    1  UNL1        0.0375
     17 C         -24.1250    0.1693   28.0173 C.ar    1  UNL1        0.1467
     18 O         -24.8279   -0.8177   28.1799 O.3     1  UNL1       -0.4520
@<TRIPOS>BOND
     1     2     7    1
     2     7     8   ar
     3     8     9   ar
     4     9    10   ar
     5     7    11   ar
     6    10    11   ar
     7    11    12    1
     8     3    18    1
     9    17    18    1
    10    12    13   ar
    11    13    14   ar
    12    14    15   ar
    13    15    16   ar
    14    16    17   ar
    15    17    12   ar
    16     1     2   ar
    17     2     3   ar
    18     3     4   ar
    19     4     5   ar
    20     5     6   ar
    21     6     1   ar
