@<TRIPOS>MOLECULE
outputs/IAG933/test6/raw/output_3914_IAG933_linker_design_.xyz
 41 44 0 0 0
SMALL
GASTEIGER

@<TRIPOS>ATOM
      1 C         -24.8550   -1.0120   30.1430 C.3     1  UNL1        0.0462
      2 C         -24.9730   -2.5050   29.7880 C.2     1  UNL1       -0.0207
      3 C         -23.9060   -3.1730   29.1460 C.2     1  UNL1       -0.0042
      4 C         -23.9890   -4.5490   28.8530 C.2     1  UNL1       -0.0003
      5 C         -25.1370   -5.2800   29.2050 C.2     1  UNL1       -0.0000
      6 C         -26.2320   -4.6110   29.7840 C.2     1  UNL1       -0.0003
      7 C         -26.1550   -3.2320   30.0650 C.2     1  UNL1       -0.0042
      8 C         -25.3870   -0.6790   31.5710 C.3     1  UNL1        0.1042
      9 C         -25.1890    0.7730   32.0280 C.3     1  UNL1        0.1335
     10 C         -25.3360    0.6840   33.5440 C.3     1  UNL1        0.0498
     11 C         -24.8290   -0.7150   33.9050 C.3     1  UNL1        0.0913
     12 N         -24.7580   -1.4810   32.6460 N.3     1  UNL1       -0.2166
     13 C         -25.6880    1.6140   26.4610 C.3     1  UNL1        0.0707
     14 C         -26.2500    2.9200   26.3950 C.2     1  UNL1        0.0526
     15 C         -25.6420    4.0930   27.1230 C.2     1  UNL1        0.2182
     16 N         -25.6140    5.2520   26.4490 N.2     1  UNL1       -0.2359
     17 C         -25.0260    6.4790   26.9630 C.3     1  UNL1        0.1550
     18 O         -25.1430    3.9660   28.2430 O.2     1  UNL1       -0.4537
     19 C         -27.4380    3.0910   25.6450 C.2     1  UNL1        0.1022
     20 N         -28.0750    2.0890   25.0030 N.2     1  UNL1       -0.2119
     21 C         -27.5430    0.8490   25.0790 C.2     1  UNL1        0.2341
     22 O         -28.1930   -0.2080   24.4770 O.2     1  UNL1       -0.4585
     23 C         -29.4600    0.0050   23.8660 C.3     1  UNL1        0.2423
     24 C         -30.0650   -1.3770   23.5730 C.3     1  UNL1        0.2292
     25 O         -30.7290   -1.8780   24.7210 O.3     1  UNL1       -0.2162
     26 C         -26.3540    0.5760   25.7770 C.3     1  UNL1        0.2400
     27 F         -25.8600   -0.6810   25.7950 F       1  UNL1       -0.2269
     28 O         -25.8237    2.0151   31.4339 O.3     1  UNL1       -0.3453
     29 O         -23.2015    1.6388   29.9954 O.2     1  UNL1       -0.2921
     30 C         -23.7799    2.2127   29.0243 C.2     1  UNL1        0.1956
     31 O         -25.8001    5.6319   30.6888 O.co2   1  UNL1       -0.2429
     32 F         -21.5625    2.2220   26.0327 F       1  UNL1       -0.2368
     33 O         -27.4161    4.1429   30.4387 O.co2   1  UNL1       -0.2429
     34 C         -25.0394    3.0235   29.3714 C.3     1  UNL1        0.2588
     35 C         -24.4459    1.3239   26.7726 C.3     1  UNL1        0.0180
     36 C         -21.5787    0.5418   27.7311 C.3     1  UNL1        0.0385
     37 C         -21.9287    1.9813   27.3889 C.3     1  UNL1        0.1680
     38 C         -23.4235    2.1582   27.6882 C.3     1  UNL1        0.0943
     39 C         -25.2345    3.3071   30.9731 C.3     1  UNL1        0.2288
     40 C         -26.2582    4.4838   30.7029 C.2     1  UNL1        0.3925
     41 C         -24.4808    3.8406   32.2674 C.3     1  UNL1        0.0456
@<TRIPOS>BOND
     1     2     7    1
     2     2     1    1
     3     3     2    2
     4     4     3    1
     5     4     5    2
     6     5     6    1
     7     6     7    2
     8     8     1    1
     9     8     9    1
    10     8    12    1
    11     9    28    1
    12     9    10    1
    13    10    11    1
    14    12    11    1
    15    13    35    1
    16    14    13    1
    17    14    15    1
    18    15    18    1
    19    16    17    1
    20    16    15    2
    21    18    34    1
    22    19    14    2
    23    20    21    2
    24    20    19    1
    25    21    26    1
    26    22    21    1
    27    23    22    1
    28    24    23    1
    29    24    25    1
    30    26    27    1
    31    26    13    1
    32    30    34    1
    33    30    29    2
    34    31    40   ar
    35    32    37    1
    36    33    40   ar
    37    34    39    1
    38    35    38    1
    39    37    36    1
    40    38    37    1
    41    38    30    1
    42    39    28    1
    43    39    41    1
    44    40    39    1
