@<TRIPOS>MOLECULE
No_3915-gen_results/8p0m/2024-11-27-11-27-31/
 25 27 0 0 0
SMALL
GASTEIGER

@<TRIPOS>ATOM
      1 C         -28.0162   -0.8135   28.8779 C.ar    1  UNL1        0.0112
      2 C         -28.4690   -0.7850   29.8287 C.ar    1  UNL1        0.0799
      3 C         -28.1960    0.3478   28.0550 C.ar    1  UNL1        0.0556
      4 C         -29.0191    1.3501   28.3782 C.ar    1  UNL1        0.0046
      5 C         -29.4107    0.1803   30.3782 C.ar    1  UNL1        0.0066
      6 C         -29.6059    1.2495   29.6193 C.ar    1  UNL1        0.0004
      7 C         -27.3479    0.2333   26.8118 C.2     1  UNL1        0.2687
      8 N         -25.9799    0.2156   26.8765 N.am    1  UNL1       -0.1801
      9 C         -25.2260    1.1325   27.4893 C.2     1  UNL1        0.0470
     10 C         -24.3213    1.0219   28.3479 C.2     1  UNL1       -0.0108
     11 C         -23.9359   -0.1089   29.0500 C.ar    1  UNL1       -0.0008
     12 C         -22.8328   -0.1026   29.9318 C.ar    1  UNL1       -0.0001
     13 C         -25.3843    2.5126   26.9338 C.3     1  UNL1        0.0380
     14 C         -26.1201    2.9981   26.1963 C.3     1  UNL1        0.0061
     15 C         -24.3373    3.3407   27.7267 C.3     1  UNL1        0.0104
     16 C         -23.6719    2.3374   28.6469 C.3     1  UNL1        0.0277
     17 C         -24.5500   -1.3704   28.8465 C.ar    1  UNL1        0.0294
     18 C         -24.1211   -2.5105   29.5043 C.ar    1  UNL1        0.1401
     19 C         -22.4291   -1.2199   30.6662 C.ar    1  UNL1        0.0023
     20 C         -23.0477   -2.3801   30.4389 C.ar    1  UNL1        0.0296
     21 O         -27.8931    0.3607   25.7192 O.2     1  UNL1       -0.2680
     22 F         -24.6702   -3.6256   29.3100 F       1  UNL1       -0.2042
     23 C         -28.3068   -2.0167   30.9237 C.2     1  UNL1        0.3878
     24 O         -27.2739   -2.4986   30.9355 O.co2   1  UNL1       -0.2406
     25 O         -29.3379   -2.3895   31.5626 O.co2   1  UNL1       -0.2406
@<TRIPOS>BOND
     1     3     7    1
     2     7     8   am
     3     8     9    1
     4     9    10    2
     5    10    11    1
     6     9    13    1
     7    13    14    1
     8    13    15    1
     9    10    16    1
    10    15    16    1
    11     7    21    2
    12    18    22    1
    13     2    23    1
    14    23    24   ar
    15    23    25   ar
    16     1     2   ar
    17     2     5   ar
    18     5     6   ar
    19     6     4   ar
    20     4     3   ar
    21     3     1   ar
    22    11    12   ar
    23    12    19   ar
    24    19    20   ar
    25    20    18   ar
    26    18    17   ar
    27    17    11   ar
