@<TRIPOS>MOLECULE
outputs/IAG933/test6/raw/output_3916_IAG933_linker_design_.xyz
 48 51 0 0 0
SMALL
GASTEIGER

@<TRIPOS>ATOM
      1 C         -24.8550   -1.0120   30.1430 C.3     1  UNL1        0.0437
      2 C         -24.9730   -2.5050   29.7880 C.2     1  UNL1       -0.0208
      3 C         -23.9060   -3.1730   29.1460 C.2     1  UNL1       -0.0042
      4 C         -23.9890   -4.5490   28.8530 C.2     1  UNL1       -0.0003
      5 C         -25.1370   -5.2800   29.2050 C.2     1  UNL1       -0.0000
      6 C         -26.2320   -4.6110   29.7840 C.2     1  UNL1       -0.0003
      7 C         -26.1550   -3.2320   30.0650 C.2     1  UNL1       -0.0042
      8 C         -25.3870   -0.6790   31.5710 C.3     1  UNL1        0.0771
      9 C         -25.1890    0.7730   32.0280 C.3     1  UNL1        0.0180
     10 C         -25.3360    0.6840   33.5440 C.3     1  UNL1        0.0202
     11 C         -24.8290   -0.7150   33.9050 C.3     1  UNL1        0.0887
     12 N         -24.7580   -1.4810   32.6460 N.3     1  UNL1       -0.2191
     13 C         -25.6880    1.6140   26.4610 C.2     1  UNL1        0.0407
     14 C         -26.2500    2.9200   26.3950 C.2     1  UNL1        0.0745
     15 C         -25.6420    4.0930   27.1230 C.2     1  UNL1        0.2240
     16 N         -25.6140    5.2520   26.4490 N.2     1  UNL1       -0.2356
     17 C         -25.0260    6.4790   26.9630 C.3     1  UNL1        0.1550
     18 O         -25.1430    3.9660   28.2430 O.2     1  UNL1       -0.4364
     19 C         -27.4380    3.0910   25.6450 C.2     1  UNL1        0.1068
     20 N         -28.0750    2.0890   25.0030 N.2     1  UNL1       -0.2081
     21 C         -27.5430    0.8490   25.0790 C.2     1  UNL1        0.2533
     22 O         -28.1930   -0.2080   24.4770 O.2     1  UNL1       -0.4558
     23 C         -29.4600    0.0050   23.8660 C.3     1  UNL1        0.2426
     24 C         -30.0650   -1.3770   23.5730 C.3     1  UNL1        0.2292
     25 O         -30.7290   -1.8780   24.7210 O.3     1  UNL1       -0.2162
     26 C         -26.3540    0.5760   25.7770 C.2     1  UNL1        0.1931
     27 F         -25.8600   -0.6810   25.7950 F       1  UNL1       -0.1992
     28 C         -23.0297    1.4650   29.1008 C.3     1  UNL1        0.0453
     29 C         -22.7974    2.2312   26.2770 C.1     1  UNL1        0.1021
     30 C         -24.8225    5.1676   34.7079 C.3     1  UNL1        0.1741
     31 O         -26.5310    4.6746   29.8515 O.3     1  UNL1       -0.2955
     32 C         -25.8412    2.0344   31.5422 C.3     1  UNL1        0.0075
     33 C         -25.4972    3.1909   32.5102 C.3     1  UNL1        0.0003
     34 C         -27.2028    4.8949   31.0889 C.3     1  UNL1        0.2380
     35 C         -20.9941    1.4362   27.7298 C.3     1  UNL1        0.0487
     36 C         -26.6475    3.3753   33.4542 C.3     1  UNL1        0.0027
     37 C         -24.5030    1.5564   29.5444 C.3     1  UNL1        0.0099
     38 C         -22.5344    1.5369   27.6651 C.3     1  UNL1        0.2040
     39 C         -25.1697    2.5491   30.1674 C.3     1  UNL1        0.0705
     40 C         -27.4797    5.3972   34.1747 C.3     1  UNL1        0.1424
     41 N         -22.9091    2.7322   25.2536 N.1     1  UNL1       -0.1934
     42 O         -26.7521    5.9518   31.5513 O.3     1  UNL1       -0.3277
     43 O         -26.0177    5.7495   34.1807 O.3     1  UNL1       -0.3511
     44 C         -27.9220    6.7117   31.6150 C.3     1  UNL1        0.1768
     45 O         -23.1508    0.2678   27.6303 O.3     1  UNL1       -0.2103
     46 C         -27.5168    4.3370   33.2405 C.3     1  UNL1        0.0347
     47 C         -28.0586    4.3241   32.0741 C.3     1  UNL1        0.0639
     48 C         -25.6951    3.7348   29.3959 C.3     1  UNL1        0.2906
@<TRIPOS>BOND
     1     2     7    1
     2     2     1    1
     3     3     2    2
     4     4     3    1
     5     4     5    2
     6     5     6    1
     7     6     7    2
     8     8     1    1
     9     8     9    1
    10     8    12    1
    11     9    10    1
    12    10    11    1
    13    12    11    1
    14    14    13    1
    15    14    15    1
    16    15    18    1
    17    16    17    1
    18    16    15    2
    19    19    14    2
    20    20    21    2
    21    20    19    1
    22    21    26    1
    23    22    21    1
    24    23    22    1
    25    24    23    1
    26    24    25    1
    27    26    27    1
    28    26    13    2
    29    28    37    1
    30    29    38    1
    31    31    34    1
    32    32     9    1
    33    32    33    1
    34    33    36    1
    35    34    42    1
    36    34    47    1
    37    38    35    1
    38    38    28    1
    39    39    37    1
    40    39    32    1
    41    40    43    1
    42    41    29    3
    43    42    44    1
    44    43    30    1
    45    45    38    1
    46    46    36    1
    47    46    40    1
    48    47    46    1
    49    48    18    1
    50    48    31    1
    51    48    39    1
