@<TRIPOS>MOLECULE
No_3919-gen_results/8p0m/2024-11-27-11-27-31/
 17 18 0 0 0
SMALL
GASTEIGER

@<TRIPOS>ATOM
      1 O         -28.1229   -1.3353   28.4874 O.2     1  UNL1       -0.2960
      2 C         -27.0637   -0.8242   28.8687 C.2     1  UNL1        0.1512
      3 C         -25.9464   -1.0396   28.8492 C.3     1  UNL1        0.0649
      4 C         -24.7602   -0.1562   29.1644 C.3     1  UNL1        0.0123
      5 C         -25.0917    1.0791   29.6491 C.3     1  UNL1        0.0125
      6 C         -26.4090    1.4383   29.7067 C.3     1  UNL1        0.1107
      7 C         -27.3694    0.6586   29.4148 C.3     1  UNL1        0.0757
      8 C         -23.3561   -0.5639   29.1206 C.3     1  UNL1        0.0284
      9 C         -22.4322    0.2418   28.4552 C.ar    1  UNL1       -0.0030
     10 C         -21.0496   -0.0618   28.4524 C.ar    1  UNL1        0.0946
     11 C         -22.8384    1.3991   27.7363 C.ar    1  UNL1       -0.0011
     12 C         -21.8445    2.0978   26.9545 C.ar    1  UNL1        0.0204
     13 N         -20.1456    0.7412   27.9050 N.ar    1  UNL1       -0.2426
     14 C         -20.5697    1.8586   27.2040 C.ar    1  UNL1        0.0989
     15 C         -26.7003    2.8349   30.2923 C.2     1  UNL1        0.3647
     16 O         -25.9212    3.5361   30.2383 O.co2   1  UNL1       -0.2457
     17 O         -27.8776    3.0007   30.7374 O.co2   1  UNL1       -0.2457
@<TRIPOS>BOND
     1     1     2    2
     2     2     3    1
     3     3     4    1
     4     4     5    1
     5     5     6    1
     6     2     7    1
     7     6     7    1
     8     4     8    1
     9     6    15    1
    10    15    16   ar
    11    15    17   ar
    12     8     9    1
    13     9    10   ar
    14    10    13   ar
    15    13    14   ar
    16    14    12   ar
    17    12    11   ar
    18    11     9   ar
