@<TRIPOS>MOLECULE
outputs/IAG933/test6/raw/output_392_IAG933_linker_design_.xyz
 42 45 0 0 0
SMALL
GASTEIGER

@<TRIPOS>ATOM
      1 C         -24.8550   -1.0120   30.1430 C.3     1  UNL1        0.1141
      2 C         -24.9730   -2.5050   29.7880 C.2     1  UNL1       -0.0029
      3 C         -23.9060   -3.1730   29.1460 C.2     1  UNL1       -0.0026
      4 C         -23.9890   -4.5490   28.8530 C.2     1  UNL1       -0.0003
      5 C         -25.1370   -5.2800   29.2050 C.2     1  UNL1       -0.0000
      6 C         -26.2320   -4.6110   29.7840 C.2     1  UNL1       -0.0003
      7 C         -26.1550   -3.2320   30.0650 C.2     1  UNL1       -0.0026
      8 C         -25.3870   -0.6790   31.5710 C.3     1  UNL1        0.0951
      9 C         -25.1890    0.7730   32.0280 C.3     1  UNL1        0.0209
     10 C         -25.3360    0.6840   33.5440 C.3     1  UNL1        0.0203
     11 C         -24.8290   -0.7150   33.9050 C.3     1  UNL1        0.0888
     12 N         -24.7580   -1.4810   32.6460 N.3     1  UNL1       -0.2174
     13 C         -25.6880    1.6140   26.4610 C.2     1  UNL1        0.0216
     14 C         -26.2500    2.9200   26.3950 C.2     1  UNL1        0.0729
     15 C         -25.6420    4.0930   27.1230 C.2     1  UNL1        0.2661
     16 N         -25.6140    5.2520   26.4490 N.am    1  UNL1       -0.1997
     17 C         -25.0260    6.4790   26.9630 C.3     1  UNL1        0.1388
     18 O         -25.1430    3.9660   28.2430 O.2     1  UNL1       -0.2683
     19 C         -27.4380    3.0910   25.6450 C.2     1  UNL1        0.1064
     20 N         -28.0750    2.0890   25.0030 N.2     1  UNL1       -0.2081
     21 C         -27.5430    0.8490   25.0790 C.2     1  UNL1        0.2530
     22 O         -28.1930   -0.2080   24.4770 O.2     1  UNL1       -0.4558
     23 C         -29.4600    0.0050   23.8660 C.3     1  UNL1        0.2426
     24 C         -30.0650   -1.3770   23.5730 C.3     1  UNL1        0.2292
     25 O         -30.7290   -1.8780   24.7210 O.3     1  UNL1       -0.2162
     26 C         -26.3540    0.5760   25.7770 C.2     1  UNL1        0.1895
     27 F         -25.8600   -0.6810   25.7950 F       1  UNL1       -0.1996
     28 O         -21.4775    2.2235   25.9259 O.2     1  UNL1       -0.2548
     29 N         -24.2926   -0.1736   29.1944 N.am    1  UNL1       -0.2693
     30 C         -25.1492    0.8652   28.8945 C.3     1  UNL1        0.1483
     31 F         -20.0378    1.6260   27.9438 F       1  UNL1       -0.1855
     32 F         -23.5399    2.4343   25.1620 F       1  UNL1       -0.1593
     33 C         -22.3278    0.6411   28.1670 C.3     1  UNL1        0.1709
     34 C         -22.9081   -0.0540   29.2890 C.2     1  UNL1        0.2378
     35 C         -26.6530    0.5349   28.6814 C.2     1  UNL1        0.2275
     36 O         -22.2288   -0.5123   30.2343 O.2     1  UNL1       -0.2740
     37 C         -24.6579    1.2225   27.4155 C.3     1  UNL1        0.0752
     38 N         -20.4338   -0.4246   28.0745 N.2     1  UNL1       -0.1197
     39 O         -27.4139   -0.1504   28.7254 O.2     1  UNL1       -0.2865
     40 C         -22.7453    1.9547   26.0964 C.2     1  UNL1        0.3269
     41 C         -23.2996    1.2295   27.2578 C.2     1  UNL1        0.0456
     42 C         -20.9003    0.6173   28.0519 C.2     1  UNL1        0.2312
@<TRIPOS>BOND
     1     1     2    1
     2     2     7    1
     3     3     2    2
     4     4     3    1
     5     4     5    2
     6     5     6    1
     7     6     7    2
     8     8     1    1
     9     8     9    1
    10     8    12    1
    11     9    10    1
    12    10    11    1
    13    12    11    1
    14    14    13    1
    15    14    15    1
    16    15    18    2
    17    16    17    1
    18    16    15    1
    19    19    14    2
    20    20    21    2
    21    20    19    1
    22    21    26    1
    23    22    21    1
    24    23    22    1
    25    24    23    1
    26    24    25    1
    27    26    27    1
    28    26    13    2
    29    28    40    1
    30    29    34   am
    31    29     1    1
    32    30    35    1
    33    30    29    1
    34    31    42    1
    35    32    40    1
    36    33    42    1
    37    33    34    1
    38    34    36    2
    39    35    39    2
    40    37    13    1
    41    37    30    1
    42    40    41    2
    43    41    37    1
    44    41    33    1
    45    42    38    2
