@<TRIPOS>MOLECULE
No_3920-gen_results/8p0m/2024-11-27-11-27-31/
 27 28 0 0 0
SMALL
GASTEIGER

@<TRIPOS>ATOM
      1 C         -28.0162   -0.8135   28.8779 C.ar    1  UNL1        0.1959
      2 C         -27.0636   -0.1189   28.6079 C.ar    1  UNL1        0.1761
      3 C         -25.7923   -0.4302   29.0761 C.ar    1  UNL1        0.0308
      4 C         -24.5456    0.3494   28.8225 C.ar    1  UNL1        0.0053
      5 C         -23.2409    0.0217   29.3323 C.ar    1  UNL1        0.0003
      6 C         -22.1362    0.7695   29.0059 C.ar    1  UNL1        0.0031
      7 C         -27.9050   -1.8984   29.8729 C.ar    1  UNL1        0.1762
      8 C         -26.6795   -2.3145   30.3184 C.ar    1  UNL1        0.0329
      9 C         -25.5203   -1.5564   29.9775 C.ar    1  UNL1        0.0047
     10 C         -22.1155    1.7338   28.0257 C.ar    1  UNL1        0.0369
     11 C         -24.5222    1.3908   27.7909 C.ar    1  UNL1        0.0370
     12 C         -23.3248    2.0519   27.4472 C.ar    1  UNL1        0.1387
     13 F         -28.9459   -2.6440   30.2079 F       1  UNL1       -0.2009
     14 O         -23.4158    2.9891   26.4876 O.3     1  UNL1       -0.4714
     15 C         -24.7480    3.4443   26.1999 C.3     1  UNL1        0.2525
     16 F         -27.1526    0.9119   27.7400 F       1  UNL1       -0.2009
     17 O         -29.2837   -0.5940   28.5223 O.3     1  UNL1       -0.4443
     18 C         -29.5156    0.3244   27.5787 C.3     1  UNL1        0.3479
     19 C         -30.4024    1.2618   28.0996 C.3     1  UNL1        0.2214
     20 O         -30.9526    1.1590   29.1388 O.3     1  UNL1       -0.3424
     21 O         -30.1195   -0.3940   26.4645 O.3     1  UNL1       -0.1716
     22 C         -31.4961    2.1601   29.8050 C.3     1  UNL1        0.1686
     23 C         -31.8848    1.9760   31.1332 C.2     1  UNL1        0.0056
     24 C         -31.5169    0.8704   31.7777 C.2     1  UNL1       -0.0024
     25 C         -32.0920    0.5157   32.8795 C.2     1  UNL1       -0.0048
     26 C         -31.6421   -0.6601   33.6077 C.2     1  UNL1       -0.0258
     27 C         -32.1466   -1.1594   34.7302 C.3     1  UNL1        0.0307
@<TRIPOS>BOND
     1     3     4    1
     2     7    13    1
     3    12    14    1
     4    14    15    1
     5     2    16    1
     6     1    17    1
     7    17    18    1
     8    18    19    1
     9    19    20    1
    10    18    21    1
    11    20    22    1
    12    22    23    1
    13    23    24    2
    14    24    25    1
    15    25    26    2
    16    26    27    1
    17     1     2   ar
    18     2     3   ar
    19     3     9   ar
    20     9     8   ar
    21     8     7   ar
    22     7     1   ar
    23     4     5   ar
    24     5     6   ar
    25     6    10   ar
    26    10    12   ar
    27    12    11   ar
    28    11     4   ar
