@<TRIPOS>MOLECULE
No_3923-gen_results/8p0m/2024-11-27-11-27-31/
 10 10 0 0 0
SMALL
GASTEIGER

@<TRIPOS>ATOM
      1 F         -28.0727   -1.2542   28.5316 F       1  UNL1       -0.1933
      2 C         -27.3591   -0.3792   28.7224 C.3     1  UNL1        0.3410
      3 C         -26.8100    0.1885   27.6513 C.ar    1  UNL1        0.0433
      4 C         -27.4896    0.3508   26.4426 C.ar    1  UNL1        0.0011
      5 C         -26.8425    0.5635   25.2793 C.ar    1  UNL1       -0.0005
      6 C         -25.4294    0.8765   25.2868 C.ar    1  UNL1       -0.0043
      7 C         -24.6931    0.8626   26.4303 C.ar    1  UNL1       -0.0220
      8 C         -23.3403    1.2212   26.5067 C.3     1  UNL1        0.0310
      9 C         -25.3545    0.4797   27.5613 C.ar    1  UNL1       -0.0031
     10 F         -28.0159    0.6466   29.4887 F       1  UNL1       -0.1933
@<TRIPOS>BOND
     1     1     2    1
     2     7     8    1
     3     2    10    1
     4     2     3    1
     5     3     4   ar
     6     4     5   ar
     7     5     6   ar
     8     6     7   ar
     9     7     9   ar
    10     9     3   ar
