@<TRIPOS>MOLECULE
outputs/IAG933/test6/raw/output_3925_IAG933_linker_design_.xyz
 41 44 0 0 0
SMALL
GASTEIGER

@<TRIPOS>ATOM
      1 C         -24.8550   -1.0120   30.1430 C.3     1  UNL1        0.1169
      2 C         -24.9730   -2.5050   29.7880 C.2     1  UNL1       -0.0028
      3 C         -23.9060   -3.1730   29.1460 C.2     1  UNL1       -0.0026
      4 C         -23.9890   -4.5490   28.8530 C.2     1  UNL1       -0.0003
      5 C         -25.1370   -5.2800   29.2050 C.2     1  UNL1       -0.0000
      6 C         -26.2320   -4.6110   29.7840 C.2     1  UNL1       -0.0003
      7 C         -26.1550   -3.2320   30.0650 C.2     1  UNL1       -0.0026
      8 C         -25.3870   -0.6790   31.5710 C.3     1  UNL1        0.0952
      9 C         -25.1890    0.7730   32.0280 C.3     1  UNL1        0.0209
     10 C         -25.3360    0.6840   33.5440 C.3     1  UNL1        0.0203
     11 C         -24.8290   -0.7150   33.9050 C.3     1  UNL1        0.0888
     12 N         -24.7580   -1.4810   32.6460 N.3     1  UNL1       -0.2174
     13 C         -25.6880    1.6140   26.4610 C.2     1  UNL1        0.0363
     14 C         -26.2500    2.9200   26.3950 C.2     1  UNL1        0.0742
     15 C         -25.6420    4.0930   27.1230 C.2     1  UNL1        0.2662
     16 N         -25.6140    5.2520   26.4490 N.am    1  UNL1       -0.1997
     17 C         -25.0260    6.4790   26.9630 C.3     1  UNL1        0.1388
     18 O         -25.1430    3.9660   28.2430 O.2     1  UNL1       -0.2683
     19 C         -27.4380    3.0910   25.6450 C.2     1  UNL1        0.1065
     20 N         -28.0750    2.0890   25.0030 N.2     1  UNL1       -0.2081
     21 C         -27.5430    0.8490   25.0790 C.2     1  UNL1        0.2530
     22 O         -28.1930   -0.2080   24.4770 O.2     1  UNL1       -0.4558
     23 C         -29.4600    0.0050   23.8660 C.3     1  UNL1        0.2426
     24 C         -30.0650   -1.3770   23.5730 C.3     1  UNL1        0.2292
     25 O         -30.7290   -1.8780   24.7210 O.3     1  UNL1       -0.2162
     26 C         -26.3540    0.5760   25.7770 C.2     1  UNL1        0.1907
     27 F         -25.8600   -0.6810   25.7950 F       1  UNL1       -0.1995
     28 C         -23.0850    2.2361   25.2407 C.3     1  UNL1        0.4076
     29 C         -22.4174   -0.1694   29.5721 C.3     1  UNL1        0.2128
     30 F         -23.3550    1.2886   24.3098 F       1  UNL1       -0.1694
     31 C         -22.0951    1.5052   27.4907 C.2     1  UNL1        0.2529
     32 C         -23.3289    1.8100   26.6508 C.3     1  UNL1        0.1969
     33 N         -23.8673   -0.0364   29.7653 N.am    1  UNL1       -0.2403
     34 O         -24.2787    2.2441   29.5444 O.2     1  UNL1       -0.2507
     35 F         -21.8587    2.6150   24.9643 F       1  UNL1       -0.1694
     36 O         -21.1793    1.1429   26.8770 O.2     1  UNL1       -0.2729
     37 N         -21.8586    1.1516   28.8637 N.am    1  UNL1       -0.1826
     38 F         -23.7930    3.2643   24.9338 F       1  UNL1       -0.1694
     39 C         -24.3518    1.0157   29.1580 C.2     1  UNL1        0.3250
     40 C         -24.5627    1.3059   26.9014 C.3     1  UNL1        0.1386
     41 N         -24.8142    0.5085   28.0337 N.am    1  UNL1       -0.1848
@<TRIPOS>BOND
     1     1     2    1
     2     2     7    1
     3     3     2    2
     4     4     3    1
     5     4     5    2
     6     5     6    1
     7     6     7    2
     8     8     1    1
     9     8     9    1
    10     8    12    1
    11     9    10    1
    12    10    11    1
    13    12    11    1
    14    14    13    1
    15    14    15    1
    16    15    18    2
    17    16    17    1
    18    16    15    1
    19    19    14    2
    20    20    21    2
    21    20    19    1
    22    21    26    1
    23    22    21    1
    24    23    22    1
    25    24    23    1
    26    24    25    1
    27    26    27    1
    28    26    13    2
    29    29    33    1
    30    30    28    1
    31    31    37    1
    32    32    28    1
    33    32    40    1
    34    32    31    1
    35    33     1    1
    36    35    28    1
    37    36    31    2
    38    37    29    1
    39    38    28    1
    40    39    34    2
    41    39    33   am
    42    40    13    1
    43    40    41    1
    44    41    39    1
