@<TRIPOS>MOLECULE
outputs/IAG933/test6/raw/output_3928_IAG933_linker_design_.xyz
 41 44 0 0 0
SMALL
GASTEIGER

@<TRIPOS>ATOM
      1 C         -24.8550   -1.0120   30.1430 C.3     1  UNL1        0.1114
      2 C         -24.9730   -2.5050   29.7880 C.2     1  UNL1       -0.0030
      3 C         -23.9060   -3.1730   29.1460 C.2     1  UNL1       -0.0026
      4 C         -23.9890   -4.5490   28.8530 C.2     1  UNL1       -0.0003
      5 C         -25.1370   -5.2800   29.2050 C.2     1  UNL1       -0.0000
      6 C         -26.2320   -4.6110   29.7840 C.2     1  UNL1       -0.0003
      7 C         -26.1550   -3.2320   30.0650 C.2     1  UNL1       -0.0026
      8 C         -25.3870   -0.6790   31.5710 C.3     1  UNL1        0.0950
      9 C         -25.1890    0.7730   32.0280 C.3     1  UNL1        0.0209
     10 C         -25.3360    0.6840   33.5440 C.3     1  UNL1        0.0203
     11 C         -24.8290   -0.7150   33.9050 C.3     1  UNL1        0.0888
     12 N         -24.7580   -1.4810   32.6460 N.3     1  UNL1       -0.2174
     13 C         -25.6880    1.6140   26.4610 C.2     1  UNL1        0.0393
     14 C         -26.2500    2.9200   26.3950 C.2     1  UNL1        0.0766
     15 C         -25.6420    4.0930   27.1230 C.2     1  UNL1        0.2664
     16 N         -25.6140    5.2520   26.4490 N.am    1  UNL1       -0.1997
     17 C         -25.0260    6.4790   26.9630 C.3     1  UNL1        0.1388
     18 O         -25.1430    3.9660   28.2430 O.2     1  UNL1       -0.2683
     19 C         -27.4380    3.0910   25.6450 C.2     1  UNL1        0.1067
     20 N         -28.0750    2.0890   25.0030 N.2     1  UNL1       -0.2081
     21 C         -27.5430    0.8490   25.0790 C.2     1  UNL1        0.2533
     22 O         -28.1930   -0.2080   24.4770 O.2     1  UNL1       -0.4558
     23 C         -29.4600    0.0050   23.8660 C.3     1  UNL1        0.2426
     24 C         -30.0650   -1.3770   23.5730 C.3     1  UNL1        0.2292
     25 O         -30.7290   -1.8780   24.7210 O.3     1  UNL1       -0.2162
     26 C         -26.3540    0.5760   25.7770 C.2     1  UNL1        0.1931
     27 F         -25.8600   -0.6810   25.7950 F       1  UNL1       -0.1992
     28 C         -21.9704    1.5720   27.0622 C.2     1  UNL1        0.0001
     29 C         -29.8606    4.1476   29.3367 C.3     1  UNL1        0.0356
     30 N         -25.4013   -0.0955   29.0244 N.pl3   1  UNL1       -0.3016
     31 C         -29.1995    2.7790   29.7066 C.3     1  UNL1        0.1547
     32 C         -23.2353    1.8435   26.5728 C.2     1  UNL1        0.0013
     33 C         -24.3696    1.2976   27.1632 C.2     1  UNL1        0.0159
     34 C         -26.5076    1.0201   29.3260 C.3     1  UNL1        0.1241
     35 C         -28.9434    1.9279   28.4144 C.3     1  UNL1        0.0675
     36 O         -28.1879   -0.3925   28.2644 O.3     1  UNL1       -0.2212
     37 C         -22.9443    0.1601   28.7750 C.2     1  UNL1        0.0145
     38 O         -27.9949    3.1583   30.4031 O.3     1  UNL1       -0.2231
     39 C         -27.6896    0.9693   28.3332 C.3     1  UNL1        0.1741
     40 C         -24.2435    0.4672   28.3228 C.2     1  UNL1        0.0482
     41 C         -21.8170    0.7080   28.1315 C.2     1  UNL1        0.0013
@<TRIPOS>BOND
     1     1    30    1
     2     2     7    1
     3     2     1    1
     4     3     2    2
     5     4     3    1
     6     4     5    2
     7     5     6    1
     8     6     7    2
     9     8     1    1
    10     8     9    1
    11     8    12    1
    12     9    10    1
    13    10    11    1
    14    12    11    1
    15    13    33    1
    16    14    13    1
    17    14    15    1
    18    15    18    2
    19    16    17    1
    20    16    15    1
    21    19    14    2
    22    20    21    2
    23    20    19    1
    24    21    26    1
    25    22    21    1
    26    23    22    1
    27    24    23    1
    28    24    25    1
    29    26    27    1
    30    26    13    2
    31    28    41    1
    32    30    34    1
    33    31    29    1
    34    31    38    1
    35    32    28    2
    36    32    33    1
    37    33    40    2
    38    35    31    1
    39    39    36    1
    40    39    35    1
    41    39    34    1
    42    40    37    1
    43    40    30    1
    44    41    37    2
