@<TRIPOS>MOLECULE
No_3929-gen_results/8p0m/2024-11-27-11-27-31/
 11 11 0 0 0
SMALL
GASTEIGER

@<TRIPOS>ATOM
      1 C         -28.0162   -0.8135   28.8779 C.ar    1  UNL1        0.0296
      2 C         -28.4690   -0.7850   29.8287 C.ar    1  UNL1        0.1401
      3 C         -26.5042   -0.7777   28.8766 C.ar    1  UNL1        0.0062
      4 C         -25.8103   -0.8531   30.1028 C.ar    1  UNL1        0.0716
      5 C         -27.9906   -0.8916   31.2257 C.ar    1  UNL1        0.0296
      6 C         -26.6042   -0.8676   31.2652 C.ar    1  UNL1        0.0062
      7 F         -29.9203   -0.8331   29.8239 F       1  UNL1       -0.2042
      8 C         -24.3796   -0.8022   30.1424 C.3     1  UNL1        0.4186
      9 F         -23.8495   -1.6758   30.7934 F       1  UNL1       -0.1659
     10 F         -23.9517    0.4146   30.6972 F       1  UNL1       -0.1659
     11 F         -23.8275   -0.7745   28.8945 F       1  UNL1       -0.1659
@<TRIPOS>BOND
     1     2     7    1
     2     4     8    1
     3     8     9    1
     4     8    10    1
     5     8    11    1
     6     1     2   ar
     7     2     5   ar
     8     5     6   ar
     9     6     4   ar
    10     4     3   ar
    11     3     1   ar
