@<TRIPOS>MOLECULE
No_3930-gen_results/8p0m/2024-11-27-11-27-31/
 14 15 0 0 0
SMALL
GASTEIGER

@<TRIPOS>ATOM
      1 C         -28.0162   -0.8135   28.8779 C.ar    1  UNL1        0.0002
      2 C         -27.0636   -0.1190   28.6079 C.ar    1  UNL1       -0.0002
      3 C         -26.9716    0.7139   27.5060 C.ar    1  UNL1       -0.0018
      4 C         -28.1053    0.7744   26.6421 C.ar    1  UNL1        0.0063
      5 C         -29.2041    0.1179   27.0477 C.ar    1  UNL1        0.0798
      6 C         -29.2127   -0.6088   28.1281 C.ar    1  UNL1        0.0066
      7 C         -30.4805    0.1928   26.3238 C.2     1  UNL1        0.3878
      8 O         -31.2053    1.1965   26.5037 O.co2   1  UNL1       -0.2406
      9 O         -30.7233   -0.7020   25.4028 O.co2   1  UNL1       -0.2406
     10 C         -25.6716    1.4086   27.1153 C.2     1  UNL1        0.0036
     11 C         -24.5353    1.0543   27.7177 C.2     1  UNL1        0.0179
     12 C         -23.3136    1.8096   27.3565 C.2     1  UNL1        0.0933
     13 N         -23.5084    2.6010   26.2713 N.2     1  UNL1       -0.2641
     14 C         -25.3242    2.3860   26.1055 C.3     1  UNL1        0.1519
@<TRIPOS>BOND
     1     5     7    1
     2     7     8   ar
     3     7     9   ar
     4     3    10    1
     5    10    11    2
     6    11    12    1
     7    12    13    2
     8    10    14    1
     9    13    14    1
    10     1     2   ar
    11     2     3   ar
    12     3     4   ar
    13     4     5   ar
    14     5     6   ar
    15     6     1   ar
