@<TRIPOS>MOLECULE
outputs/IAG933/test6/raw/output_3932_IAG933_linker_design_.xyz
 48 52 0 0 0
SMALL
GASTEIGER

@<TRIPOS>ATOM
      1 C         -24.8550   -1.0120   30.1430 C.3     1  UNL1        0.1114
      2 C         -24.9730   -2.5050   29.7880 C.2     1  UNL1       -0.0030
      3 C         -23.9060   -3.1730   29.1460 C.2     1  UNL1       -0.0026
      4 C         -23.9890   -4.5490   28.8530 C.2     1  UNL1       -0.0003
      5 C         -25.1370   -5.2800   29.2050 C.2     1  UNL1       -0.0000
      6 C         -26.2320   -4.6110   29.7840 C.2     1  UNL1       -0.0003
      7 C         -26.1550   -3.2320   30.0650 C.2     1  UNL1       -0.0026
      8 C         -25.3870   -0.6790   31.5710 C.3     1  UNL1        0.0950
      9 C         -25.1890    0.7730   32.0280 C.3     1  UNL1        0.0209
     10 C         -25.3360    0.6840   33.5440 C.3     1  UNL1        0.0203
     11 C         -24.8290   -0.7150   33.9050 C.3     1  UNL1        0.0888
     12 N         -24.7580   -1.4810   32.6460 N.3     1  UNL1       -0.2174
     13 C         -25.6880    1.6140   26.4610 C.2     1  UNL1        0.0394
     14 C         -26.2500    2.9200   26.3950 C.2     1  UNL1        0.0766
     15 C         -25.6420    4.0930   27.1230 C.2     1  UNL1        0.2664
     16 N         -25.6140    5.2520   26.4490 N.am    1  UNL1       -0.1997
     17 C         -25.0260    6.4790   26.9630 C.3     1  UNL1        0.1388
     18 O         -25.1430    3.9660   28.2430 O.2     1  UNL1       -0.2683
     19 C         -27.4380    3.0910   25.6450 C.2     1  UNL1        0.1067
     20 N         -28.0750    2.0890   25.0030 N.2     1  UNL1       -0.2081
     21 C         -27.5430    0.8490   25.0790 C.2     1  UNL1        0.2533
     22 O         -28.1930   -0.2080   24.4770 O.2     1  UNL1       -0.4558
     23 C         -29.4600    0.0050   23.8660 C.3     1  UNL1        0.2426
     24 C         -30.0650   -1.3770   23.5730 C.3     1  UNL1        0.2292
     25 O         -30.7290   -1.8780   24.7210 O.3     1  UNL1       -0.2162
     26 C         -26.3540    0.5760   25.7770 C.2     1  UNL1        0.1931
     27 F         -25.8600   -0.6810   25.7950 F       1  UNL1       -0.1992
     28 C         -28.2713   -0.8099   29.2294 C.3     1  UNL1        0.1638
     29 C         -23.2728    1.9401   26.7007 C.2     1  UNL1        0.0003
     30 C         -30.5116    1.4153   30.3576 C.2     1  UNL1       -0.0018
     31 C         -24.4842    1.3483   27.0801 C.2     1  UNL1        0.0188
     32 C         -28.0300    3.5814   31.2871 C.3     1  UNL1        0.0045
     33 C         -31.4708    4.4999   32.7109 C.3     1  UNL1        0.1096
     34 O         -28.9323   -0.5431   30.5396 O.3     1  UNL1       -0.3501
     35 N         -32.5590    4.3933   31.6988 N.3     1  UNL1       -0.1314
     36 C         -27.2982    2.7132   30.2934 C.3     1  UNL1        0.0032
     37 C         -28.0385    1.5931   30.2410 C.3     1  UNL1        0.0341
     38 C         -24.3989    0.4868   28.1735 C.2     1  UNL1        0.0873
     39 C         -29.1200    0.7670   30.4270 C.3     1  UNL1        0.1369
     40 O         -22.3887   -0.1589   29.3378 O.2     1  UNL1       -0.2856
     41 C         -29.6410    3.6583   31.2977 C.3     1  UNL1        0.0233
     42 C         -22.3808    1.4099   27.5392 C.2     1  UNL1        0.0184
     43 N         -25.3577   -0.1816   28.9209 N.pl3   1  UNL1       -0.2992
     44 C         -20.9079    1.8483   27.6503 C.3     1  UNL1        0.0344
     45 C         -26.8924   -0.2581   28.5328 C.3     1  UNL1        0.1233
     46 C         -30.8281    2.7256   30.7633 C.2     1  UNL1       -0.0286
     47 C         -30.1822    4.9032   31.9626 C.3     1  UNL1        0.0248
     48 C         -22.9535    0.5199   28.4155 C.2     1  UNL1        0.2048
@<TRIPOS>BOND
     1     1    43    1
     2     2     7    1
     3     2     1    1
     4     3     2    2
     5     4     3    1
     6     4     5    2
     7     5     6    1
     8     6     7    2
     9     8     1    1
    10     8     9    1
    11     8    12    1
    12     9    10    1
    13    10    11    1
    14    12    11    1
    15    13    31    1
    16    14    13    1
    17    14    15    1
    18    15    18    2
    19    16    17    1
    20    16    15    1
    21    19    14    2
    22    20    21    2
    23    20    19    1
    24    21    26    1
    25    22    21    1
    26    23    22    1
    27    24    23    1
    28    24    25    1
    29    26    27    1
    30    26    13    2
    31    28    34    1
    32    29    31    1
    33    29    42    2
    34    30    39    1
    35    30    46    2
    36    31    38    2
    37    32    41    1
    38    35    33    1
    39    36    32    1
    40    37    36    1
    41    37    39    1
    42    38    48    1
    43    38    43    1
    44    39    34    1
    45    41    47    1
    46    42    44    1
    47    42    48    1
    48    45    43    1
    49    45    28    1
    50    46    41    1
    51    47    33    1
    52    48    40    2
