@<TRIPOS>MOLECULE
No_3935-gen_results/8p0m/2024-11-27-11-27-31/
 15 16 0 0 0
SMALL
GASTEIGER

@<TRIPOS>ATOM
      1 O         -28.1229   -1.3353   28.4874 O.2     1  UNL1       -0.2680
      2 C         -28.5208   -0.4363   29.0779 C.2     1  UNL1        0.2690
      3 C         -27.6655    0.1129   30.0346 C.ar    1  UNL1        0.0554
      4 N         -29.7419    0.1102   28.8873 N.am    1  UNL1       -0.1754
      5 C         -27.8398    1.2287   30.6424 C.ar    1  UNL1        0.0046
      6 C         -30.6012   -0.3458   28.0242 C.ar    1  UNL1        0.0737
      7 C         -26.3652   -0.6286   30.3303 C.ar    1  UNL1        0.0046
      8 C         -26.9238    1.7551   31.6460 C.ar    1  UNL1        0.0001
      9 C         -25.4457   -0.0918   31.3202 C.ar    1  UNL1        0.0001
     10 C         -25.7462    1.1051   31.9604 C.ar    1  UNL1        0.0000
     11 C         -30.8233   -0.1219   26.9741 C.ar    1  UNL1        0.0166
     12 C         -31.7682   -0.7666   26.0137 C.ar    1  UNL1        0.0013
     13 C         -32.5445   -1.8059   26.5792 C.ar    1  UNL1        0.0001
     14 C         -32.3073   -2.1454   27.9266 C.ar    1  UNL1        0.0013
     15 C         -31.3867   -1.4687   28.7161 C.ar    1  UNL1        0.0166
@<TRIPOS>BOND
     1     1     2    2
     2     2     3    1
     3     2     4   am
     4     4     6    1
     5     3     5   ar
     6     5     8   ar
     7     8    10   ar
     8    10     9   ar
     9     9     7   ar
    10     7     3   ar
    11     6    11   ar
    12    11    12   ar
    13    12    13   ar
    14    13    14   ar
    15    14    15   ar
    16    15     6   ar
