@<TRIPOS>MOLECULE
outputs/IAG933/test6/raw/output_3937_IAG933_linker_design_.xyz
 43 47 0 0 0
SMALL
GASTEIGER

@<TRIPOS>ATOM
      1 C         -24.8550   -1.0120   30.1430 C.3     1  UNL1        0.1117
      2 C         -24.9730   -2.5050   29.7880 C.2     1  UNL1       -0.0030
      3 C         -23.9060   -3.1730   29.1460 C.2     1  UNL1       -0.0026
      4 C         -23.9890   -4.5490   28.8530 C.2     1  UNL1       -0.0003
      5 C         -25.1370   -5.2800   29.2050 C.2     1  UNL1       -0.0000
      6 C         -26.2320   -4.6110   29.7840 C.2     1  UNL1       -0.0003
      7 C         -26.1550   -3.2320   30.0650 C.2     1  UNL1       -0.0026
      8 C         -25.3870   -0.6790   31.5710 C.3     1  UNL1        0.0950
      9 C         -25.1890    0.7730   32.0280 C.3     1  UNL1        0.0209
     10 C         -25.3360    0.6840   33.5440 C.3     1  UNL1        0.0203
     11 C         -24.8290   -0.7150   33.9050 C.3     1  UNL1        0.0888
     12 N         -24.7580   -1.4810   32.6460 N.3     1  UNL1       -0.2174
     13 C         -25.6880    1.6140   26.4610 C.2     1  UNL1        0.0205
     14 C         -26.2500    2.9200   26.3950 C.2     1  UNL1        0.0727
     15 C         -25.6420    4.0930   27.1230 C.2     1  UNL1        0.2661
     16 N         -25.6140    5.2520   26.4490 N.am    1  UNL1       -0.1997
     17 C         -25.0260    6.4790   26.9630 C.3     1  UNL1        0.1388
     18 O         -25.1430    3.9660   28.2430 O.2     1  UNL1       -0.2683
     19 C         -27.4380    3.0910   25.6450 C.2     1  UNL1        0.1064
     20 N         -28.0750    2.0890   25.0030 N.2     1  UNL1       -0.2081
     21 C         -27.5430    0.8490   25.0790 C.2     1  UNL1        0.2530
     22 O         -28.1930   -0.2080   24.4770 O.2     1  UNL1       -0.4558
     23 C         -29.4600    0.0050   23.8660 C.3     1  UNL1        0.2426
     24 C         -30.0650   -1.3770   23.5730 C.3     1  UNL1        0.2292
     25 O         -30.7290   -1.8780   24.7210 O.3     1  UNL1       -0.2162
     26 C         -26.3540    0.5760   25.7770 C.2     1  UNL1        0.1893
     27 F         -25.8600   -0.6810   25.7950 F       1  UNL1       -0.1996
     28 C         -22.3040    1.2109   27.7881 C.2     1  UNL1        0.1626
     29 C         -23.2801    1.7360   26.9945 C.3     1  UNL1        0.2087
     30 C         -28.7173    0.8919   29.7510 C.2     1  UNL1        0.0029
     31 C         -26.4793    0.5199   28.9705 C.2     1  UNL1        0.1913
     32 C         -27.2727    2.7221   30.3102 C.2     1  UNL1        0.0029
     33 C         -29.6158    2.8266   30.8595 C.2     1  UNL1        0.0000
     34 N         -24.0098   -0.1364   29.1806 N.pl3   1  UNL1       -0.2961
     35 F         -21.0852    1.5992   27.6066 F       1  UNL1       -0.2049
     36 C         -29.7941    1.6028   30.2567 C.2     1  UNL1        0.0001
     37 C         -24.5537    1.3640   27.3478 C.3     1  UNL1        0.0875
     38 O         -26.8407   -0.6328   28.6208 O.2     1  UNL1       -0.2896
     39 C         -28.3405    3.3808   30.9211 C.2     1  UNL1        0.0001
     40 O         -22.9891    2.5320   25.9963 O.3     1  UNL1       -0.2154
     41 C         -25.0303    0.9579   28.6805 C.3     1  UNL1        0.1423
     42 C         -27.4614    1.4565   29.7037 C.2     1  UNL1        0.0364
     43 C         -22.6227    0.3433   28.7999 C.2     1  UNL1        0.0899
@<TRIPOS>BOND
     1     1     2    1
     2     2     7    1
     3     3     2    2
     4     4     3    1
     5     4     5    2
     6     5     6    1
     7     6     7    2
     8     8     1    1
     9     8     9    1
    10     8    12    1
    11     9    10    1
    12    10    11    1
    13    12    11    1
    14    14    13    1
    15    14    15    1
    16    15    18    2
    17    16    17    1
    18    16    15    1
    19    19    14    2
    20    20    21    2
    21    20    19    1
    22    21    26    1
    23    22    21    1
    24    23    22    1
    25    24    23    1
    26    24    25    1
    27    26    27    1
    28    26    13    2
    29    28    43    2
    30    29    40    1
    31    29    37    1
    32    29    28    1
    33    30    36    1
    34    31    42    1
    35    32    39    2
    36    33    39    1
    37    34     1    1
    38    35    28    1
    39    36    33    2
    40    37    13    1
    41    37    41    1
    42    38    31    2
    43    41    31    1
    44    41    34    1
    45    42    30    2
    46    42    32    1
    47    43    34    1
