@<TRIPOS>MOLECULE
outputs/IAG933/test6/raw/output_394_IAG933_linker_design_.xyz
 47 52 0 0 0
SMALL
GASTEIGER

@<TRIPOS>ATOM
      1 C         -24.8550   -1.0120   30.1430 C.3     1  UNL1        0.0437
      2 C         -24.9730   -2.5050   29.7880 C.2     1  UNL1       -0.0208
      3 C         -23.9060   -3.1730   29.1460 C.2     1  UNL1       -0.0042
      4 C         -23.9890   -4.5490   28.8530 C.2     1  UNL1       -0.0003
      5 C         -25.1370   -5.2800   29.2050 C.2     1  UNL1       -0.0000
      6 C         -26.2320   -4.6110   29.7840 C.2     1  UNL1       -0.0003
      7 C         -26.1550   -3.2320   30.0650 C.2     1  UNL1       -0.0042
      8 C         -25.3870   -0.6790   31.5710 C.3     1  UNL1        0.0771
      9 C         -25.1890    0.7730   32.0280 C.3     1  UNL1        0.0179
     10 C         -25.3360    0.6840   33.5440 C.3     1  UNL1        0.0202
     11 C         -24.8290   -0.7150   33.9050 C.3     1  UNL1        0.0887
     12 N         -24.7580   -1.4810   32.6460 N.3     1  UNL1       -0.2191
     13 C         -25.6880    1.6140   26.4610 C.3     1  UNL1        0.0937
     14 C         -26.2500    2.9200   26.3950 C.2     1  UNL1        0.0567
     15 C         -25.6420    4.0930   27.1230 C.2     1  UNL1        0.2181
     16 N         -25.6140    5.2520   26.4490 N.2     1  UNL1       -0.2359
     17 C         -25.0260    6.4790   26.9630 C.3     1  UNL1        0.1550
     18 O         -25.1430    3.9660   28.2430 O.2     1  UNL1       -0.4606
     19 C         -27.4380    3.0910   25.6450 C.2     1  UNL1        0.1025
     20 N         -28.0750    2.0890   25.0030 N.2     1  UNL1       -0.2118
     21 C         -27.5430    0.8490   25.0790 C.2     1  UNL1        0.2344
     22 O         -28.1930   -0.2080   24.4770 O.2     1  UNL1       -0.4585
     23 C         -29.4600    0.0050   23.8660 C.3     1  UNL1        0.2423
     24 C         -30.0650   -1.3770   23.5730 C.3     1  UNL1        0.2292
     25 O         -30.7290   -1.8780   24.7210 O.3     1  UNL1       -0.2162
     26 C         -26.3540    0.5760   25.7770 C.3     1  UNL1        0.2440
     27 F         -25.8600   -0.6810   25.7950 F       1  UNL1       -0.2265
     28 O         -29.2814    0.5402   29.7135 O.3     1  UNL1       -0.2183
     29 C         -22.7537    1.5713   28.6875 C.2     1  UNL1        0.0177
     30 C         -30.4456    4.7664   27.3989 C.2     1  UNL1       -0.0000
     31 C         -24.3118    1.5827   26.9090 C.2     1  UNL1        0.0017
     32 C         -26.0629    3.0111   30.6448 C.3     1  UNL1        0.0439
     33 C         -29.5100    1.7404   30.1548 C.3     1  UNL1        0.1742
     34 C         -29.4452    4.1515   29.5018 C.2     1  UNL1       -0.0018
     35 C         -21.9920    1.8803   26.4714 C.2     1  UNL1       -0.0002
     36 C         -21.7091    1.8015   27.8212 C.2     1  UNL1        0.0014
     37 C         -23.2863    1.7636   26.0019 C.2     1  UNL1       -0.0025
     38 C         -30.1693    2.4168   27.9140 C.2     1  UNL1       -0.0018
     39 C         -29.8501    5.1442   28.6065 C.2     1  UNL1       -0.0002
     40 C         -26.0112    1.7970   31.4428 C.3     1  UNL1        0.0052
     41 C         -25.6370    4.0784   29.5204 C.3     1  UNL1        0.2070
     42 C         -28.4625    2.0303   31.2176 C.3     1  UNL1        0.0376
     43 C         -24.0364    1.4896   28.2374 C.2     1  UNL1        0.0855
     44 C         -27.0994    2.0087   30.5097 C.3     1  UNL1        0.0066
     45 C         -29.6898    2.8071   29.1795 C.2     1  UNL1        0.0077
     46 C         -30.5766    3.4242   27.0204 C.2     1  UNL1       -0.0002
     47 N         -25.0418    1.3270   29.1324 N.pl3   1  UNL1       -0.1284
@<TRIPOS>BOND
     1     2     7    1
     2     2     1    1
     3     3     2    2
     4     4     3    1
     5     4     5    2
     6     5     6    1
     7     6     7    2
     8     8     1    1
     9     8     9    1
    10     8    12    1
    11     9    10    1
    12    10    11    1
    13    12    11    1
    14    13    31    1
    15    14    13    1
    16    14    15    1
    17    15    18    1
    18    16    17    1
    19    16    15    2
    20    18    41    1
    21    19    14    2
    22    20    21    2
    23    20    19    1
    24    21    26    1
    25    22    21    1
    26    23    22    1
    27    24    23    1
    28    24    25    1
    29    26    27    1
    30    26    13    1
    31    30    39    1
    32    31    43    2
    33    32    41    1
    34    32    40    1
    35    33    28    1
    36    33    42    1
    37    35    36    1
    38    36    29    2
    39    37    35    2
    40    37    31    1
    41    38    45    2
    42    39    34    2
    43    40     9    1
    44    43    29    1
    45    43    47    1
    46    44    32    1
    47    44    42    1
    48    44    40    1
    49    45    34    1
    50    45    33    1
    51    46    30    2
    52    46    38    1
