@<TRIPOS>MOLECULE
outputs/IAG933/test6/raw/output_3941_IAG933_linker_design_.xyz
 37 41 0 0 0
SMALL
GASTEIGER

@<TRIPOS>ATOM
      1 C         -24.8550   -1.0120   30.1430 C.3     1  UNL1        0.2405
      2 C         -24.9730   -2.5050   29.7880 C.2     1  UNL1        0.0262
      3 C         -23.9060   -3.1730   29.1460 C.2     1  UNL1       -0.0001
      4 C         -23.9890   -4.5490   28.8530 C.2     1  UNL1       -0.0002
      5 C         -25.1370   -5.2800   29.2050 C.2     1  UNL1       -0.0000
      6 C         -26.2320   -4.6110   29.7840 C.2     1  UNL1       -0.0002
      7 C         -26.1550   -3.2320   30.0650 C.2     1  UNL1       -0.0001
      8 C         -25.3870   -0.6790   31.5710 C.3     1  UNL1        0.1247
      9 C         -25.1890    0.7730   32.0280 C.3     1  UNL1        0.0236
     10 C         -25.3360    0.6840   33.5440 C.3     1  UNL1        0.0204
     11 C         -24.8290   -0.7150   33.9050 C.3     1  UNL1        0.0889
     12 N         -24.7580   -1.4810   32.6460 N.3     1  UNL1       -0.2148
     13 C         -25.6880    1.6140   26.4610 C.3     1  UNL1        0.1063
     14 C         -26.2500    2.9200   26.3950 C.2     1  UNL1        0.0577
     15 C         -25.6420    4.0930   27.1230 C.2     1  UNL1        0.2625
     16 N         -25.6140    5.2520   26.4490 N.am    1  UNL1       -0.2000
     17 C         -25.0260    6.4790   26.9630 C.3     1  UNL1        0.1388
     18 O         -25.1430    3.9660   28.2430 O.2     1  UNL1       -0.2687
     19 C         -27.4380    3.0910   25.6450 C.2     1  UNL1        0.1022
     20 N         -28.0750    2.0890   25.0030 N.2     1  UNL1       -0.2119
     21 C         -27.5430    0.8490   25.0790 C.2     1  UNL1        0.2342
     22 O         -28.1930   -0.2080   24.4770 O.2     1  UNL1       -0.4585
     23 C         -29.4600    0.0050   23.8660 C.3     1  UNL1        0.2423
     24 C         -30.0650   -1.3770   23.5730 C.3     1  UNL1        0.2292
     25 O         -30.7290   -1.8780   24.7210 O.3     1  UNL1       -0.2162
     26 C         -26.3540    0.5760   25.7770 C.3     1  UNL1        0.2429
     27 F         -25.8600   -0.6810   25.7950 F       1  UNL1       -0.2268
     28 C         -23.5866    1.4344   27.0899 C.2     1  UNL1        0.0170
     29 C         -24.8912    1.1648   27.3730 C.3     1  UNL1        0.1972
     30 C         -23.0289    0.0860   28.9976 C.2     1  UNL1        0.4006
     31 O         -25.0795   -0.0189   28.0547 O.3     1  UNL1       -0.1754
     32 N         -22.1789   -0.4186   29.7288 N.pl3   1  UNL1        0.2148
     33 C         -22.9800    2.0088   25.9379 C.2     1  UNL1       -0.0015
     34 N         -24.2645   -0.2737   29.1060 N.3     1  UNL1       -0.0904
     35 C         -21.3530    1.4714   27.4854 C.2     1  UNL1        0.0074
     36 C         -22.5872    1.0092   27.9439 C.2     1  UNL1        0.0877
     37 C         -21.6187    2.0364   26.2383 C.2     1  UNL1       -0.0000
@<TRIPOS>BOND
     1     1     2    1
     2     2     7    1
     3     3     2    2
     4     4     3    1
     5     4     5    2
     6     5     6    1
     7     6     7    2
     8     8     1    1
     9     8     9    1
    10     8    12    1
    11     9    10    1
    12    10    11    1
    13    12    11    1
    14    13    14    1
    15    13    29    1
    16    14    15    1
    17    15    18    2
    18    16    17    1
    19    16    15    1
    20    19    14    2
    21    20    21    2
    22    20    19    1
    23    21    26    1
    24    22    21    1
    25    23    22    1
    26    24    23    1
    27    24    25    1
    28    26    27    1
    29    26    13    1
    30    28    36    1
    31    29    28    1
    32    29    31    1
    33    30    34    1
    34    30    32    1
    35    31    34    1
    36    33    37    1
    37    33    28    2
    38    34     1    1
    39    35    36    1
    40    36    30    2
    41    37    35    2
