@<TRIPOS>MOLECULE
outputs/IAG933/test6/raw/output_3944_IAG933_linker_design_.xyz
 47 54 0 0 0
SMALL
GASTEIGER

@<TRIPOS>ATOM
      1 C         -24.8550   -1.0120   30.1430 C.3     1  UNL1        0.1016
      2 C         -24.9730   -2.5050   29.7880 C.2     1  UNL1       -0.0062
      3 C         -23.9060   -3.1730   29.1460 C.2     1  UNL1       -0.0029
      4 C         -23.9890   -4.5490   28.8530 C.2     1  UNL1       -0.0003
      5 C         -25.1370   -5.2800   29.2050 C.2     1  UNL1       -0.0000
      6 C         -26.2320   -4.6110   29.7840 C.2     1  UNL1       -0.0003
      7 C         -26.1550   -3.2320   30.0650 C.2     1  UNL1       -0.0029
      8 C         -25.3870   -0.6790   31.5710 C.3     1  UNL1        0.0917
      9 C         -25.1890    0.7730   32.0280 C.3     1  UNL1        0.0206
     10 C         -25.3360    0.6840   33.5440 C.3     1  UNL1        0.0203
     11 C         -24.8290   -0.7150   33.9050 C.3     1  UNL1        0.0888
     12 N         -24.7580   -1.4810   32.6460 N.3     1  UNL1       -0.2178
     13 C         -25.6880    1.6140   26.4610 C.3     1  UNL1        0.0729
     14 C         -26.2500    2.9200   26.3950 C.2     1  UNL1        0.0549
     15 C         -25.6420    4.0930   27.1230 C.2     1  UNL1        0.2624
     16 N         -25.6140    5.2520   26.4490 N.am    1  UNL1       -0.2000
     17 C         -25.0260    6.4790   26.9630 C.3     1  UNL1        0.1388
     18 O         -25.1430    3.9660   28.2430 O.2     1  UNL1       -0.2687
     19 C         -27.4380    3.0910   25.6450 C.2     1  UNL1        0.1021
     20 N         -28.0750    2.0890   25.0030 N.2     1  UNL1       -0.2119
     21 C         -27.5430    0.8490   25.0790 C.2     1  UNL1        0.2341
     22 O         -28.1930   -0.2080   24.4770 O.2     1  UNL1       -0.4585
     23 C         -29.4600    0.0050   23.8660 C.3     1  UNL1        0.2423
     24 C         -30.0650   -1.3770   23.5730 C.3     1  UNL1        0.2292
     25 O         -30.7290   -1.8780   24.7210 O.3     1  UNL1       -0.2162
     26 C         -26.3540    0.5760   25.7770 C.3     1  UNL1        0.2401
     27 F         -25.8600   -0.6810   25.7950 F       1  UNL1       -0.2269
     28 F         -23.2436    0.7642   25.3782 F       1  UNL1       -0.1744
     29 C         -22.5791    2.0878   28.3386 C.3     1  UNL1        0.1982
     30 O         -22.7675    1.3389   29.5069 O.3     1  UNL1       -0.3028
     31 C         -25.8685    0.5417   28.5515 C.3     1  UNL1        0.0811
     32 C         -23.2685    0.2399   29.1203 C.3     1  UNL1        0.3678
     33 O         -22.6328   -0.4856   28.0042 O.3     1  UNL1       -0.3790
     34 C         -21.2340   -0.3146   28.4099 C.2     1  UNL1        0.5164
     35 F         -23.1468    2.9058   25.1792 F       1  UNL1       -0.1744
     36 C         -25.0462    1.5011   27.6450 C.3     1  UNL1        0.0451
     37 O         -21.4902    1.9331   26.2588 O.3     1  UNL1       -0.2680
     38 C         -23.5758    2.0132   27.2665 C.3     1  UNL1        0.1269
     39 C         -21.1745    1.9278   27.6945 C.3     1  UNL1        0.3253
     40 N         -24.8675   -0.1396   29.2112 N.3     1  UNL1       -0.2085
     41 C         -27.3126    0.0931   29.0715 C.2     1  UNL1       -0.0044
     42 C         -27.8438    1.2743   29.8446 C.2     1  UNL1        0.0276
     43 O         -20.4517    0.8620   28.3016 O.3     1  UNL1       -0.3909
     44 C         -25.4861    1.8705   28.9951 C.3     1  UNL1        0.0716
     45 O         -21.1135   -0.9014   29.5142 O.2     1  UNL1       -0.2026
     46 C         -22.9008    1.9771   26.0238 C.3     1  UNL1        0.3705
     47 S         -26.7530    2.6343   30.0266 S.3     1  UNL1       -0.1126
@<TRIPOS>BOND
     1     1     2    1
     2     2     7    1
     3     3     2    2
     4     4     3    1
     5     4     5    2
     6     5     6    1
     7     6     7    2
     8     8     1    1
     9     8     9    1
    10     8    12    1
    11     9    10    1
    12    10    11    1
    13    12    11    1
    14    13    14    1
    15    14    15    1
    16    15    18    2
    17    16    17    1
    18    16    15    1
    19    19    14    2
    20    20    21    2
    21    20    19    1
    22    21    26    1
    23    22    21    1
    24    23    22    1
    25    24    23    1
    26    24    25    1
    27    26    27    1
    28    26    13    1
    29    28    46    1
    30    29    30    1
    31    31    44    1
    32    31    41    1
    33    31    40    1
    34    32    33    1
    35    32    40    1
    36    32    30    1
    37    33    34    1
    38    34    45    2
    39    35    46    1
    40    36    13    1
    41    36    31    1
    42    36    44    1
    43    38    46    1
    44    38    36    1
    45    38    29    1
    46    39    37    1
    47    39    43    1
    48    39    29    1
    49    40     1    1
    50    41    42    2
    51    42    47    1
    52    43    34    1
    53    44    47    1
    54    46    37    1
