@<TRIPOS>MOLECULE
outputs/IAG933/test6/raw/output_3945_IAG933_linker_design_.xyz
 45 50 0 0 0
SMALL
GASTEIGER

@<TRIPOS>ATOM
      1 C         -24.8550   -1.0120   30.1430 C.3     1  UNL1        0.0576
      2 C         -24.9730   -2.5050   29.7880 C.2     1  UNL1       -0.0195
      3 C         -23.9060   -3.1730   29.1460 C.2     1  UNL1       -0.0042
      4 C         -23.9890   -4.5490   28.8530 C.2     1  UNL1       -0.0003
      5 C         -25.1370   -5.2800   29.2050 C.2     1  UNL1       -0.0000
      6 C         -26.2320   -4.6110   29.7840 C.2     1  UNL1       -0.0003
      7 C         -26.1550   -3.2320   30.0650 C.2     1  UNL1       -0.0042
      8 C         -25.3870   -0.6790   31.5710 C.3     1  UNL1        0.0785
      9 C         -25.1890    0.7730   32.0280 C.3     1  UNL1        0.0192
     10 C         -25.3360    0.6840   33.5440 C.3     1  UNL1        0.0202
     11 C         -24.8290   -0.7150   33.9050 C.3     1  UNL1        0.0887
     12 N         -24.7580   -1.4810   32.6460 N.3     1  UNL1       -0.2191
     13 C         -25.6880    1.6140   26.4610 C.2     1  UNL1        0.0392
     14 C         -26.2500    2.9200   26.3950 C.2     1  UNL1        0.0766
     15 C         -25.6420    4.0930   27.1230 C.2     1  UNL1        0.2664
     16 N         -25.6140    5.2520   26.4490 N.am    1  UNL1       -0.1997
     17 C         -25.0260    6.4790   26.9630 C.3     1  UNL1        0.1388
     18 O         -25.1430    3.9660   28.2430 O.2     1  UNL1       -0.2683
     19 C         -27.4380    3.0910   25.6450 C.2     1  UNL1        0.1067
     20 N         -28.0750    2.0890   25.0030 N.2     1  UNL1       -0.2081
     21 C         -27.5430    0.8490   25.0790 C.2     1  UNL1        0.2533
     22 O         -28.1930   -0.2080   24.4770 O.2     1  UNL1       -0.4558
     23 C         -29.4600    0.0050   23.8660 C.3     1  UNL1        0.2426
     24 C         -30.0650   -1.3770   23.5730 C.3     1  UNL1        0.2292
     25 O         -30.7290   -1.8780   24.7210 O.3     1  UNL1       -0.2162
     26 C         -26.3540    0.5760   25.7770 C.2     1  UNL1        0.1931
     27 F         -25.8600   -0.6810   25.7950 F       1  UNL1       -0.1992
     28 C         -24.3770    1.3846   27.1925 C.ar    1  UNL1        0.0182
     29 C         -25.5107   -0.1170   29.0766 C.3     1  UNL1        0.0916
     30 O         -31.4465   -2.3681   30.0795 O.3     1  UNL1       -0.2203
     31 O         -30.9989   -1.2498   27.8088 O.3     1  UNL1       -0.2230
     32 C         -30.2442    1.0313   28.1035 C.3     1  UNL1        0.0344
     33 CL        -22.6068    2.3289   25.3208 Cl      1  UNL1       -0.0803
     34 C         -22.2065    1.5003   27.9321 C.ar    1  UNL1        0.1288
     35 C         -30.6646   -0.2846   28.8011 C.3     1  UNL1        0.1559
     36 C         -30.0520   -2.2943   30.2215 C.3     1  UNL1        0.1860
     37 C         -24.4282    0.6662   28.4053 C.ar    1  UNL1        0.0243
     38 C         -23.0559    1.7147   26.9078 C.ar    1  UNL1        0.0808
     39 C         -28.7085    1.1619   28.0661 C.3     1  UNL1        0.0199
     40 S         -22.8966    0.7889   29.3072 S.2     1  UNL1       -0.0712
     41 N         -26.6733   -0.4904   28.3430 N.3     1  UNL1       -0.2694
     42 C         -28.1135   -0.1556   27.9446 C.3     1  UNL1        0.0726
     43 C         -28.1577   -0.9940   29.1974 C.3     1  UNL1        0.0773
     44 C         -29.6203   -0.9069   29.7661 C.3     1  UNL1        0.0793
     45 N         -20.8106    1.7704   27.9253 N.pl3   1  UNL1       -0.1201
@<TRIPOS>BOND
     1     1    29    1
     2     2     7    1
     3     2     1    1
     4     3     2    2
     5     4     3    1
     6     4     5    2
     7     5     6    1
     8     6     7    2
     9     8     1    1
    10     8     9    1
    11     8    12    1
    12     9    10    1
    13    10    11    1
    14    12    11    1
    15    13    28    1
    16    14    13    1
    17    14    15    1
    18    15    18    2
    19    16    17    1
    20    16    15    1
    21    19    14    2
    22    20    21    2
    23    20    19    1
    24    21    26    1
    25    22    21    1
    26    23    22    1
    27    24    23    1
    28    24    25    1
    29    26    27    1
    30    26    13    2
    31    28    37   ar
    32    29    37    1
    33    30    36    1
    34    32    35    1
    35    33    38    1
    36    34    40   ar
    37    35    31    1
    38    35    44    1
    39    37    40   ar
    40    38    28   ar
    41    38    34   ar
    42    39    32    1
    43    41    29    1
    44    42    39    1
    45    42    41    1
    46    42    43    1
    47    43    41    1
    48    43    44    1
    49    44    36    1
    50    45    34    1
