@<TRIPOS>MOLECULE
outputs/IAG933/test6/raw/output_3946_IAG933_linker_design_.xyz
 44 47 0 0 0
SMALL
GASTEIGER

@<TRIPOS>ATOM
      1 C         -24.8550   -1.0120   30.1430 C.3     1  UNL1        0.0971
      2 C         -24.9730   -2.5050   29.7880 C.2     1  UNL1       -0.0064
      3 C         -23.9060   -3.1730   29.1460 C.2     1  UNL1       -0.0029
      4 C         -23.9890   -4.5490   28.8530 C.2     1  UNL1       -0.0003
      5 C         -25.1370   -5.2800   29.2050 C.2     1  UNL1       -0.0000
      6 C         -26.2320   -4.6110   29.7840 C.2     1  UNL1       -0.0003
      7 C         -26.1550   -3.2320   30.0650 C.2     1  UNL1       -0.0029
      8 C         -25.3870   -0.6790   31.5710 C.3     1  UNL1        0.0916
      9 C         -25.1890    0.7730   32.0280 C.3     1  UNL1        0.0206
     10 C         -25.3360    0.6840   33.5440 C.3     1  UNL1        0.0203
     11 C         -24.8290   -0.7150   33.9050 C.3     1  UNL1        0.0888
     12 N         -24.7580   -1.4810   32.6460 N.3     1  UNL1       -0.2178
     13 C         -25.6880    1.6140   26.4610 C.3     1  UNL1        0.1042
     14 C         -26.2500    2.9200   26.3950 C.2     1  UNL1        0.0574
     15 C         -25.6420    4.0930   27.1230 C.2     1  UNL1        0.2625
     16 N         -25.6140    5.2520   26.4490 N.am    1  UNL1       -0.2000
     17 C         -25.0260    6.4790   26.9630 C.3     1  UNL1        0.1388
     18 O         -25.1430    3.9660   28.2430 O.2     1  UNL1       -0.2687
     19 C         -27.4380    3.0910   25.6450 C.2     1  UNL1        0.1022
     20 N         -28.0750    2.0890   25.0030 N.2     1  UNL1       -0.2119
     21 C         -27.5430    0.8490   25.0790 C.2     1  UNL1        0.2342
     22 O         -28.1930   -0.2080   24.4770 O.2     1  UNL1       -0.4585
     23 C         -29.4600    0.0050   23.8660 C.3     1  UNL1        0.2423
     24 C         -30.0650   -1.3770   23.5730 C.3     1  UNL1        0.2292
     25 O         -30.7290   -1.8780   24.7210 O.3     1  UNL1       -0.2162
     26 C         -26.3540    0.5760   25.7770 C.3     1  UNL1        0.2426
     27 F         -25.8600   -0.6810   25.7950 F       1  UNL1       -0.2268
     28 O         -22.1509    1.3717   26.5464 O.3     1  UNL1       -0.4480
     29 N         -24.5907    0.0618   29.2458 N.3     1  UNL1       -0.2541
     30 O         -25.2420    3.9251   30.6956 O.3     1  UNL1       -0.2203
     31 C         -26.8907    0.1002   28.7821 C.1     1  UNL1        0.0887
     32 O         -21.8805   -0.9758   30.0223 O.3     1  UNL1       -0.2210
     33 C         -24.3687    1.6707   26.8305 C.3     1  UNL1        0.2004
     34 O         -20.3774    2.4114   27.7452 O.2     1  UNL1       -0.2500
     35 N         -27.7092   -0.5540   28.7982 N.1     1  UNL1       -0.1945
     36 C         -22.0864   -0.1290   29.0130 C.3     1  UNL1        0.1812
     37 C         -25.5857    2.0988   29.1473 C.3     1  UNL1        0.0671
     38 C         -26.1817    3.0906   30.0566 C.3     1  UNL1        0.1846
     39 C         -23.3380    0.5545   28.5980 C.3     1  UNL1        0.1327
     40 C         -25.6865    0.7864   29.0245 C.3     1  UNL1        0.1531
     41 C         -23.2140    0.9694   27.3401 C.3     1  UNL1        0.2163
     42 C         -20.8341    1.2334   27.2782 C.2     1  UNL1        0.3197
     43 C         -20.7107    0.0591   28.1921 C.3     1  UNL1        0.1438
     44 O         -23.5518    3.0011   26.1070 O.3     1  UNL1       -0.2188
@<TRIPOS>BOND
     1     1    29    1
     2     2     7    1
     3     2     1    1
     4     3     2    2
     5     4     3    1
     6     4     5    2
     7     5     6    1
     8     6     7    2
     9     8     1    1
    10     8     9    1
    11     8    12    1
    12     9    10    1
    13    10    11    1
    14    12    11    1
    15    13    33    1
    16    14    13    1
    17    14    15    1
    18    15    18    2
    19    16    17    1
    20    16    15    1
    21    19    14    2
    22    20    21    2
    23    20    19    1
    24    21    26    1
    25    22    21    1
    26    23    22    1
    27    24    23    1
    28    24    25    1
    29    26    27    1
    30    26    13    1
    31    28    42    1
    32    28    41    1
    33    31    35    3
    34    33    44    1
    35    36    32    1
    36    37    38    1
    37    38    30    1
    38    39    36    1
    39    39    29    1
    40    40    31    1
    41    40    37    1
    42    40    29    1
    43    41    33    1
    44    41    39    1
    45    42    34    2
    46    42    43    1
    47    43    36    1
