@<TRIPOS>MOLECULE
No_3947-gen_results/8p0m/2024-11-27-11-27-31/
 16 17 0 0 0
SMALL
GASTEIGER

@<TRIPOS>ATOM
      1 C         -28.0162   -0.8135   28.8779 C.ar    1  UNL1        0.0002
      2 C         -27.0636   -0.1189   28.6079 C.ar    1  UNL1        0.0000
      3 C         -26.9716    0.7139   27.5060 C.ar    1  UNL1        0.0004
      4 C         -28.1053    0.7744   26.6421 C.ar    1  UNL1        0.0056
      5 C         -29.2041    0.1179   27.0477 C.ar    1  UNL1        0.0678
      6 C         -29.2127   -0.6088   28.1281 C.ar    1  UNL1        0.0056
      7 C         -30.3709    0.2326   26.1381 C.2     1  UNL1        0.3334
      8 O         -31.2520   -0.4036   26.3042 O.2     1  UNL1       -0.2541
      9 F         -30.3110    0.9835   25.0427 F       1  UNL1       -0.1586
     10 C         -25.6686    1.4039   27.1268 C.ar    1  UNL1        0.0080
     11 C         -24.5540    1.0515   27.8138 C.ar    1  UNL1        0.0975
     12 C         -24.5932    0.0831   28.8407 C.ar    1  UNL1        0.0080
     13 C         -25.7144   -0.4627   29.2694 C.ar    1  UNL1        0.0003
     14 C         -23.2448    1.7376   27.5000 C.2     1  UNL1        0.4766
     15 N         -22.0812    1.3120   28.0061 N.pl3   1  UNL1        0.2047
     16 N         -23.2230    2.7083   26.5686 N.pl3   1  UNL1        0.2047
@<TRIPOS>BOND
     1     5     7    1
     2     7     8    2
     3     7     9    1
     4    11    14    1
     5    14    15    2
     6    14    16    1
     7     3    10   ar
     8    10    11   ar
     9    11    12   ar
    10    12    13   ar
    11    13     2   ar
    12     1     2   ar
    13     2     3   ar
    14     3     4   ar
    15     4     5   ar
    16     5     6   ar
    17     6     1   ar
