@<TRIPOS>MOLECULE
No_395-gen_results/8p0m/2024-11-27-11-27-31/
 26 27 0 0 0
SMALL
GASTEIGER

@<TRIPOS>ATOM
      1 C         -28.0162   -0.8135   28.8779 C.ar    1  UNL1        0.0114
      2 C         -28.4690   -0.7850   29.8287 C.ar    1  UNL1        0.0577
      3 C         -27.0871    0.2903   28.6377 C.ar    1  UNL1        0.0007
      4 C         -26.8317    1.2487   29.5869 C.ar    1  UNL1        0.0000
      5 C         -28.3914    0.0801   31.0065 C.ar    1  UNL1        0.0114
      6 C         -27.4940    1.1521   30.7841 C.ar    1  UNL1        0.0009
      7 C         -26.3172    0.3994   27.3653 C.ar    1  UNL1        0.0023
      8 C         -24.9405    0.2550   27.5028 C.ar    1  UNL1       -0.0209
      9 C         -26.9129    0.5860   26.1397 C.ar    1  UNL1        0.0758
     10 C         -26.1769    0.4192   24.9937 C.ar    1  UNL1        0.0064
     11 C         -24.1017    0.5240   26.3568 C.ar    1  UNL1       -0.0042
     12 C         -24.7643    0.5306   25.0844 C.ar    1  UNL1       -0.0001
     13 C         -28.3662    0.4705   26.0088 C.2     1  UNL1        0.3481
     14 O         -28.9377    0.0843   25.0190 O.2     1  UNL1       -0.2444
     15 O         -29.1035    1.2609   26.8550 O.3     1  UNL1       -0.3814
     16 CL        -29.6228   -2.1736   30.2479 Cl      1  UNL1       -0.0822
     17 C         -30.4847    1.2186   26.8472 C.2     1  UNL1        0.4290
     18 C         -31.1510    2.2748   26.5296 C.2     1  UNL1        0.4626
     19 O         -30.5821    3.3131   26.4823 O.co2   1  UNL1       -0.2332
     20 O         -32.3765    2.2041   26.2639 O.co2   1  UNL1       -0.2332
     21 O         -30.9325    0.1118   27.2738 O.2     1  UNL1       -0.2369
     22 C         -24.1561    0.2376   28.7564 C.3     1  UNL1        0.0414
     23 C         -23.5609   -0.9544   29.0804 C.3     1  UNL1        0.0958
     24 C         -23.9841   -2.0281   29.2764 C.1     1  UNL1        0.0724
     25 C         -22.0534   -0.7648   29.1526 C.3     1  UNL1        0.0165
     26 N         -24.7211   -2.9305   29.5213 N.1     1  UNL1       -0.1959
@<TRIPOS>BOND
     1     3     7    1
     2     9    13    1
     3    13    14    2
     4    13    15    1
     5     2    16    1
     6    15    17    1
     7    17    18    1
     8    18    19   ar
     9    18    20   ar
    10    17    21    2
    11     8    22    1
    12    22    23    1
    13    23    24    1
    14    23    25    1
    15    24    26    3
    16     7     8   ar
    17     8    11   ar
    18    11    12   ar
    19    12    10   ar
    20    10     9   ar
    21     9     7   ar
    22     1     2   ar
    23     2     5   ar
    24     5     6   ar
    25     6     4   ar
    26     4     3   ar
    27     3     1   ar
