@<TRIPOS>MOLECULE
No_3953-gen_results/8p0m/2024-11-27-11-27-31/
 12 12 0 0 0
SMALL
GASTEIGER

@<TRIPOS>ATOM
      1 C         -28.0162   -0.8135   28.8779 C.2     1  UNL1        0.2536
      2 CL        -28.6209   -1.1855   29.7353 Cl      1  UNL1       -0.0382
      3 C         -26.5231   -0.7877   28.9754 C.ar    1  UNL1        0.0502
      4 C         -25.8110   -1.8464   29.5517 C.ar    1  UNL1        0.0041
      5 C         -24.4574   -1.9291   29.7249 C.ar    1  UNL1        0.0017
      6 C         -23.6372   -0.8542   29.2265 C.ar    1  UNL1        0.0187
      7 C         -22.2182   -0.7376   29.3371 C.2     1  UNL1        0.0932
      8 C         -24.2735    0.2820   28.5204 C.ar    1  UNL1        0.0017
      9 C         -25.6563    0.2598   28.4669 C.ar    1  UNL1        0.0041
     10 O         -28.3742    0.1916   28.0274 O.2     1  UNL1       -0.2739
     11 N         -21.5162    0.1720   28.6437 N.2     1  UNL1       -0.2668
     12 C         -20.1949    0.0959   28.7288 C.3     1  UNL1        0.1517
@<TRIPOS>BOND
     1     1     2    1
     2     1     3    1
     3     6     7    1
     4     1    10    2
     5     7    11    2
     6    11    12    1
     7     3     4   ar
     8     4     5   ar
     9     5     6   ar
    10     6     8   ar
    11     8     9   ar
    12     9     3   ar
