@<TRIPOS>MOLECULE
outputs/IAG933/test6/raw/output_3954_IAG933_linker_design_.xyz
 46 49 0 0 0
SMALL
GASTEIGER

@<TRIPOS>ATOM
      1 C         -24.8550   -1.0120   30.1430 C.3     1  UNL1        0.1538
      2 C         -24.9730   -2.5050   29.7880 C.2     1  UNL1        0.0059
      3 C         -23.9060   -3.1730   29.1460 C.2     1  UNL1       -0.0019
      4 C         -23.9890   -4.5490   28.8530 C.2     1  UNL1       -0.0002
      5 C         -25.1370   -5.2800   29.2050 C.2     1  UNL1       -0.0000
      6 C         -26.2320   -4.6110   29.7840 C.2     1  UNL1       -0.0002
      7 C         -26.1550   -3.2320   30.0650 C.2     1  UNL1       -0.0019
      8 C         -25.3870   -0.6790   31.5710 C.3     1  UNL1        0.1041
      9 C         -25.1890    0.7730   32.0280 C.3     1  UNL1        0.0217
     10 C         -25.3360    0.6840   33.5440 C.3     1  UNL1        0.0203
     11 C         -24.8290   -0.7150   33.9050 C.3     1  UNL1        0.0888
     12 N         -24.7580   -1.4810   32.6460 N.3     1  UNL1       -0.2166
     13 C         -25.6880    1.6140   26.4610 C.2     1  UNL1        0.0407
     14 C         -26.2500    2.9200   26.3950 C.2     1  UNL1        0.0744
     15 C         -25.6420    4.0930   27.1230 C.2     1  UNL1        0.2232
     16 N         -25.6140    5.2520   26.4490 N.2     1  UNL1       -0.2356
     17 C         -25.0260    6.4790   26.9630 C.3     1  UNL1        0.1550
     18 O         -25.1430    3.9660   28.2430 O.2     1  UNL1       -0.4440
     19 C         -27.4380    3.0910   25.6450 C.2     1  UNL1        0.1068
     20 N         -28.0750    2.0890   25.0030 N.2     1  UNL1       -0.2081
     21 C         -27.5430    0.8490   25.0790 C.2     1  UNL1        0.2533
     22 O         -28.1930   -0.2080   24.4770 O.2     1  UNL1       -0.4558
     23 C         -29.4600    0.0050   23.8660 C.3     1  UNL1        0.2426
     24 C         -30.0650   -1.3770   23.5730 C.3     1  UNL1        0.2292
     25 O         -30.7290   -1.8780   24.7210 O.3     1  UNL1       -0.2162
     26 C         -26.3540    0.5760   25.7770 C.2     1  UNL1        0.1931
     27 F         -25.8600   -0.6810   25.7950 F       1  UNL1       -0.1992
     28 C         -22.9198    1.8945   27.5454 C.3     1  UNL1        0.2660
     29 C         -26.2531    3.9045   32.8144 C.3     1  UNL1        0.1711
     30 C         -22.7040    0.0258   29.1985 C.3     1  UNL1        0.2102
     31 O         -23.6814    2.5738   28.4018 O.3     1  UNL1       -0.3302
     32 C         -23.9309    6.2515   33.2335 C.3     1  UNL1        0.2404
     33 O         -24.8501    3.8773   33.3496 O.3     1  UNL1       -0.3477
     34 C         -24.6116    5.1004   34.0198 C.3     1  UNL1        0.1895
     35 C         -25.3996    3.5369   29.6926 C.3     1  UNL1        0.2731
     36 C         -24.5489    2.2884   29.4319 C.3     1  UNL1        0.2062
     37 C         -22.2477    0.8664   28.0802 C.2     1  UNL1        0.2220
     38 C         -26.4256    4.9349   31.6185 C.3     1  UNL1        0.2041
     39 N         -22.5546    2.6512   25.1109 N.1     1  UNL1       -0.1929
     40 O         -21.0379    0.7365   27.7122 O.2     1  UNL1       -0.2897
     41 O         -24.9629    6.8674   32.3757 O.3     1  UNL1       -0.4447
     42 C         -25.5308    5.9393   31.4267 C.2     1  UNL1        0.3357
     43 C         -22.7309    2.2358   26.2212 C.1     1  UNL1        0.1104
     44 N         -26.6598    4.1471   30.3810 N.3     1  UNL1       -0.1655
     45 O         -24.0642   -0.3814   29.2119 O.3     1  UNL1       -0.3424
     46 O         -25.1896    6.1925   30.2162 O.2     1  UNL1       -0.2485
@<TRIPOS>BOND
     1     1    45    1
     2     2     7    1
     3     2     1    1
     4     3     2    2
     5     4     3    1
     6     4     5    2
     7     5     6    1
     8     6     7    2
     9     8     1    1
    10     8     9    1
    11     8    12    1
    12     9    10    1
    13    10    11    1
    14    12    11    1
    15    14    13    1
    16    14    15    1
    17    15    18    1
    18    16    17    1
    19    16    15    2
    20    18    35    1
    21    19    14    2
    22    20    21    2
    23    20    19    1
    24    21    26    1
    25    22    21    1
    26    23    22    1
    27    24    23    1
    28    24    25    1
    29    26    27    1
    30    26    13    2
    31    28    43    1
    32    28    37    1
    33    28    31    1
    34    29    33    1
    35    30    45    1
    36    31    36    1
    37    32    34    1
    38    33    34    1
    39    35    36    1
    40    35    44    1
    41    37    30    1
    42    38    44    1
    43    38    29    1
    44    39    43    3
    45    40    37    2
    46    41    32    1
    47    42    38    1
    48    42    41    1
    49    46    42    2
