@<TRIPOS>MOLECULE
outputs/IAG933/test6/raw/output_3955_IAG933_linker_design_.xyz
 43 46 0 0 0
SMALL
GASTEIGER

@<TRIPOS>ATOM
      1 C         -24.8550   -1.0120   30.1430 C.3     1  UNL1        0.0544
      2 C         -24.9730   -2.5050   29.7880 C.2     1  UNL1       -0.0198
      3 C         -23.9060   -3.1730   29.1460 C.2     1  UNL1       -0.0042
      4 C         -23.9890   -4.5490   28.8530 C.2     1  UNL1       -0.0003
      5 C         -25.1370   -5.2800   29.2050 C.2     1  UNL1       -0.0000
      6 C         -26.2320   -4.6110   29.7840 C.2     1  UNL1       -0.0003
      7 C         -26.1550   -3.2320   30.0650 C.2     1  UNL1       -0.0042
      8 C         -25.3870   -0.6790   31.5710 C.3     1  UNL1        0.0797
      9 C         -25.1890    0.7730   32.0280 C.3     1  UNL1        0.0374
     10 C         -25.3360    0.6840   33.5440 C.3     1  UNL1        0.0219
     11 C         -24.8290   -0.7150   33.9050 C.3     1  UNL1        0.0888
     12 N         -24.7580   -1.4810   32.6460 N.3     1  UNL1       -0.2190
     13 C         -25.6880    1.6140   26.4610 C.3     1  UNL1        0.1079
     14 C         -26.2500    2.9200   26.3950 C.2     1  UNL1        0.0581
     15 C         -25.6420    4.0930   27.1230 C.2     1  UNL1        0.2626
     16 N         -25.6140    5.2520   26.4490 N.am    1  UNL1       -0.2000
     17 C         -25.0260    6.4790   26.9630 C.3     1  UNL1        0.1388
     18 O         -25.1430    3.9660   28.2430 O.2     1  UNL1       -0.2687
     19 C         -27.4380    3.0910   25.6450 C.2     1  UNL1        0.1023
     20 N         -28.0750    2.0890   25.0030 N.2     1  UNL1       -0.2119
     21 C         -27.5430    0.8490   25.0790 C.2     1  UNL1        0.2342
     22 O         -28.1930   -0.2080   24.4770 O.2     1  UNL1       -0.4585
     23 C         -29.4600    0.0050   23.8660 C.3     1  UNL1        0.2423
     24 C         -30.0650   -1.3770   23.5730 C.3     1  UNL1        0.2292
     25 O         -30.7290   -1.8780   24.7210 O.3     1  UNL1       -0.2162
     26 C         -26.3540    0.5760   25.7770 C.3     1  UNL1        0.2433
     27 F         -25.8600   -0.6810   25.7950 F       1  UNL1       -0.2268
     28 O         -27.0255    5.7430   32.2754 O.2     1  UNL1       -0.2698
     29 C         -24.7193    1.4959   27.4124 C.3     1  UNL1        0.1695
     30 C         -25.6229    3.7504   32.3872 C.3     1  UNL1        0.1829
     31 N         -26.1013    3.0584   31.2204 N.am    1  UNL1       -0.2641
     32 C         -27.3632    2.9618   30.6108 C.2     1  UNL1        0.3033
     33 C         -22.5548    1.9435   26.6338 C.2     1  UNL1        0.0337
     34 N         -24.6247    1.1166   28.7716 N.3     1  UNL1       -0.2527
     35 N         -25.1403    5.8423   33.5757 N.am    1  UNL1       -0.0863
     36 C         -25.6085    1.7848   30.9302 C.3     1  UNL1        0.0936
     37 O         -28.1275    2.2667   30.6892 O.2     1  UNL1       -0.2649
     38 C         -25.9949    5.2123   32.7554 C.2     1  UNL1        0.2810
     39 N         -23.7439    1.8650   26.7820 N.2     1  UNL1       -0.2640
     40 C         -24.3186    1.9169   29.9560 C.3     1  UNL1        0.0936
     41 C         -21.6749    1.6233   27.7935 C.3     1  UNL1        0.0469
     42 C         -25.2803   -0.1721   28.9734 C.3     1  UNL1        0.0795
     43 C         -21.9243    2.4235   25.3882 C.3     1  UNL1        0.0469
@<TRIPOS>BOND
     1     1     2    1
     2     1     8    1
     3     2     7    1
     4     3     2    2
     5     4     3    1
     6     4     5    2
     7     5     6    1
     8     6     7    2
     9     8     9    1
    10     8    12    1
    11     9    10    1
    12    10    11    1
    13    12    11    1
    14    13    29    1
    15    14    13    1
    16    14    15    1
    17    15    18    2
    18    16    17    1
    19    16    15    1
    20    19    14    2
    21    20    21    2
    22    20    19    1
    23    21    26    1
    24    22    21    1
    25    23    22    1
    26    24    23    1
    27    24    25    1
    28    26    27    1
    29    26    13    1
    30    28    38    2
    31    29    39    1
    32    29    34    1
    33    30    38    1
    34    31    30    1
    35    32    37    2
    36    32    31   am
    37    33    39    2
    38    33    41    1
    39    34    42    1
    40    34    40    1
    41    36    31    1
    42    36     9    1
    43    38    35    1
    44    40    36    1
    45    42     1    1
    46    43    33    1
