@<TRIPOS>MOLECULE
No_3957-gen_results/8p0m/2024-11-27-11-27-31/
 17 18 0 0 0
SMALL
GASTEIGER

@<TRIPOS>ATOM
      1 C         -28.0162   -0.8135   28.8779 C.ar    1  UNL1       -0.0040
      2 C         -28.4690   -0.7850   29.8287 C.ar    1  UNL1       -0.0003
      3 C         -27.1356    0.2359   28.5352 C.ar    1  UNL1       -0.0184
      4 C         -26.8745    1.2825   29.3982 C.ar    1  UNL1       -0.0040
      5 C         -27.5070    1.2380   30.6295 C.ar    1  UNL1       -0.0003
      6 C         -28.3293    0.1745   30.9350 C.ar    1  UNL1       -0.0000
      7 C         -26.4077    0.3070   27.2259 C.3     1  UNL1        0.0442
      8 C         -25.0105    0.3902   27.3228 C.ar    1  UNL1       -0.0224
      9 C         -24.3683    0.2207   28.5237 C.ar    1  UNL1       -0.0043
     10 C         -22.9115    0.5661   28.5067 C.ar    1  UNL1       -0.0003
     11 C         -22.3754    1.3436   27.5093 C.ar    1  UNL1       -0.0003
     12 C         -23.1359    1.7132   26.4149 C.ar    1  UNL1       -0.0046
     13 C         -24.4719    1.2805   26.2983 C.ar    1  UNL1       -0.0255
     14 C         -27.1106    1.1351   26.2947 C.3     1  UNL1        0.0081
     15 C         -28.2730    0.7438   25.8951 C.3     1  UNL1        0.0007
     16 C         -26.5872    2.3661   25.8616 C.3     1  UNL1        0.0007
     17 C         -25.0599    1.2819   25.0488 C.3     1  UNL1        0.0307
@<TRIPOS>BOND
     1     3     7    1
     2     7    14    1
     3    14    15    1
     4    14    16    1
     5    13    17    1
     6     7     8    1
     7     1     2   ar
     8     2     6   ar
     9     6     5   ar
    10     5     4   ar
    11     4     3   ar
    12     3     1   ar
    13     8     9   ar
    14     9    10   ar
    15    10    11   ar
    16    11    12   ar
    17    12    13   ar
    18    13     8   ar
