@<TRIPOS>MOLECULE
outputs/IAG933/test6/raw/output_3959_IAG933_linker_design_.xyz
 43 46 0 0 0
SMALL
GASTEIGER

@<TRIPOS>ATOM
      1 C         -24.8550   -1.0120   30.1430 C.3     1  UNL1        0.0557
      2 C         -24.9730   -2.5050   29.7880 C.2     1  UNL1       -0.0197
      3 C         -23.9060   -3.1730   29.1460 C.2     1  UNL1       -0.0042
      4 C         -23.9890   -4.5490   28.8530 C.2     1  UNL1       -0.0003
      5 C         -25.1370   -5.2800   29.2050 C.2     1  UNL1       -0.0000
      6 C         -26.2320   -4.6110   29.7840 C.2     1  UNL1       -0.0003
      7 C         -26.1550   -3.2320   30.0650 C.2     1  UNL1       -0.0042
      8 C         -25.3870   -0.6790   31.5710 C.3     1  UNL1        0.0782
      9 C         -25.1890    0.7730   32.0280 C.3     1  UNL1        0.0192
     10 C         -25.3360    0.6840   33.5440 C.3     1  UNL1        0.0202
     11 C         -24.8290   -0.7150   33.9050 C.3     1  UNL1        0.0887
     12 N         -24.7580   -1.4810   32.6460 N.3     1  UNL1       -0.2191
     13 C         -25.6880    1.6140   26.4610 C.3     1  UNL1        0.1284
     14 C         -26.2500    2.9200   26.3950 C.2     1  UNL1        0.0696
     15 C         -25.6420    4.0930   27.1230 C.2     1  UNL1        0.2637
     16 N         -25.6140    5.2520   26.4490 N.am    1  UNL1       -0.2000
     17 C         -25.0260    6.4790   26.9630 C.3     1  UNL1        0.1388
     18 O         -25.1430    3.9660   28.2430 O.2     1  UNL1       -0.2686
     19 C         -27.4380    3.0910   25.6450 C.2     1  UNL1        0.1035
     20 N         -28.0750    2.0890   25.0030 N.2     1  UNL1       -0.2118
     21 C         -27.5430    0.8490   25.0790 C.2     1  UNL1        0.2355
     22 O         -28.1930   -0.2080   24.4770 O.2     1  UNL1       -0.4585
     23 C         -29.4600    0.0050   23.8660 C.3     1  UNL1        0.2423
     24 C         -30.0650   -1.3770   23.5730 C.3     1  UNL1        0.2292
     25 O         -30.7290   -1.8780   24.7210 O.3     1  UNL1       -0.2162
     26 C         -26.3540    0.5760   25.7770 C.3     1  UNL1        0.2546
     27 F         -25.8600   -0.6810   25.7950 F       1  UNL1       -0.2254
     28 C         -22.6970    1.9412   26.7763 C.3     1  UNL1        0.0616
     29 C         -28.8745    1.6862   29.4527 C.3     1  UNL1        0.0933
     30 C         -23.6905    1.3320   27.4880 C.3     1  UNL1        0.0796
     31 N         -21.2177    0.9273   28.2493 N.am    1  UNL1       -0.1749
     32 C         -28.5467    4.2748   29.3653 C.3     1  UNL1        0.2590
     33 C         -21.3814    1.7251   27.1656 C.2     1  UNL1        0.0641
     34 N         -24.7845    1.4062   27.4417 N.3     1  UNL1       -0.2659
     35 O         -27.5094    4.1140   30.3197 O.3     1  UNL1       -0.2005
     36 C         -30.5557    3.1436   28.2624 C.3     1  UNL1        0.0918
     37 C         -24.4455    0.8215   28.6116 C.3     1  UNL1        0.0893
     38 C         -25.1428    0.1574   29.1758 C.3     1  UNL1        0.0940
     39 N         -29.1854    3.0178   28.7886 N.3     1  UNL1       -0.2421
     40 N         -26.4399    0.5588   29.2933 N.3     1  UNL1       -0.2162
     41 O         -22.3461   -0.1001   29.9585 O.2     1  UNL1       -0.2629
     42 C         -27.6205    1.0615   29.4310 C.3     1  UNL1        0.1061
     43 C         -22.1951    0.4911   29.0157 C.2     1  UNL1        0.3244
@<TRIPOS>BOND
     1     1    38    1
     2     2     7    1
     3     2     1    1
     4     3     2    2
     5     4     3    1
     6     4     5    2
     7     5     6    1
     8     6     7    2
     9     8     1    1
    10     8     9    1
    11     8    12    1
    12     9    10    1
    13    10    11    1
    14    12    11    1
    15    13    14    1
    16    14    15    1
    17    15    18    2
    18    16    17    1
    19    16    15    1
    20    19    14    2
    21    20    21    2
    22    20    19    1
    23    21    26    1
    24    22    21    1
    25    23    22    1
    26    24    23    1
    27    24    25    1
    28    26    27    1
    29    26    13    1
    30    28    33    1
    31    30    28    1
    32    30    37    1
    33    31    43    1
    34    32    35    1
    35    33    31    2
    36    34    13    1
    37    34    30    1
    38    34    37    1
    39    36    39    1
    40    37    38    1
    41    38    40    1
    42    39    32    1
    43    39    29    1
    44    40    42    1
    45    42    29    1
    46    43    41    2
