@<TRIPOS>MOLECULE
No_396-gen_results/8p0m/2024-11-27-11-27-31/
 24 25 0 0 0
SMALL
GASTEIGER

@<TRIPOS>ATOM
      1 F         -28.0727   -1.2542   28.5316 F       1  UNL1       -0.2018
      2 C         -28.2662   -0.4214   29.1931 C.ar    1  UNL1        0.1673
      3 C         -29.4445    0.0759   29.3394 C.ar    1  UNL1        0.0385
      4 C         -29.7073    1.1743   30.2277 C.ar    1  UNL1        0.0818
      5 C         -28.5970    1.7109   30.9110 C.ar    1  UNL1        0.0047
      6 C         -27.3024    1.1821   30.7905 C.ar    1  UNL1        0.0074
      7 C         -27.1217    0.1218   29.9802 C.ar    1  UNL1        0.1634
      8 F         -25.9582   -0.4045   29.8317 F       1  UNL1       -0.2021
      9 C         -31.0370    1.7460   30.3754 C.2     1  UNL1        0.3878
     10 O         -31.3310    2.7306   30.7748 O.co2   1  UNL1       -0.2406
     11 O         -31.9505    0.7514   30.2369 O.co2   1  UNL1       -0.2406
     12 C         -26.1768    1.7653   31.5610 C.3     1  UNL1        0.0255
     13 C         -24.9759    1.8171   31.0647 C.3     1  UNL1        0.0167
     14 C         -26.4939    2.3339   32.8743 C.3     1  UNL1        0.0059
     15 C         -24.2582    3.0110   30.8665 C.3     1  UNL1        0.0680
     16 BR        -23.1325    2.9254   29.5679 Br      1  UNL1       -0.0808
     17 C         -26.4049    3.7323   32.9315 C.3     1  UNL1        0.0182
     18 C         -26.4424    4.1202   34.3267 C.3     1  UNL1        0.0887
     19 N         -25.9728    5.3845   34.6351 N.3     1  UNL1       -0.2176
     20 C         -26.4070    6.4193   33.9422 C.3     1  UNL1        0.0964
     21 C         -26.3447    6.1652   32.4603 C.3     1  UNL1        0.0823
     22 C         -26.3757    4.7840   32.0139 C.3     1  UNL1        0.0107
     23 C         -26.3522    7.2089   31.4966 C.2     1  UNL1        0.2084
     24 O         -25.6440    8.0323   31.4658 O.2     1  UNL1       -0.2883
@<TRIPOS>BOND
     1     1     2    1
     2     7     8    1
     3     4     9    1
     4     9    10   ar
     5     9    11   ar
     6     6    12    1
     7    12    13    1
     8    12    14    1
     9    13    15    1
    10    15    16    1
    11    14    17    1
    12    17    18    1
    13    18    19    1
    14    19    20    1
    15    20    21    1
    16    17    22    1
    17    21    22    1
    18    21    23    1
    19    23    24    2
    20     2     3   ar
    21     3     4   ar
    22     4     5   ar
    23     5     6   ar
    24     6     7   ar
    25     7     2   ar
