@<TRIPOS>MOLECULE
outputs/IAG933/test6/raw/output_3962_IAG933_linker_design_.xyz
 44 49 0 0 0
SMALL
GASTEIGER

@<TRIPOS>ATOM
      1 C         -24.8550   -1.0120   30.1430 C.3     1  UNL1        0.0763
      2 C         -24.9730   -2.5050   29.7880 C.2     1  UNL1       -0.0158
      3 C         -23.9060   -3.1730   29.1460 C.2     1  UNL1       -0.0039
      4 C         -23.9890   -4.5490   28.8530 C.2     1  UNL1       -0.0003
      5 C         -25.1370   -5.2800   29.2050 C.2     1  UNL1       -0.0000
      6 C         -26.2320   -4.6110   29.7840 C.2     1  UNL1       -0.0003
      7 C         -26.1550   -3.2320   30.0650 C.2     1  UNL1       -0.0039
      8 C         -25.3870   -0.6790   31.5710 C.3     1  UNL1        0.0821
      9 C         -25.1890    0.7730   32.0280 C.3     1  UNL1        0.0196
     10 C         -25.3360    0.6840   33.5440 C.3     1  UNL1        0.0203
     11 C         -24.8290   -0.7150   33.9050 C.3     1  UNL1        0.0887
     12 N         -24.7580   -1.4810   32.6460 N.3     1  UNL1       -0.2188
     13 C         -25.6880    1.6140   26.4610 C.3     1  UNL1        0.1440
     14 C         -26.2500    2.9200   26.3950 C.2     1  UNL1        0.0731
     15 C         -25.6420    4.0930   27.1230 C.2     1  UNL1        0.2640
     16 N         -25.6140    5.2520   26.4490 N.am    1  UNL1       -0.1999
     17 C         -25.0260    6.4790   26.9630 C.3     1  UNL1        0.1388
     18 O         -25.1430    3.9660   28.2430 O.2     1  UNL1       -0.2686
     19 C         -27.4380    3.0910   25.6450 C.2     1  UNL1        0.1038
     20 N         -28.0750    2.0890   25.0030 N.2     1  UNL1       -0.2118
     21 C         -27.5430    0.8490   25.0790 C.2     1  UNL1        0.2358
     22 O         -28.1930   -0.2080   24.4770 O.2     1  UNL1       -0.4585
     23 C         -29.4600    0.0050   23.8660 C.3     1  UNL1        0.2423
     24 C         -30.0650   -1.3770   23.5730 C.3     1  UNL1        0.2292
     25 O         -30.7290   -1.8780   24.7210 O.3     1  UNL1       -0.2162
     26 C         -26.3540    0.5760   25.7770 C.3     1  UNL1        0.2580
     27 F         -25.8600   -0.6810   25.7950 F       1  UNL1       -0.2251
     28 C         -29.1315   -0.2679   28.3852 C.2     1  UNL1       -0.0045
     29 C         -25.5230    0.6249   28.3989 C.3     1  UNL1        0.1326
     30 C         -23.0210    1.7004   25.8209 C.ar    1  UNL1        0.3683
     31 S         -21.1600    1.5748   27.4247 S.2     1  UNL1        0.1194
     32 C         -29.6459    0.6327   29.3027 C.2     1  UNL1       -0.0219
     33 O         -21.7288    1.9516   25.8095 O.2     1  UNL1       -0.3795
     34 N         -23.0378    0.2133   28.8458 N.2     1  UNL1       -0.2408
     35 C         -28.8076    1.4336   30.0157 C.2     1  UNL1       -0.0045
     36 C         -22.6687    1.0016   27.8710 C.ar    1  UNL1        0.1644
     37 N         -24.8345    1.2383   27.3627 N.pl3   1  UNL1       -0.2888
     38 C         -24.4294   -0.1207   29.0908 C.2     1  UNL1        0.0647
     39 C         -23.5537    1.3203   26.9455 C.ar    1  UNL1        0.1531
     40 C         -31.1363    0.7908   29.6110 C.3     1  UNL1        0.0310
     41 C         -27.7472   -0.3940   28.2866 C.2     1  UNL1       -0.0026
     42 O         -23.7314    1.7475   24.7606 O.2     1  UNL1       -0.2424
     43 C         -26.8863    0.4519   28.9349 C.2     1  UNL1        0.0010
     44 C         -27.4914    1.2806   29.9573 C.2     1  UNL1       -0.0026
@<TRIPOS>BOND
     1     1    38    1
     2     2     7    1
     3     2     1    1
     4     3     2    2
     5     4     3    1
     6     4     5    2
     7     5     6    1
     8     6     7    2
     9     8     1    1
    10     8     9    1
    11     8    12    1
    12     9    10    1
    13    10    11    1
    14    12    11    1
    15    13    37    1
    16    14    13    1
    17    14    15    1
    18    15    18    2
    19    16    17    1
    20    16    15    1
    21    19    14    2
    22    20    21    2
    23    20    19    1
    24    21    26    1
    25    22    21    1
    26    23    22    1
    27    24    23    1
    28    24    25    1
    29    26    27    1
    30    26    13    1
    31    28    32    1
    32    29    43    1
    33    29    38    1
    34    30    39   ar
    35    31    36   ar
    36    32    40    1
    37    32    35    2
    38    33    30   ar
    39    33    31   ar
    40    34    38    2
    41    36    34    1
    42    37    29    1
    43    39    37    1
    44    39    36   ar
    45    41    28    2
    46    41    43    1
    47    42    30    2
    48    43    44    2
    49    44    35    1
