@<TRIPOS>MOLECULE
No_3965-gen_results/8p0m/2024-11-27-11-27-31/
 13 14 0 0 0
SMALL
GASTEIGER

@<TRIPOS>ATOM
      1 C         -28.0162   -0.8135   28.8779 C.ar    1  UNL1       -0.0039
      2 C         -28.4690   -0.7850   29.8287 C.ar    1  UNL1       -0.0003
      3 C         -26.5455   -0.8762   28.8500 C.ar    1  UNL1       -0.0178
      4 C         -25.6825   -0.7773   27.6829 C.3     1  UNL1        0.0526
      5 C         -27.9181   -1.0034   31.1877 C.ar    1  UNL1       -0.0000
      6 C         -26.5308   -1.0794   31.2463 C.ar    1  UNL1       -0.0003
      7 C         -25.7798   -1.0462   30.0905 C.ar    1  UNL1       -0.0039
      8 C         -25.2322    0.5793   27.3292 C.ar    1  UNL1       -0.0178
      9 C         -23.9816    0.8698   27.7676 C.ar    1  UNL1       -0.0039
     10 C         -23.3924    2.1065   27.3568 C.ar    1  UNL1       -0.0003
     11 C         -25.9572    1.4622   26.5788 C.ar    1  UNL1       -0.0039
     12 C         -25.4499    2.6487   26.1637 C.ar    1  UNL1       -0.0003
     13 C         -24.0922    3.0041   26.5793 C.ar    1  UNL1       -0.0000
@<TRIPOS>BOND
     1     3     4    1
     2     4     8    1
     3     8     9   ar
     4     9    10   ar
     5    10    13   ar
     6    13    12   ar
     7    12    11   ar
     8    11     8   ar
     9     1     2   ar
    10     2     5   ar
    11     5     6   ar
    12     6     7   ar
    13     7     3   ar
    14     3     1   ar
