@<TRIPOS>MOLECULE
No_3969-gen_results/8p0m/2024-11-27-11-27-31/
 12 12 0 0 0
SMALL
GASTEIGER

@<TRIPOS>ATOM
      1 C         -28.0162   -0.8135   28.8779 C.ar    1  UNL1        0.0384
      2 C         -27.0636   -0.1189   28.6079 C.ar    1  UNL1        0.0145
      3 C         -25.7923   -0.4302   29.0761 C.ar    1  UNL1        0.0579
      4 C         -25.5756   -1.5654   29.9363 C.ar    1  UNL1        0.0145
      5 C         -26.7354   -2.3004   30.2173 C.ar    1  UNL1        0.0384
      6 C         -27.9184   -1.9537   29.7629 C.ar    1  UNL1        0.1455
      7 O         -29.0001   -2.7012   30.1151 O.3     1  UNL1       -0.4504
      8 CL        -24.3499    0.4889   28.7497 Cl      1  UNL1       -0.0822
      9 C         -30.0962   -2.0945   30.6138 C.2     1  UNL1        0.1795
     10 C         -31.2230   -2.5209   29.9707 C.2     1  UNL1        0.0407
     11 C         -31.2927   -3.7410   29.4536 C.2     1  UNL1        0.0032
     12 C         -32.3362   -4.1856   28.5217 C.2     1  UNL1        0.0001
@<TRIPOS>BOND
     1     6     7    1
     2     3     8    1
     3     7     9    1
     4     9    10    2
     5    10    11    1
     6    11    12    2
     7     1     2   ar
     8     2     3   ar
     9     3     4   ar
    10     4     5   ar
    11     5     6   ar
    12     6     1   ar
