@<TRIPOS>MOLECULE
outputs/IAG933/test6/raw/output_397_IAG933_linker_design_.xyz
 45 50 0 0 0
SMALL
GASTEIGER

@<TRIPOS>ATOM
      1 C         -24.8550   -1.0120   30.1430 C.3     1  UNL1        0.1018
      2 C         -24.9730   -2.5050   29.7880 C.2     1  UNL1       -0.0156
      3 C         -23.9060   -3.1730   29.1460 C.2     1  UNL1       -0.0040
      4 C         -23.9890   -4.5490   28.8530 C.2     1  UNL1       -0.0003
      5 C         -25.1370   -5.2800   29.2050 C.2     1  UNL1       -0.0000
      6 C         -26.2320   -4.6110   29.7840 C.2     1  UNL1       -0.0003
      7 C         -26.1550   -3.2320   30.0650 C.2     1  UNL1       -0.0040
      8 C         -25.3870   -0.6790   31.5710 C.3     1  UNL1        0.0837
      9 C         -25.1890    0.7730   32.0280 C.3     1  UNL1        0.0362
     10 C         -25.3360    0.6840   33.5440 C.3     1  UNL1        0.0217
     11 C         -24.8290   -0.7150   33.9050 C.3     1  UNL1        0.0888
     12 N         -24.7580   -1.4810   32.6460 N.3     1  UNL1       -0.2189
     13 C         -25.6880    1.6140   26.4610 C.2     1  UNL1        0.0352
     14 C         -26.2500    2.9200   26.3950 C.2     1  UNL1        0.0740
     15 C         -25.6420    4.0930   27.1230 C.2     1  UNL1        0.2662
     16 N         -25.6140    5.2520   26.4490 N.am    1  UNL1       -0.1997
     17 C         -25.0260    6.4790   26.9630 C.3     1  UNL1        0.1388
     18 O         -25.1430    3.9660   28.2430 O.2     1  UNL1       -0.2683
     19 C         -27.4380    3.0910   25.6450 C.2     1  UNL1        0.1065
     20 N         -28.0750    2.0890   25.0030 N.2     1  UNL1       -0.2081
     21 C         -27.5430    0.8490   25.0790 C.2     1  UNL1        0.2530
     22 O         -28.1930   -0.2080   24.4770 O.2     1  UNL1       -0.4558
     23 C         -29.4600    0.0050   23.8660 C.3     1  UNL1        0.2426
     24 C         -30.0650   -1.3770   23.5730 C.3     1  UNL1        0.2292
     25 O         -30.7290   -1.8780   24.7210 O.3     1  UNL1       -0.2162
     26 C         -26.3540    0.5760   25.7770 C.2     1  UNL1        0.1905
     27 F         -25.8600   -0.6810   25.7950 F       1  UNL1       -0.1995
     28 O         -20.7181   -0.1778   28.5846 O.2     1  UNL1       -0.2705
     29 C         -25.6400    2.2428   31.0551 C.3     1  UNL1        0.1044
     30 N         -24.5764    0.5833   28.2544 N.3     1  UNL1       -0.1161
     31 C         -23.3201    1.2691   26.4569 C.3     1  UNL1        0.1751
     32 N         -22.7337   -0.0785   29.4770 N.am    1  UNL1       -0.1619
     33 O         -23.1697    1.5820   25.1483 O.3     1  UNL1       -0.3244
     34 C         -25.1415    4.3633   32.3053 C.2     1  UNL1        0.3663
     35 O         -24.1117    3.8340   32.5473 O.co2   1  UNL1       -0.2456
     36 O         -21.3627    1.7057   26.6302 O.3     1  UNL1       -0.3172
     37 C         -22.2612    1.0444   27.3000 C.3     1  UNL1        0.2239
     38 C         -21.9510    0.4183   28.4989 C.2     1  UNL1        0.2742
     39 O         -24.4004   -0.3819   28.1211 O.3     1  UNL1       -0.2452
     40 C         -24.5166    1.2000   27.1047 C.3     1  UNL1        0.1431
     41 C         -22.2010    2.3055   25.4303 C.3     1  UNL1        0.2945
     42 N         -26.6401    1.9018   29.8872 N.3     1  UNL1       -0.1323
     43 C         -24.2991   -0.0649   28.8857 C.3     1  UNL1        0.2672
     44 O         -25.4869    5.3899   32.9207 O.co2   1  UNL1       -0.2456
     45 C         -25.9954    3.7713   31.2261 C.3     1  UNL1        0.1330
@<TRIPOS>BOND
     1     1     2    1
     2     2     7    1
     3     3     2    2
     4     4     3    1
     5     4     5    2
     6     5     6    1
     7     6     7    2
     8     8     1    1
     9     8     9    1
    10     8    12    1
    11     9    29    1
    12     9    10    1
    13    10    11    1
    14    12    11    1
    15    14    13    1
    16    14    15    1
    17    15    18    2
    18    16    17    1
    19    16    15    1
    20    19    14    2
    21    20    21    2
    22    20    19    1
    23    21    26    1
    24    22    21    1
    25    23    22    1
    26    24    23    1
    27    24    25    1
    28    26    27    1
    29    26    13    2
    30    29    42    1
    31    29    45    1
    32    30    39    1
    33    30    43    1
    34    31    33    1
    35    31    40    1
    36    31    37    1
    37    33    41    1
    38    34    35   ar
    39    34    44   ar
    40    37    36    1
    41    37    38    1
    42    38    28    2
    43    38    32    1
    44    39    43    1
    45    40    13    1
    46    40    30    1
    47    41    36    1
    48    43    32    1
    49    43     1    1
    50    45    34    1
