@<TRIPOS>MOLECULE
No_3970-gen_results/8p0m/2024-11-27-11-27-31/
 11 11 0 0 0
SMALL
GASTEIGER

@<TRIPOS>ATOM
      1 C         -28.0162   -0.8135   28.8779 C.ar    1  UNL1        0.0375
      2 C         -28.4690   -0.7850   29.8287 C.ar    1  UNL1        0.1454
      3 C         -26.5455   -0.8762   28.8500 C.ar    1  UNL1        0.0031
      4 C         -25.8041   -1.0324   30.0571 C.ar    1  UNL1        0.0002
      5 C         -27.9437   -0.9869   31.2075 C.ar    1  UNL1        0.0375
      6 C         -26.5825   -1.0386   31.2231 C.ar    1  UNL1        0.0031
      7 O         -29.9267   -0.7257   29.8772 O.3     1  UNL1       -0.4504
      8 C         -30.5256    0.4218   30.2407 C.2     1  UNL1        0.1795
      9 C         -31.6092    0.5419   29.9850 C.2     1  UNL1        0.0407
     10 C         -32.4441   -0.4513   29.3258 C.2     1  UNL1        0.0032
     11 C         -31.7376   -1.5567   28.9587 C.2     1  UNL1        0.0001
@<TRIPOS>BOND
     1     2     7    1
     2     7     8    1
     3     8     9    2
     4     9    10    1
     5    10    11    2
     6     1     2   ar
     7     2     5   ar
     8     5     6   ar
     9     6     4   ar
    10     4     3   ar
    11     3     1   ar
