@<TRIPOS>MOLECULE
No_3972-gen_results/8p0m/2024-11-27-11-27-31/
 24 26 0 0 0
SMALL
GASTEIGER

@<TRIPOS>ATOM
      1 C         -28.0162   -0.8135   28.8779 C.ar    1  UNL1        0.0369
      2 C         -28.4690   -0.7850   29.8287 C.ar    1  UNL1        0.1382
      3 C         -26.5455   -0.8762   28.8500 C.ar    1  UNL1        0.0473
      4 C         -25.8041   -1.0324   30.0571 C.ar    1  UNL1        0.0637
      5 C         -26.5373   -1.0386   31.2171 C.ar    1  UNL1        0.0114
      6 C         -27.8843   -0.9532   31.1862 C.ar    1  UNL1        0.0240
      7 CL        -24.1391   -1.1177   30.0459 Cl      1  UNL1       -0.0817
      8 F         -29.9178   -0.7207   29.8917 F       1  UNL1       -0.2044
      9 BR        -25.4553   -0.8124   27.2625 Br      1  UNL1       -0.0480
     10 C         -28.6750   -0.9877   32.4716 C.3     1  UNL1        0.0975
     11 N         -28.1555   -0.3093   33.4452 N.pl3   1  UNL1       -0.3053
     12 C         -28.1044   -0.7761   34.6411 C.3     1  UNL1        0.0910
     13 C         -28.5178   -1.9231   34.9854 C.3     1  UNL1        0.0215
     14 C         -29.3434   -2.6216   34.0581 C.3     1  UNL1        0.0038
     15 C         -29.4133   -2.1783   32.6703 C.3     1  UNL1        0.0244
     16 C         -27.5654    1.0147   33.1363 C.ar    1  UNL1        0.0482
     17 C         -28.3324    2.0841   33.5444 C.ar    1  UNL1        0.0145
     18 C         -27.9391    3.2936   33.2120 C.ar    1  UNL1        0.0015
     19 C         -27.3720    3.5789   32.3632 C.ar    1  UNL1        0.0067
     20 C         -26.4809    2.5789   31.6903 C.ar    1  UNL1        0.0810
     21 C         -26.7193    1.2632   32.0885 C.ar    1  UNL1        0.0211
     22 C         -25.5047    2.9421   30.6306 C.2     1  UNL1        0.3878
     23 O         -25.3070    4.0346   30.2888 O.co2   1  UNL1       -0.2406
     24 O         -25.1294    1.8813   29.8340 O.co2   1  UNL1       -0.2406
@<TRIPOS>BOND
     1     4     7    1
     2     2     8    1
     3     3     9    1
     4     6    10    1
     5    10    11    1
     6    11    12    1
     7    13    14    1
     8    10    15    1
     9    11    16    1
    10    20    22    1
    11    22    23   ar
    12    22    24   ar
    13    15    14    1
    14    13    12    1
    15     1     2   ar
    16     2     6   ar
    17     6     5   ar
    18     5     4   ar
    19     4     3   ar
    20     3     1   ar
    21    16    17   ar
    22    17    18   ar
    23    18    19   ar
    24    19    20   ar
    25    20    21   ar
    26    21    16   ar
