@<TRIPOS>MOLECULE
No_3977-gen_results/8p0m/2024-11-27-11-27-31/
 23 25 0 0 0
SMALL
GASTEIGER

@<TRIPOS>ATOM
      1 C         -28.0162   -0.8135   28.8779 C.ar    1  UNL1        0.0046
      2 C         -28.4690   -0.7850   29.8287 C.ar    1  UNL1        0.0554
      3 C         -26.5042   -0.7777   28.8766 C.ar    1  UNL1        0.0001
      4 C         -25.8103   -0.8531   30.1028 C.ar    1  UNL1        0.0000
      5 C         -27.9906   -0.8916   31.2257 C.ar    1  UNL1        0.0046
      6 C         -26.6042   -0.8676   31.2652 C.ar    1  UNL1        0.0001
      7 C         -30.0739   -0.8360   29.8615 C.2     1  UNL1        0.2704
      8 N         -30.7170    0.0956   30.4784 N.am    1  UNL1       -0.1542
      9 C         -31.4241    0.8594   30.2262 C.ar    1  UNL1        0.1865
     10 C         -32.0927    1.8304   31.1102 C.ar    1  UNL1        0.1925
     11 N         -31.8033    1.0084   28.8464 N.ar    1  UNL1       -0.1919
     12 F         -31.8597    1.6944   32.3046 F       1  UNL1       -0.1995
     13 C         -32.9457    2.8134   30.6582 C.ar    1  UNL1        0.1344
     14 N         -33.2334    2.8422   29.3300 N.ar    1  UNL1       -0.2071
     15 C         -32.6292    1.9782   28.4429 C.ar    1  UNL1        0.2580
     16 O         -30.6787   -1.5613   29.1246 O.2     1  UNL1       -0.2680
     17 N         -32.9002    2.0184   27.1156 N.pl3   1  UNL1       -0.0860
     18 C         -24.3878   -0.8489   30.1375 C.ar    1  UNL1        0.0000
     19 C         -23.6760   -1.3174   30.7910 C.ar    1  UNL1        0.0000
     20 C         -23.7908   -0.0342   28.9963 C.ar    1  UNL1        0.0000
     21 C         -22.3791    0.1252   28.9868 C.ar    1  UNL1        0.0000
     22 C         -22.2133   -1.2442   30.9391 C.ar    1  UNL1        0.0000
     23 C         -21.6315   -0.5088   29.8934 C.ar    1  UNL1        0.0000
@<TRIPOS>BOND
     1     2     7    1
     2     7     8   am
     3     8     9    1
     4    10    12    1
     5     7    16    2
     6    15    17    1
     7     4    18    1
     8     9    10   ar
     9    10    13   ar
    10    13    14   ar
    11    14    15   ar
    12    15    11   ar
    13    11     9   ar
    14    18    19   ar
    15    19    22   ar
    16    22    23   ar
    17    23    21   ar
    18    21    20   ar
    19    20    18   ar
    20     1     2   ar
    21     2     5   ar
    22     5     6   ar
    23     6     4   ar
    24     4     3   ar
    25     3     1   ar
