@<TRIPOS>MOLECULE
No_3978-gen_results/8p0m/2024-11-27-11-27-31/
 27 29 0 0 0
SMALL
GASTEIGER

@<TRIPOS>ATOM
      1 C         -28.0162   -0.8135   28.8779 C.ar    1  UNL1        0.0228
      2 C         -28.4690   -0.7850   29.8287 C.ar    1  UNL1        0.0810
      3 C         -26.5455   -0.8762   28.8500 C.ar    1  UNL1        0.0670
      4 C         -25.8041   -1.0324   30.0571 C.ar    1  UNL1       -0.0038
      5 C         -27.9437   -0.9869   31.2075 C.ar    1  UNL1        0.0063
      6 C         -26.5825   -1.0386   31.2231 C.ar    1  UNL1       -0.0025
      7 C         -24.3810   -1.1082   30.0855 C.3     1  UNL1        0.0390
      8 C         -23.7054    0.0955   29.8440 C.ar    1  UNL1       -0.0190
      9 C         -22.4285    0.1160   29.2171 C.ar    1  UNL1       -0.0040
     10 C         -21.8149    1.2942   28.8765 C.ar    1  UNL1       -0.0003
     11 C         -24.1974    1.3766   30.2708 C.ar    1  UNL1       -0.0040
     12 C         -23.6703    2.5777   29.8431 C.ar    1  UNL1       -0.0003
     13 C         -22.4202    2.5641   29.1385 C.ar    1  UNL1       -0.0000
     14 C         -30.0890   -0.7018   29.8678 C.2     1  UNL1        0.3878
     15 O         -30.7856   -1.4706   30.3480 O.co2   1  UNL1       -0.2406
     16 O         -30.5524    0.3448   29.2659 O.co2   1  UNL1       -0.2406
     17 N         -25.7884   -0.7830   27.6748 N.pl3   1  UNL1       -0.2128
     18 C         -25.7041    0.3794   26.8444 C.2     1  UNL1        0.0705
     19 C         -24.9386    0.3470   25.7149 C.2     1  UNL1        0.0178
     20 C         -26.3382    1.5805   27.2493 C.ar    1  UNL1        0.0153
     21 C         -26.1855    2.7457   26.5199 C.ar    1  UNL1        0.0013
     22 C         -26.7764    3.9138   26.9918 C.ar    1  UNL1        0.0000
     23 C         -27.5449    3.8598   28.1414 C.ar    1  UNL1        0.0000
     24 C         -27.7354    2.7043   28.8666 C.ar    1  UNL1        0.0000
     25 C         -27.1188    1.6164   28.4514 C.ar    1  UNL1        0.0013
     26 C         -23.9415   -1.6483   31.4661 C.3     1  UNL1        0.0088
     27 C         -23.9553   -2.2628   29.0994 C.3     1  UNL1        0.0088
@<TRIPOS>BOND
     1     4     7    1
     2     7     8    1
     3     2    14    1
     4    14    15   ar
     5    14    16   ar
     6     3    17    1
     7    17    18    1
     8    18    19    2
     9    18    20    1
    10     7    26    1
    11     7    27    1
    12     8     9   ar
    13     9    10   ar
    14    10    13   ar
    15    13    12   ar
    16    12    11   ar
    17    11     8   ar
    18     1     2   ar
    19     2     5   ar
    20     5     6   ar
    21     6     4   ar
    22     4     3   ar
    23     3     1   ar
    24    20    21   ar
    25    21    22   ar
    26    22    23   ar
    27    23    24   ar
    28    24    25   ar
    29    25    20   ar
