@<TRIPOS>MOLECULE
outputs/IAG933/test6/raw/output_398_IAG933_linker_design_.xyz
 41 44 0 0 0
SMALL
GASTEIGER

@<TRIPOS>ATOM
      1 C         -24.8550   -1.0120   30.1430 C.3     1  UNL1        0.0785
      2 C         -24.9730   -2.5050   29.7880 C.2     1  UNL1       -0.0155
      3 C         -23.9060   -3.1730   29.1460 C.2     1  UNL1       -0.0039
      4 C         -23.9890   -4.5490   28.8530 C.2     1  UNL1       -0.0003
      5 C         -25.1370   -5.2800   29.2050 C.2     1  UNL1       -0.0000
      6 C         -26.2320   -4.6110   29.7840 C.2     1  UNL1       -0.0003
      7 C         -26.1550   -3.2320   30.0650 C.2     1  UNL1       -0.0039
      8 C         -25.3870   -0.6790   31.5710 C.3     1  UNL1        0.0824
      9 C         -25.1890    0.7730   32.0280 C.3     1  UNL1        0.0196
     10 C         -25.3360    0.6840   33.5440 C.3     1  UNL1        0.0203
     11 C         -24.8290   -0.7150   33.9050 C.3     1  UNL1        0.0887
     12 N         -24.7580   -1.4810   32.6460 N.3     1  UNL1       -0.2187
     13 C         -25.6880    1.6140   26.4610 C.3     1  UNL1        0.0926
     14 C         -26.2500    2.9200   26.3950 C.2     1  UNL1        0.0589
     15 C         -25.6420    4.0930   27.1230 C.2     1  UNL1        0.2628
     16 N         -25.6140    5.2520   26.4490 N.am    1  UNL1       -0.2000
     17 C         -25.0260    6.4790   26.9630 C.3     1  UNL1        0.1388
     18 O         -25.1430    3.9660   28.2430 O.2     1  UNL1       -0.2686
     19 C         -27.4380    3.0910   25.6450 C.2     1  UNL1        0.1025
     20 N         -28.0750    2.0890   25.0030 N.2     1  UNL1       -0.2118
     21 C         -27.5430    0.8490   25.0790 C.2     1  UNL1        0.2344
     22 O         -28.1930   -0.2080   24.4770 O.2     1  UNL1       -0.4585
     23 C         -29.4600    0.0050   23.8660 C.3     1  UNL1        0.2423
     24 C         -30.0650   -1.3770   23.5730 C.3     1  UNL1        0.2292
     25 O         -30.7290   -1.8780   24.7210 O.3     1  UNL1       -0.2162
     26 C         -26.3540    0.5760   25.7770 C.3     1  UNL1        0.2440
     27 F         -25.8600   -0.6810   25.7950 F       1  UNL1       -0.2265
     28 C         -27.1235    0.7189   29.0527 C.2     1  UNL1        0.2735
     29 C         -28.2640    2.3971   30.5263 C.2     1  UNL1        0.3658
     30 C         -21.1770    1.3232   27.8615 C.3     1  UNL1        0.2385
     31 C         -23.5068    1.4163   27.1301 C.2     1  UNL1        0.0138
     32 N         -27.4464    2.8121   31.4891 N.am    1  UNL1       -0.0675
     33 O         -29.4820    2.6175   30.6538 O.2     1  UNL1       -0.2470
     34 O         -27.8299   -0.3352   28.8778 O.2     1  UNL1       -0.2679
     35 N         -27.7622    1.8349   29.4616 N.am    1  UNL1       -0.1210
     36 C         -22.6545    0.9744   28.0698 C.2     1  UNL1        0.0938
     37 N         -23.0852    0.1906   29.0888 N.2     1  UNL1       -0.2507
     38 C         -24.8881    1.2675   27.3986 C.2     1  UNL1       -0.0082
     39 C         -25.6093    0.8857   28.6480 C.2     1  UNL1        0.0658
     40 F         -21.0316    1.9287   26.6268 F       1  UNL1       -0.2274
     41 C         -24.4895    0.0550   29.2568 C.2     1  UNL1        0.0678
@<TRIPOS>BOND
     1     1    41    1
     2     2     7    1
     3     2     1    1
     4     3     2    2
     5     4     3    1
     6     4     5    2
     7     5     6    1
     8     6     7    2
     9     8     1    1
    10     8     9    1
    11     8    12    1
    12     9    10    1
    13    10    11    1
    14    12    11    1
    15    13    38    1
    16    14    13    1
    17    14    15    1
    18    15    18    2
    19    16    17    1
    20    16    15    1
    21    19    14    2
    22    20    21    2
    23    20    19    1
    24    21    26    1
    25    22    21    1
    26    23    22    1
    27    24    23    1
    28    24    25    1
    29    26    27    1
    30    26    13    1
    31    28    35    1
    32    29    33    2
    33    29    32    1
    34    30    36    1
    35    31    38    2
    36    31    36    1
    37    34    28    2
    38    35    29    1
    39    36    37    2
    40    37    41    1
    41    38    39    1
    42    39    28    1
    43    39    41    2
    44    40    30    1
