@<TRIPOS>MOLECULE
outputs/IAG933/test6/raw/output_3983_IAG933_linker_design_.xyz
 44 48 0 0 0
SMALL
GASTEIGER

@<TRIPOS>ATOM
      1 C         -24.8550   -1.0120   30.1430 C.3     1  UNL1        0.0582
      2 C         -24.9730   -2.5050   29.7880 C.2     1  UNL1       -0.0195
      3 C         -23.9060   -3.1730   29.1460 C.2     1  UNL1       -0.0042
      4 C         -23.9890   -4.5490   28.8530 C.2     1  UNL1       -0.0003
      5 C         -25.1370   -5.2800   29.2050 C.2     1  UNL1       -0.0000
      6 C         -26.2320   -4.6110   29.7840 C.2     1  UNL1       -0.0003
      7 C         -26.1550   -3.2320   30.0650 C.2     1  UNL1       -0.0042
      8 C         -25.3870   -0.6790   31.5710 C.3     1  UNL1        0.0785
      9 C         -25.1890    0.7730   32.0280 C.3     1  UNL1        0.0192
     10 C         -25.3360    0.6840   33.5440 C.3     1  UNL1        0.0202
     11 C         -24.8290   -0.7150   33.9050 C.3     1  UNL1        0.0887
     12 N         -24.7580   -1.4810   32.6460 N.3     1  UNL1       -0.2191
     13 C         -25.6880    1.6140   26.4610 C.3     1  UNL1        0.0702
     14 C         -26.2500    2.9200   26.3950 C.2     1  UNL1        0.0548
     15 C         -25.6420    4.0930   27.1230 C.2     1  UNL1        0.2624
     16 N         -25.6140    5.2520   26.4490 N.am    1  UNL1       -0.2000
     17 C         -25.0260    6.4790   26.9630 C.3     1  UNL1        0.1388
     18 O         -25.1430    3.9660   28.2430 O.2     1  UNL1       -0.2687
     19 C         -27.4380    3.0910   25.6450 C.2     1  UNL1        0.1021
     20 N         -28.0750    2.0890   25.0030 N.2     1  UNL1       -0.2119
     21 C         -27.5430    0.8490   25.0790 C.2     1  UNL1        0.2341
     22 O         -28.1930   -0.2080   24.4770 O.2     1  UNL1       -0.4585
     23 C         -29.4600    0.0050   23.8660 C.3     1  UNL1        0.2423
     24 C         -30.0650   -1.3770   23.5730 C.3     1  UNL1        0.2292
     25 O         -30.7290   -1.8780   24.7210 O.3     1  UNL1       -0.2162
     26 C         -26.3540    0.5760   25.7770 C.3     1  UNL1        0.2400
     27 F         -25.8600   -0.6810   25.7950 F       1  UNL1       -0.2269
     28 C         -28.0727   -0.8614   28.6973 C.2     1  UNL1        0.0178
     29 N         -32.4181    2.7774   29.8571 N.2     1  UNL1       -0.0885
     30 C         -22.5003    0.8315   28.4084 C.3     1  UNL1        0.0017
     31 C         -29.2998    1.2748   29.8028 C.ar    1  UNL1        0.1657
     32 N         -26.0852    0.5675   28.6784 N.pl3   1  UNL1       -0.2389
     33 C         -27.3200    0.2000   29.2198 C.2     1  UNL1        0.0684
     34 N         -31.2300    1.0302   28.5999 N.ar    1  UNL1       -0.2769
     35 O         -30.1847    2.2560   30.2140 O.2     1  UNL1       -0.4209
     36 C         -23.7807    0.2977   27.6540 C.3     1  UNL1        0.0207
     37 C         -27.9646    1.0967   30.0495 C.2     1  UNL1        0.0552
     38 C         -21.4679    1.6604   27.5800 C.3     1  UNL1        0.0001
     39 C         -29.3783   -0.6112   28.3518 C.2     1  UNL1        0.0217
     40 C         -24.7787   -0.1629   28.7788 C.3     1  UNL1        0.0977
     41 C         -24.1988    1.4506   26.6844 C.3     1  UNL1        0.0095
     42 C         -31.3667    2.0554   29.6224 C.ar    1  UNL1        0.3239
     43 C         -31.5316    0.9645   27.0922 C.3     1  UNL1        0.1352
     44 C         -29.9996    0.4957   28.8774 C.ar    1  UNL1        0.0986
@<TRIPOS>BOND
     1     1    40    1
     2     2     7    1
     3     2     1    1
     4     3     2    2
     5     4     3    1
     6     4     5    2
     7     5     6    1
     8     6     7    2
     9     8     1    1
    10     8     9    1
    11     8    12    1
    12     9    10    1
    13    10    11    1
    14    12    11    1
    15    13    41    1
    16    14    13    1
    17    14    15    1
    18    15    18    2
    19    16    17    1
    20    16    15    1
    21    19    14    2
    22    20    21    2
    23    20    19    1
    24    21    26    1
    25    22    21    1
    26    23    22    1
    27    24    23    1
    28    24    25    1
    29    26    27    1
    30    26    13    1
    31    28    33    1
    32    31    37    1
    33    31    35   ar
    34    32    33    1
    35    33    37    2
    36    34    44   ar
    37    34    42   ar
    38    36    41    1
    39    36    30    1
    40    36    40    1
    41    38    30    1
    42    39    28    2
    43    39    44    1
    44    40    32    1
    45    42    29    2
    46    42    35   ar
    47    43    34    1
    48    44    31   ar
