@<TRIPOS>MOLECULE
outputs/IAG933/test6/raw/output_3985_IAG933_linker_design_.xyz
 42 46 0 0 0
SMALL
GASTEIGER

@<TRIPOS>ATOM
      1 C         -24.8550   -1.0120   30.1430 C.3     1  UNL1        0.1239
      2 C         -24.9730   -2.5050   29.7880 C.2     1  UNL1       -0.0004
      3 C         -23.9060   -3.1730   29.1460 C.2     1  UNL1       -0.0024
      4 C         -23.9890   -4.5490   28.8530 C.2     1  UNL1       -0.0003
      5 C         -25.1370   -5.2800   29.2050 C.2     1  UNL1       -0.0000
      6 C         -26.2320   -4.6110   29.7840 C.2     1  UNL1       -0.0003
      7 C         -26.1550   -3.2320   30.0650 C.2     1  UNL1       -0.0024
      8 C         -25.3870   -0.6790   31.5710 C.3     1  UNL1        0.0976
      9 C         -25.1890    0.7730   32.0280 C.3     1  UNL1        0.0211
     10 C         -25.3360    0.6840   33.5440 C.3     1  UNL1        0.0203
     11 C         -24.8290   -0.7150   33.9050 C.3     1  UNL1        0.0888
     12 N         -24.7580   -1.4810   32.6460 N.3     1  UNL1       -0.2172
     13 C         -25.6880    1.6140   26.4610 C.3     1  UNL1        0.0939
     14 C         -26.2500    2.9200   26.3950 C.2     1  UNL1        0.0589
     15 C         -25.6420    4.0930   27.1230 C.2     1  UNL1        0.2628
     16 N         -25.6140    5.2520   26.4490 N.am    1  UNL1       -0.2000
     17 C         -25.0260    6.4790   26.9630 C.3     1  UNL1        0.1388
     18 O         -25.1430    3.9660   28.2430 O.2     1  UNL1       -0.2686
     19 C         -27.4380    3.0910   25.6450 C.2     1  UNL1        0.1025
     20 N         -28.0750    2.0890   25.0030 N.2     1  UNL1       -0.2118
     21 C         -27.5430    0.8490   25.0790 C.2     1  UNL1        0.2344
     22 O         -28.1930   -0.2080   24.4770 O.2     1  UNL1       -0.4585
     23 C         -29.4600    0.0050   23.8660 C.3     1  UNL1        0.2423
     24 C         -30.0650   -1.3770   23.5730 C.3     1  UNL1        0.2292
     25 O         -30.7290   -1.8780   24.7210 O.3     1  UNL1       -0.2162
     26 C         -26.3540    0.5760   25.7770 C.3     1  UNL1        0.2440
     27 F         -25.8600   -0.6810   25.7950 F       1  UNL1       -0.2265
     28 C         -23.1981    0.3848   28.7039 C.ar    1  UNL1        0.0605
     29 O         -27.6486   -0.6608   28.7093 O.2     1  UNL1       -0.2898
     30 C         -29.2888    1.5072   29.6476 C.3     1  UNL1        0.0086
     31 C         -23.5237    1.1628   27.6976 C.ar    1  UNL1        0.0233
     32 N         -23.1298    2.7552   24.7468 N.1     1  UNL1       -0.1908
     33 C         -21.8204    0.1412   29.0218 C.2     1  UNL1        0.0172
     34 N         -24.6496   -0.0258   29.1980 N.ar    1  UNL1       -0.3218
     35 C         -27.9146    1.6358   28.9195 C.3     1  UNL1        0.0707
     36 C         -27.1229    0.4501   28.7689 C.2     1  UNL1        0.1884
     37 C         -20.8400    0.7918   28.2830 C.2     1  UNL1        0.0022
     38 C         -21.2110    1.6712   27.2604 C.2     1  UNL1        0.0104
     39 C         -22.8702    2.3208   25.6830 C.1     1  UNL1        0.1005
     40 C         -22.5499    1.7618   26.9442 C.2     1  UNL1        0.0696
     41 C         -24.9159    1.1778   27.6047 C.ar    1  UNL1        0.0056
     42 C         -25.5719    0.5306   28.5312 C.ar    1  UNL1        0.0916
@<TRIPOS>BOND
     1     1     2    1
     2     2     7    1
     3     3     2    2
     4     4     3    1
     5     4     5    2
     6     5     6    1
     7     6     7    2
     8     8     1    1
     9     8     9    1
    10     8    12    1
    11     9    10    1
    12    10    11    1
    13    12    11    1
    14    13    41    1
    15    14    13    1
    16    14    15    1
    17    15    18    2
    18    16    17    1
    19    16    15    1
    20    19    14    2
    21    20    21    2
    22    20    19    1
    23    21    26    1
    24    22    21    1
    25    23    22    1
    26    24    23    1
    27    24    25    1
    28    26    27    1
    29    26    13    1
    30    28    33    1
    31    28    34   ar
    32    29    36    2
    33    31    28   ar
    34    32    39    3
    35    34     1    1
    36    35    30    1
    37    36    35    1
    38    37    33    2
    39    38    37    1
    40    39    40    1
    41    40    38    2
    42    40    31    1
    43    41    31   ar
    44    41    42   ar
    45    42    36    1
    46    42    34   ar
