@<TRIPOS>MOLECULE
No_3989-gen_results/8p0m/2024-11-27-11-27-31/
 30 33 0 0 0
SMALL
GASTEIGER

@<TRIPOS>ATOM
      1 C         -28.0162   -0.8135   28.8779 C.ar    1  UNL1        0.0002
      2 C         -28.4690   -0.7850   29.8287 C.ar    1  UNL1        0.0031
      3 C         -28.1816    0.4277   28.1134 C.ar    1  UNL1        0.0030
      4 C         -27.4498    0.6435   26.8500 C.ar    1  UNL1        0.0001
      5 C         -27.8596    1.4573   25.9076 C.ar    1  UNL1        0.0000
      6 C         -29.4263    0.1097   30.4178 C.ar    1  UNL1        0.0369
      7 C         -29.6233    1.2198   29.7351 C.ar    1  UNL1        0.1396
      8 C         -28.9609    1.4529   28.5513 C.ar    1  UNL1        0.0369
      9 C         -27.1733    1.5743   24.7028 C.ar    1  UNL1        0.0000
     10 C         -26.0892    0.7468   24.4126 C.ar    1  UNL1        0.0000
     11 C         -25.6364   -0.1191   25.3972 C.ar    1  UNL1        0.0000
     12 C         -26.2807   -0.2063   26.5817 C.ar    1  UNL1        0.0000
     13 O         -30.4549    2.2210   30.2334 O.3     1  UNL1       -0.4654
     14 C         -31.2891    2.8190   29.6034 C.3     1  UNL1        0.2650
     15 C         -31.0529    4.1255   29.3179 C.2     1  UNL1        0.2863
     16 O         -31.3298    4.6167   28.2885 O.2     1  UNL1       -0.2690
     17 N         -30.3204    4.9122   30.2372 N.am    1  UNL1       -0.1972
     18 C         -29.9039    6.2527   29.9897 C.3     1  UNL1        0.1416
     19 C         -32.6423    2.7231   30.3574 C.ar    1  UNL1        0.0262
     20 C         -33.4450    1.7511   29.9882 C.ar    1  UNL1       -0.0003
     21 C         -34.5728    1.7737   29.9627 C.ar    1  UNL1       -0.0002
     22 C         -35.3060    2.8596   30.7031 C.ar    1  UNL1       -0.0000
     23 C         -34.4972    3.9038   31.1148 C.ar    1  UNL1       -0.0002
     24 C         -33.1567    3.8791   30.9212 C.ar    1  UNL1       -0.0003
     25 C         -28.9490    6.6068   30.0325 C.ar    1  UNL1       -0.0006
     26 C         -27.9128    5.9765   30.9331 C.ar    1  UNL1       -0.0026
     27 C         -26.5425    6.3196   30.9398 C.ar    1  UNL1       -0.0003
     28 C         -26.0815    7.1862   30.0187 C.ar    1  UNL1       -0.0000
     29 C         -26.9063    7.8274   29.1110 C.ar    1  UNL1       -0.0003
     30 C         -28.2417    7.4970   29.1199 C.ar    1  UNL1       -0.0026
@<TRIPOS>BOND
     1     3     4    1
     2     7    13    1
     3    13    14    1
     4    14    15    1
     5    15    16    2
     6    15    17   am
     7    17    18    1
     8    14    19    1
     9    18    25    1
    10    25    26   ar
    11    26    27   ar
    12    27    28   ar
    13    28    29   ar
    14    29    30   ar
    15    30    25   ar
    16     4     5   ar
    17     5     9   ar
    18     9    10   ar
    19    10    11   ar
    20    11    12   ar
    21    12     4   ar
    22    19    20   ar
    23    20    21   ar
    24    21    22   ar
    25    22    23   ar
    26    23    24   ar
    27    24    19   ar
    28     1     2   ar
    29     2     6   ar
    30     6     7   ar
    31     7     8   ar
    32     8     3   ar
    33     3     1   ar
