@<TRIPOS>MOLECULE
No_3991-gen_results/8p0m/2024-11-27-11-27-31/
 5 4 0 0 0
SMALL
GASTEIGER

@<TRIPOS>ATOM
      1 BR        -28.1146   -0.6256   29.0813 Br      1  UNL1       -0.0488
      2 C         -28.0686    0.2105   30.1716 C.2     1  UNL1        0.0362
      3 C         -27.5204    1.4889   30.0130 C.2     1  UNL1       -0.0190
      4 C         -27.0126    1.9017   28.7903 C.3     1  UNL1        0.0266
      5 C         -27.0425    0.9968   27.7109 C.3     1  UNL1        0.0050
@<TRIPOS>BOND
     1     1     2    1
     2     2     3    2
     3     3     4    1
     4     4     5    1
