@<TRIPOS>MOLECULE
No_3995-gen_results/8p0m/2024-11-27-11-27-31/
 22 24 0 0 0
SMALL
GASTEIGER

@<TRIPOS>ATOM
      1 C         -28.0162   -0.8135   28.8779 C.ar    1  UNL1       -0.0043
      2 C         -28.4690   -0.7850   29.8287 C.ar    1  UNL1       -0.0003
      3 C         -27.1356    0.2359   28.5352 C.ar    1  UNL1       -0.0219
      4 C         -26.8745    1.2825   29.3982 C.ar    1  UNL1       -0.0043
      5 C         -27.5070    1.2380   30.6295 C.ar    1  UNL1       -0.0003
      6 C         -28.3293    0.1745   30.9350 C.ar    1  UNL1       -0.0000
      7 C         -26.4409    0.0880   27.2474 C.3     1  UNL1        0.0307
      8 C         -26.9306    0.6938   26.0589 C.3     1  UNL1        0.0267
      9 C         -25.1027   -0.4086   27.1966 C.3     1  UNL1        0.0310
     10 C         -28.1972    1.1745   26.0183 C.ar    1  UNL1       -0.0222
     11 C         -29.0889    0.9610   25.5998 C.ar    1  UNL1       -0.0043
     12 C         -30.3723    1.6696   25.6147 C.ar    1  UNL1       -0.0003
     13 C         -26.1421    0.4911   24.8707 C.3     1  UNL1        0.0050
     14 C         -30.4918    2.3184   26.4488 C.ar    1  UNL1       -0.0000
     15 C         -28.4182    2.4290   27.0700 C.ar    1  UNL1       -0.0043
     16 C         -29.5325    3.0270   27.1960 C.ar    1  UNL1       -0.0003
     17 C         -24.5324   -0.7268   28.5610 C.ar    1  UNL1       -0.0218
     18 C         -24.4060   -1.8242   28.9426 C.ar    1  UNL1       -0.0043
     19 C         -23.7645   -2.0614   30.2901 C.ar    1  UNL1       -0.0003
     20 C         -23.4890   -0.9533   31.1182 C.ar    1  UNL1       -0.0000
     21 C         -24.1297    0.4088   29.4189 C.ar    1  UNL1       -0.0043
     22 C         -23.5961    0.2851   30.6280 C.ar    1  UNL1       -0.0003
@<TRIPOS>BOND
     1     3     7    1
     2     7     8    1
     3     7     9    1
     4     8    10    1
     5     8    13    1
     6     9    17    1
     7     1     2   ar
     8     2     6   ar
     9     6     5   ar
    10     5     4   ar
    11     4     3   ar
    12     3     1   ar
    13    10    11   ar
    14    11    12   ar
    15    12    14   ar
    16    14    16   ar
    17    16    15   ar
    18    15    10   ar
    19    17    18   ar
    20    18    19   ar
    21    19    20   ar
    22    20    22   ar
    23    22    21   ar
    24    21    17   ar
