@<TRIPOS>MOLECULE
outputs/IAG933/test6/raw/output_3996_IAG933_linker_design_.xyz
 37 40 0 0 0
SMALL
GASTEIGER

@<TRIPOS>ATOM
      1 C         -24.8550   -1.0120   30.1430 C.3     1  UNL1        0.1519
      2 C         -24.9730   -2.5050   29.7880 C.2     1  UNL1        0.0005
      3 C         -23.9060   -3.1730   29.1460 C.2     1  UNL1       -0.0025
      4 C         -23.9890   -4.5490   28.8530 C.2     1  UNL1       -0.0003
      5 C         -25.1370   -5.2800   29.2050 C.2     1  UNL1       -0.0000
      6 C         -26.2320   -4.6110   29.7840 C.2     1  UNL1       -0.0003
      7 C         -26.1550   -3.2320   30.0650 C.2     1  UNL1       -0.0025
      8 C         -25.3870   -0.6790   31.5710 C.3     1  UNL1        0.0986
      9 C         -25.1890    0.7730   32.0280 C.3     1  UNL1        0.0210
     10 C         -25.3360    0.6840   33.5440 C.3     1  UNL1        0.0203
     11 C         -24.8290   -0.7150   33.9050 C.3     1  UNL1        0.0888
     12 N         -24.7580   -1.4810   32.6460 N.3     1  UNL1       -0.2173
     13 C         -25.6880    1.6140   26.4610 C.2     1  UNL1        0.0595
     14 C         -26.2500    2.9200   26.3950 C.2     1  UNL1        0.0781
     15 C         -25.6420    4.0930   27.1230 C.2     1  UNL1        0.2665
     16 N         -25.6140    5.2520   26.4490 N.am    1  UNL1       -0.1997
     17 C         -25.0260    6.4790   26.9630 C.3     1  UNL1        0.1388
     18 O         -25.1430    3.9660   28.2430 O.2     1  UNL1       -0.2683
     19 C         -27.4380    3.0910   25.6450 C.2     1  UNL1        0.1068
     20 N         -28.0750    2.0890   25.0030 N.2     1  UNL1       -0.2081
     21 C         -27.5430    0.8490   25.0790 C.2     1  UNL1        0.2533
     22 O         -28.1930   -0.2080   24.4770 O.2     1  UNL1       -0.4558
     23 C         -29.4600    0.0050   23.8660 C.3     1  UNL1        0.2426
     24 C         -30.0650   -1.3770   23.5730 C.3     1  UNL1        0.2292
     25 O         -30.7290   -1.8780   24.7210 O.3     1  UNL1       -0.2162
     26 C         -26.3540    0.5760   25.7770 C.2     1  UNL1        0.1946
     27 F         -25.8600   -0.6810   25.7950 F       1  UNL1       -0.1992
     28 N         -23.0870    0.1167   29.1263 N.pl3   1  UNL1       -0.1239
     29 F         -22.9678    2.3060   26.1007 F       1  UNL1       -0.2010
     30 C         -23.3572    1.5215   27.1424 C.2     1  UNL1        0.1796
     31 C         -21.1732    1.1600   27.7864 C.2     1  UNL1        0.2605
     32 N         -20.5849    0.5153   28.6145 N.2     1  UNL1       -0.1141
     33 N         -25.2417    0.5169   28.3490 N.2     1  UNL1       -0.1606
     34 C         -24.7672    1.2410   27.2835 C.2     1  UNL1        0.1314
     35 C         -22.5874    0.8995   28.0720 C.2     1  UNL1        0.1650
     36 N         -24.3897   -0.1067   29.1845 N.pl3   1  UNL1       -0.1373
     37 F         -20.6578    2.0781   27.3315 F       1  UNL1       -0.1800
@<TRIPOS>BOND
     1     1     2    1
     2     2     7    1
     3     3     2    2
     4     4     3    1
     5     4     5    2
     6     5     6    1
     7     6     7    2
     8     8     1    1
     9     8     9    1
    10     8    12    1
    11     9    10    1
    12    10    11    1
    13    12    11    1
    14    13    34    1
    15    14    13    1
    16    14    15    1
    17    15    18    2
    18    16    17    1
    19    16    15    1
    20    19    14    2
    21    20    21    2
    22    20    19    1
    23    21    26    1
    24    22    21    1
    25    23    22    1
    26    24    23    1
    27    24    25    1
    28    26    27    1
    29    26    13    2
    30    28    36    1
    31    29    30    1
    32    30    34    1
    33    30    35    2
    34    31    35    1
    35    31    32    2
    36    33    36    1
    37    34    33    2
    38    35    28    1
    39    36     1    1
    40    37    31    1
