@<TRIPOS>MOLECULE
outputs/IAG933/test6/raw/output_3997_IAG933_linker_design_.xyz
 47 51 0 0 0
SMALL
GASTEIGER

@<TRIPOS>ATOM
      1 C         -24.8550   -1.0120   30.1430 C.3     1  UNL1        0.0620
      2 C         -24.9730   -2.5050   29.7880 C.2     1  UNL1       -0.0170
      3 C         -23.9060   -3.1730   29.1460 C.2     1  UNL1       -0.0039
      4 C         -23.9890   -4.5490   28.8530 C.2     1  UNL1       -0.0003
      5 C         -25.1370   -5.2800   29.2050 C.2     1  UNL1       -0.0000
      6 C         -26.2320   -4.6110   29.7840 C.2     1  UNL1       -0.0003
      7 C         -26.1550   -3.2320   30.0650 C.2     1  UNL1       -0.0039
      8 C         -25.3870   -0.6790   31.5710 C.3     1  UNL1        0.0809
      9 C         -25.1890    0.7730   32.0280 C.3     1  UNL1        0.0195
     10 C         -25.3360    0.6840   33.5440 C.3     1  UNL1        0.0203
     11 C         -24.8290   -0.7150   33.9050 C.3     1  UNL1        0.0887
     12 N         -24.7580   -1.4810   32.6460 N.3     1  UNL1       -0.2188
     13 C         -25.6880    1.6140   26.4610 C.3     1  UNL1        0.0969
     14 C         -26.2500    2.9200   26.3950 C.2     1  UNL1        0.0590
     15 C         -25.6420    4.0930   27.1230 C.2     1  UNL1        0.2628
     16 N         -25.6140    5.2520   26.4490 N.am    1  UNL1       -0.2000
     17 C         -25.0260    6.4790   26.9630 C.3     1  UNL1        0.1388
     18 O         -25.1430    3.9660   28.2430 O.2     1  UNL1       -0.2686
     19 C         -27.4380    3.0910   25.6450 C.2     1  UNL1        0.1025
     20 N         -28.0750    2.0890   25.0030 N.2     1  UNL1       -0.2118
     21 C         -27.5430    0.8490   25.0790 C.2     1  UNL1        0.2344
     22 O         -28.1930   -0.2080   24.4770 O.2     1  UNL1       -0.4585
     23 C         -29.4600    0.0050   23.8660 C.3     1  UNL1        0.2423
     24 C         -30.0650   -1.3770   23.5730 C.3     1  UNL1        0.2292
     25 O         -30.7290   -1.8780   24.7210 O.3     1  UNL1       -0.2162
     26 C         -26.3540    0.5760   25.7770 C.3     1  UNL1        0.2442
     27 F         -25.8600   -0.6810   25.7950 F       1  UNL1       -0.2265
     28 O         -23.0935    2.0083   25.8185 O.2     1  UNL1       -0.2868
     29 C         -21.1956    0.9754   27.5043 C.2     1  UNL1        0.0032
     30 C         -24.4042   -0.0878   29.1839 C.2     1  UNL1        0.0005
     31 C         -32.0743    1.9041   28.5447 C.3     1  UNL1        0.0516
     32 C         -22.6176    0.8091   27.7810 C.2     1  UNL1        0.0384
     33 N         -26.6752    0.7056   28.8900 N.2     1  UNL1       -0.2449
     34 C         -27.7411   -0.3180   28.6603 C.2     1  UNL1        0.1221
     35 C         -24.8001    1.2090   27.3302 C.2     1  UNL1        0.0412
     36 O         -29.5408   -2.3102   30.0241 O.3     1  UNL1       -0.0329
     37 C         -30.5930    1.9896   28.1825 C.3     1  UNL1        0.2147
     38 C         -25.3320    0.6081   28.4768 C.2     1  UNL1        0.0769
     39 O         -30.4720    1.3918   26.8786 O.3     1  UNL1       -0.2049
     40 C         -29.1787   -0.2073   29.1923 C.3     1  UNL1        0.2593
     41 O         -29.6827   -0.9892   30.2350 O.3     1  UNL1       -0.1684
     42 C         -23.0518    0.0582   28.8458 C.2     1  UNL1        0.0007
     43 N         -29.7740    1.1930   29.2275 N.3     1  UNL1       -0.2183
     44 C         -23.4793    1.4292   26.9142 C.2     1  UNL1        0.1934
     45 C         -32.0379    1.6218   30.0133 C.3     1  UNL1        0.0216
     46 C         -20.4114    2.0386   27.5272 C.2     1  UNL1        0.0001
     47 C         -30.6870    1.1982   30.3959 C.3     1  UNL1        0.0771
@<TRIPOS>BOND
     1     1    30    1
     2     2     7    1
     3     2     1    1
     4     3     2    2
     5     4     3    1
     6     4     5    2
     7     5     6    1
     8     6     7    2
     9     8     1    1
    10     8     9    1
    11     8    12    1
    12     9    10    1
    13    10    11    1
    14    12    11    1
    15    13    35    1
    16    14    13    1
    17    14    15    1
    18    15    18    2
    19    16    17    1
    20    16    15    1
    21    19    14    2
    22    20    21    2
    23    20    19    1
    24    21    26    1
    25    22    21    1
    26    23    22    1
    27    24    23    1
    28    24    25    1
    29    26    27    1
    30    26    13    1
    31    28    44    1
    32    29    46    2
    33    29    32    1
    34    31    45    1
    35    32    42    2
    36    34    33    2
    37    35    38    1
    38    36    41    1
    39    37    39    1
    40    37    31    1
    41    37    43    1
    42    38    33    1
    43    38    30    2
    44    40    34    1
    45    40    43    1
    46    40    41    1
    47    42    30    1
    48    43    47    1
    49    44    35    2
    50    44    32    1
    51    45    47    1
