@<TRIPOS>MOLECULE
outputs/IAG933/test6/raw/output_3998_IAG933_linker_design_.xyz
 43 47 0 0 0
SMALL
GASTEIGER

@<TRIPOS>ATOM
      1 C         -24.8550   -1.0120   30.1430 C.3     1  UNL1        0.0625
      2 C         -24.9730   -2.5050   29.7880 C.2     1  UNL1       -0.0191
      3 C         -23.9060   -3.1730   29.1460 C.2     1  UNL1       -0.0042
      4 C         -23.9890   -4.5490   28.8530 C.2     1  UNL1       -0.0003
      5 C         -25.1370   -5.2800   29.2050 C.2     1  UNL1       -0.0000
      6 C         -26.2320   -4.6110   29.7840 C.2     1  UNL1       -0.0003
      7 C         -26.1550   -3.2320   30.0650 C.2     1  UNL1       -0.0042
      8 C         -25.3870   -0.6790   31.5710 C.3     1  UNL1        0.0788
      9 C         -25.1890    0.7730   32.0280 C.3     1  UNL1        0.0193
     10 C         -25.3360    0.6840   33.5440 C.3     1  UNL1        0.0202
     11 C         -24.8290   -0.7150   33.9050 C.3     1  UNL1        0.0887
     12 N         -24.7580   -1.4810   32.6460 N.3     1  UNL1       -0.2191
     13 C         -25.6880    1.6140   26.4610 C.2     1  UNL1        0.0379
     14 C         -26.2500    2.9200   26.3950 C.2     1  UNL1        0.0765
     15 C         -25.6420    4.0930   27.1230 C.2     1  UNL1        0.2664
     16 N         -25.6140    5.2520   26.4490 N.am    1  UNL1       -0.1997
     17 C         -25.0260    6.4790   26.9630 C.3     1  UNL1        0.1388
     18 O         -25.1430    3.9660   28.2430 O.2     1  UNL1       -0.2683
     19 C         -27.4380    3.0910   25.6450 C.2     1  UNL1        0.1067
     20 N         -28.0750    2.0890   25.0030 N.2     1  UNL1       -0.2081
     21 C         -27.5430    0.8490   25.0790 C.2     1  UNL1        0.2533
     22 O         -28.1930   -0.2080   24.4770 O.2     1  UNL1       -0.4558
     23 C         -29.4600    0.0050   23.8660 C.3     1  UNL1        0.2426
     24 C         -30.0650   -1.3770   23.5730 C.3     1  UNL1        0.2292
     25 O         -30.7290   -1.8780   24.7210 O.3     1  UNL1       -0.2162
     26 C         -26.3540    0.5760   25.7770 C.2     1  UNL1        0.1930
     27 F         -25.8600   -0.6810   25.7950 F       1  UNL1       -0.1992
     28 C         -21.8133    1.1075   27.7219 C.2     1  UNL1        0.0294
     29 C         -27.7340    1.8998   30.8473 C.2     1  UNL1        0.0484
     30 O         -29.3689    3.4569   30.3277 O.2     1  UNL1       -0.4472
     31 F         -21.2706    1.9820   25.5821 F       1  UNL1       -0.2042
     32 C         -24.1380    0.7277   28.2030 C.2     1  UNL1       -0.0020
     33 C         -27.7284    0.1429   29.2909 C.2     1  UNL1        0.2682
     34 C         -22.1223    1.6567   26.5113 C.2     1  UNL1        0.1401
     35 C         -28.4447    1.3819   29.6676 C.2     1  UNL1        0.0957
     36 C         -28.4283    3.1160   31.3067 C.2     1  UNL1        0.1799
     37 C         -25.2356   -0.0656   28.9749 C.3     1  UNL1        0.1231
     38 C         -23.3740    1.9124   26.1451 C.2     1  UNL1        0.0295
     39 C         -29.4046    2.4492   29.2677 C.2     1  UNL1        0.1843
     40 C         -24.4134    1.4365   26.9755 C.2     1  UNL1        0.0024
     41 N         -26.5385    0.5019   28.8129 N.am    1  UNL1       -0.1985
     42 O         -28.1494   -0.9814   29.1226 O.2     1  UNL1       -0.2682
     43 C         -22.8239    0.5972   28.5374 C.2     1  UNL1       -0.0003
@<TRIPOS>BOND
     1     1    37    1
     2     2     7    1
     3     2     1    1
     4     3     2    2
     5     4     3    1
     6     4     5    2
     7     5     6    1
     8     6     7    2
     9     8     1    1
    10     8     9    1
    11     8    12    1
    12     9    10    1
    13    10    11    1
    14    12    11    1
    15    13    40    1
    16    14    13    1
    17    14    15    1
    18    15    18    2
    19    16    17    1
    20    16    15    1
    21    19    14    2
    22    20    21    2
    23    20    19    1
    24    21    26    1
    25    22    21    1
    26    23    22    1
    27    24    23    1
    28    24    25    1
    29    26    27    1
    30    26    13    2
    31    28    43    1
    32    29    36    2
    33    30    36    1
    34    31    34    1
    35    32    43    2
    36    32    37    1
    37    33    35    1
    38    34    28    2
    39    35    29    1
    40    37    41    1
    41    38    34    1
    42    38    40    2
    43    39    35    2
    44    39    30    1
    45    40    32    1
    46    41    33    1
    47    42    33    2
