@<TRIPOS>MOLECULE
No_4000-gen_results/8p0m/2024-11-27-11-27-31/
 15 16 0 0 0
SMALL
GASTEIGER

@<TRIPOS>ATOM
      1 C         -28.0162   -0.8135   28.8779 C.3     1  UNL1        0.0869
      2 C         -27.0636   -0.1189   28.6079 C.2     1  UNL1        0.2414
      3 O         -25.8586   -0.4059   28.9035 O.2     1  UNL1       -0.2733
      4 N         -27.1835    1.0379   27.7428 N.am    1  UNL1       -0.2054
      5 C         -29.3106   -0.0975   29.0449 C.3     1  UNL1        0.0127
      6 C         -28.4364    1.5744   27.5635 C.3     1  UNL1        0.1164
      7 C         -29.5303    0.8921   28.1014 C.3     1  UNL1        0.0369
      8 C         -30.8429    1.4848   27.9310 C.3     1  UNL1        0.0592
      9 N         -31.6253    1.6215   28.7871 N.3     1  UNL1       -0.2739
     10 C         -31.5576    1.5702   29.9193 C.3     1  UNL1        0.0720
     11 C         -31.9813    1.9972   30.8484 C.3     1  UNL1        0.0174
     12 C         -32.9796    3.0846   30.6672 C.3     1  UNL1        0.0029
     13 C         -33.4031    3.2228   29.3689 C.3     1  UNL1        0.0174
     14 C         -33.0932    1.8561   28.2944 C.3     1  UNL1        0.0720
     15 C         -30.5821    2.7156   27.0586 C.3     1  UNL1        0.0174
@<TRIPOS>BOND
     1     1     2    1
     2     2     3    2
     3     2     4   am
     4     1     5    1
     5     5     7    1
     6     6     7    1
     7     7     8    1
     8     8     9    1
     9     9    10    1
    10    11    12    1
    11     9    14    1
    12    13    14    1
    13     8    15    1
    14    10    11    1
    15    12    13    1
    16     6     4    1
