@<TRIPOS>MOLECULE
No_4001-gen_results/8p0m/2024-11-27-11-27-31/
 21 23 0 0 0
SMALL
GASTEIGER

@<TRIPOS>ATOM
      1 C         -28.0162   -0.8135   28.8779 C.ar    1  UNL1        0.0369
      2 C         -27.0636   -0.1190   28.6079 C.ar    1  UNL1        0.0032
      3 C         -25.7647   -0.3897   29.0360 C.ar    1  UNL1        0.0018
      4 C         -25.5296   -1.5302   29.9014 C.ar    1  UNL1        0.0032
      5 C         -26.6888   -2.2893   30.1810 C.ar    1  UNL1        0.0369
      6 C         -27.8727   -1.9508   29.7373 C.ar    1  UNL1        0.1394
      7 O         -28.9304   -2.7298   30.1154 O.3     1  UNL1       -0.4637
      8 C         -24.5394    0.4211   28.7421 C.ar    1  UNL1        0.0214
      9 C         -24.5259    1.2743   27.7266 C.ar    1  UNL1        0.1248
     10 C         -23.3174    1.9856   27.4033 C.ar    1  UNL1        0.1646
     11 C         -22.1311    1.7374   28.0503 C.ar    1  UNL1        0.0391
     12 C         -23.2983    0.1369   29.3770 C.ar    1  UNL1        0.0017
     13 C         -22.1005    0.8185   29.0410 C.ar    1  UNL1        0.0032
     14 C         -29.3101   -2.7539   31.4531 C.3     1  UNL1        0.3186
     15 C         -29.7956   -4.0479   31.8129 C.2     1  UNL1        0.4084
     16 O         -29.6784   -4.3187   33.0069 O.co2   1  UNL1       -0.2415
     17 O         -30.5711   -4.6373   31.0524 O.co2   1  UNL1       -0.2415
     18 O         -23.3937    2.8957   26.3834 O.3     1  UNL1       -0.4391
     19 C         -24.4553    2.5804   25.5308 C.2     1  UNL1        0.2407
     20 N         -25.4536    1.4900   26.8441 N.2     1  UNL1       -0.1971
     21 C         -25.4734    2.1452   25.7506 C.1     1  UNL1        0.0389
@<TRIPOS>BOND
     1     6     7    1
     2     3     8    1
     3     7    14    1
     4    14    15    1
     5    15    16   ar
     6    15    17   ar
     7    10    18    1
     8    18    19    1
     9     9    20    1
    10    19    21    2
    11    20    21    2
    12     1     2   ar
    13     2     3   ar
    14     3     4   ar
    15     4     5   ar
    16     5     6   ar
    17     6     1   ar
    18     8     9   ar
    19     9    10   ar
    20    10    11   ar
    21    11    13   ar
    22    13    12   ar
    23    12     8   ar
