@<TRIPOS>MOLECULE
outputs/IAG933/test6/raw/output_4004_IAG933_linker_design_.xyz
 46 49 0 0 0
SMALL
GASTEIGER

@<TRIPOS>ATOM
      1 C         -24.8550   -1.0120   30.1430 C.3     1  UNL1        0.0442
      2 C         -24.9730   -2.5050   29.7880 C.2     1  UNL1       -0.0210
      3 C         -23.9060   -3.1730   29.1460 C.2     1  UNL1       -0.0042
      4 C         -23.9890   -4.5490   28.8530 C.2     1  UNL1       -0.0003
      5 C         -25.1370   -5.2800   29.2050 C.2     1  UNL1       -0.0000
      6 C         -26.2320   -4.6110   29.7840 C.2     1  UNL1       -0.0003
      7 C         -26.1550   -3.2320   30.0650 C.2     1  UNL1       -0.0042
      8 C         -25.3870   -0.6790   31.5710 C.3     1  UNL1        0.0770
      9 C         -25.1890    0.7730   32.0280 C.3     1  UNL1        0.0192
     10 C         -25.3360    0.6840   33.5440 C.3     1  UNL1        0.0202
     11 C         -24.8290   -0.7150   33.9050 C.3     1  UNL1        0.0887
     12 N         -24.7580   -1.4810   32.6460 N.3     1  UNL1       -0.2191
     13 C         -25.6880    1.6140   26.4610 C.2     1  UNL1        0.1762
     14 C         -26.2500    2.9200   26.3950 C.2     1  UNL1        0.1105
     15 C         -25.6420    4.0930   27.1230 C.2     1  UNL1        0.2694
     16 N         -25.6140    5.2520   26.4490 N.am    1  UNL1       -0.1996
     17 C         -25.0260    6.4790   26.9630 C.3     1  UNL1        0.1388
     18 O         -25.1430    3.9660   28.2430 O.2     1  UNL1       -0.2682
     19 C         -27.4380    3.0910   25.6450 C.2     1  UNL1        0.1098
     20 N         -28.0750    2.0890   25.0030 N.2     1  UNL1       -0.2079
     21 C         -27.5430    0.8490   25.0790 C.2     1  UNL1        0.2564
     22 O         -28.1930   -0.2080   24.4770 O.2     1  UNL1       -0.4558
     23 C         -29.4600    0.0050   23.8660 C.3     1  UNL1        0.2426
     24 C         -30.0650   -1.3770   23.5730 C.3     1  UNL1        0.2292
     25 O         -30.7290   -1.8780   24.7210 O.3     1  UNL1       -0.2162
     26 C         -26.3540    0.5760   25.7770 C.2     1  UNL1        0.2267
     27 F         -25.8600   -0.6810   25.7950 F       1  UNL1       -0.1960
     28 C         -29.4070   -0.1400   34.7660 C.2     1  UNL1        0.0001
     29 C         -22.0328    1.4957   28.2479 C.3     1  UNL1        0.0037
     30 C         -21.8722    1.8510   26.7625 C.3     1  UNL1        0.0001
     31 N         -29.6098   -1.5872   30.9350 N.am    1  UNL1       -0.1424
     32 O         -30.4359   -1.2403   28.9828 O.3     1  UNL1       -0.4029
     33 C         -29.9973   -2.1183   29.8114 C.2     1  UNL1        0.4274
     34 C         -24.3618    0.4814   28.1501 C.3     1  UNL1        0.1687
     35 C         -26.7482   -0.7071   28.3314 C.3     1  UNL1        0.1500
     36 C         -25.5306   -0.0762   29.1218 C.3     1  UNL1        0.0751
     37 C         -29.6906   -1.2827   32.2552 C.2     1  UNL1        0.0767
     38 O         -28.0170   -1.1308   28.9382 O.3     1  UNL1       -0.3156
     39 C         -28.3523   -0.8284   34.1692 C.2     1  UNL1        0.0013
     40 C         -30.6896   -0.1857   34.1866 C.2     1  UNL1        0.0013
     41 O         -24.4595    1.3139   27.0275 O.2     1  UNL1       -0.4764
     42 C         -30.7954   -0.6810   32.8835 C.2     1  UNL1        0.0167
     43 C         -28.6242   -1.5246   33.0635 C.2     1  UNL1        0.0167
     44 C         -29.2914   -0.4165   28.7183 C.3     1  UNL1        0.3639
     45 C         -23.1878    0.8781   29.0614 C.3     1  UNL1        0.0436
     46 O         -30.0134   -3.3058   29.4106 O.2     1  UNL1       -0.2241
@<TRIPOS>BOND
     1     1    36    1
     2     2     7    1
     3     2     1    1
     4     3     2    2
     5     4     3    1
     6     4     5    2
     7     5     6    1
     8     6     7    2
     9     8     1    1
    10     8     9    1
    11     8    12    1
    12     9    10    1
    13    10    11    1
    14    12    11    1
    15    13    41    1
    16    14    13    1
    17    14    15    1
    18    15    18    2
    19    16    17    1
    20    16    15    1
    21    19    14    2
    22    20    21    2
    23    20    19    1
    24    21    26    1
    25    22    21    1
    26    23    22    1
    27    24    23    1
    28    24    25    1
    29    26    27    1
    30    26    13    2
    31    29    45    1
    32    30    29    1
    33    31    37    1
    34    32    33    1
    35    33    31    1
    36    34    45    1
    37    34    36    1
    38    35    38    1
    39    36    35    1
    40    37    42    1
    41    37    43    2
    42    39    28    2
    43    40    28    1
    44    41    34    1
    45    42    40    2
    46    43    39    1
    47    44    38    1
    48    44    32    1
    49    46    33    2
