@<TRIPOS>MOLECULE
No_4007-gen_results/8p0m/2024-11-27-11-27-31/
 17 19 0 0 0
SMALL
GASTEIGER

@<TRIPOS>ATOM
      1 C         -28.0162   -0.8135   28.8779 C.ar    1  UNL1        0.0031
      2 C         -27.0636   -0.1189   28.6079 C.ar    1  UNL1        0.0002
      3 C         -26.9716    0.7139   27.5060 C.ar    1  UNL1        0.0027
      4 C         -28.1053    0.7744   26.6421 C.ar    1  UNL1        0.0369
      5 C         -29.2008    0.1044   27.0527 C.ar    1  UNL1        0.1387
      6 C         -29.2096   -0.6029   28.1853 C.ar    1  UNL1        0.0369
      7 O         -30.2994    0.2279   26.2571 O.3     1  UNL1       -0.4714
      8 C         -25.7189   -0.2206   29.4011 C.ar    1  UNL1       -0.0003
      9 C         -25.3784   -1.0981   29.9807 C.ar    1  UNL1       -0.0000
     10 C         -24.2786   -1.3672   30.3920 C.ar    1  UNL1       -0.0000
     11 C         -23.1640   -0.4055   30.3927 C.ar    1  UNL1       -0.0000
     12 C         -23.4890    0.7279   29.6421 C.ar    1  UNL1       -0.0003
     13 C         -24.7731    0.8525   29.0549 C.ar    1  UNL1       -0.0040
     14 C         -30.2615   -0.2688   25.0312 C.3     1  UNL1        0.2525
     15 C         -24.9415    2.0112   28.2415 C.ar    1  UNL1       -0.0218
     16 C         -26.0611    1.9455   27.3012 C.ar    1  UNL1       -0.0042
     17 C         -23.6940    2.4257   27.4472 C.3     1  UNL1        0.0310
@<TRIPOS>BOND
     1     5     7    1
     2     7    14    1
     3    15    17    1
     4     1     2   ar
     5     3     4   ar
     6     4     5   ar
     7     5     6   ar
     8     6     1   ar
     9     8     9   ar
    10     9    10   ar
    11    10    11   ar
    12    11    12   ar
    13    12    13   ar
    14     2     3   ar
    15     3    16   ar
    16    16    15   ar
    17    15    13   ar
    18    13     8   ar
    19     8     2   ar
