@<TRIPOS>MOLECULE
No_4008-gen_results/8p0m/2024-11-27-11-27-31/
 35 38 0 0 0
SMALL
GASTEIGER

@<TRIPOS>ATOM
      1 C         -28.0162   -0.8135   28.8779 C.ar    1  UNL1        0.0112
      2 C         -28.4690   -0.7850   29.8287 C.ar    1  UNL1        0.0801
      3 C         -27.0871    0.2903   28.6377 C.ar    1  UNL1        0.0558
      4 C         -26.8317    1.2487   29.5869 C.ar    1  UNL1        0.0110
      5 C         -28.3914    0.0801   31.0065 C.ar    1  UNL1        0.0130
      6 C         -27.4940    1.1521   30.7841 C.ar    1  UNL1        0.0764
      7 C         -26.3172    0.3994   27.3653 C.2     1  UNL1        0.2690
      8 N         -25.0720    0.1569   27.4305 N.am    1  UNL1       -0.1755
      9 O         -26.8005    1.0084   26.3780 O.2     1  UNL1       -0.2680
     10 C         -24.1351    0.6387   27.0794 C.ar    1  UNL1        0.0734
     11 C         -23.9936    1.5273   26.0538 C.ar    1  UNL1        0.0166
     12 C         -22.7471    2.2238   25.7569 C.ar    1  UNL1        0.0013
     13 C         -21.7335    2.0667   26.7017 C.ar    1  UNL1        0.0001
     14 C         -21.8713    1.2438   27.8501 C.ar    1  UNL1        0.0010
     15 C         -23.0288    0.6240   28.0792 C.ar    1  UNL1        0.0133
     16 C         -23.0798   -0.1848   29.2495 C.2     1  UNL1        0.0042
     17 C         -22.1241   -0.8252   29.7496 C.2     1  UNL1        0.0946
     18 N         -22.4672   -1.5047   30.9549 N.2     1  UNL1       -0.2469
     19 C         -23.8235   -1.2155   31.1814 C.2     1  UNL1        0.0772
     20 C         -24.2351   -0.4198   30.1066 C.3     1  UNL1        0.0749
     21 C         -29.4766   -2.0022   30.2154 C.2     1  UNL1        0.3878
     22 O         -29.9692   -2.0053   31.3389 O.co2   1  UNL1       -0.2406
     23 O         -29.5599   -2.9210   29.4448 O.co2   1  UNL1       -0.2406
     24 C         -27.2932    2.1639   31.8773 C.2     1  UNL1        0.3457
     25 O         -27.0208    3.2498   31.7845 O.3     1  UNL1       -0.4213
     26 O         -27.4979    1.6020   33.1344 O.2     1  UNL1       -0.2445
     27 C         -26.9750    4.0444   30.9918 C.ar    1  UNL1        0.1461
     28 C         -28.0178    4.7370   30.5139 C.ar    1  UNL1        0.0299
     29 C         -27.9858    5.3660   29.2602 C.ar    1  UNL1        0.0002
     30 C         -25.7256    4.2836   30.2018 C.ar    1  UNL1        0.0373
     31 C         -25.6250    4.9680   29.0154 C.ar    1  UNL1        0.0031
     32 C         -26.7875    5.5825   28.5680 C.ar    1  UNL1       -0.0001
     33 C         -29.2878    4.5666   31.1705 C.3     1  UNL1        0.1180
     34 N         -30.3328    4.3634   30.6979 N.3     1  UNL1       -0.2117
     35 C         -31.4217    3.8373   31.2159 C.3     1  UNL1        0.1079
@<TRIPOS>BOND
     1     3     7    1
     2     7     8   am
     3     7     9    2
     4     8    10    1
     5    15    16    1
     6    16    17    2
     7    17    18    1
     8    18    19    2
     9    16    20    1
    10    19    20    1
    11     2    21    1
    12    21    22   ar
    13    21    23   ar
    14     6    24    1
    15    24    25    1
    16    24    26    2
    17    25    27    1
    18    28    33    1
    19    33    34    1
    20    34    35    1
    21     1     2   ar
    22     2     5   ar
    23     5     6   ar
    24     6     4   ar
    25     4     3   ar
    26     3     1   ar
    27    10    11   ar
    28    11    12   ar
    29    12    13   ar
    30    13    14   ar
    31    14    15   ar
    32    15    10   ar
    33    27    28   ar
    34    28    29   ar
    35    29    32   ar
    36    32    31   ar
    37    31    30   ar
    38    30    27   ar
