@<TRIPOS>MOLECULE
outputs/IAG933/test6/raw/output_4009_IAG933_linker_design_.xyz
 46 50 0 0 0
SMALL
GASTEIGER

@<TRIPOS>ATOM
      1 C         -24.8550   -1.0120   30.1430 C.3     1  UNL1        0.0667
      2 C         -24.9730   -2.5050   29.7880 C.2     1  UNL1       -0.0169
      3 C         -23.9060   -3.1730   29.1460 C.2     1  UNL1       -0.0039
      4 C         -23.9890   -4.5490   28.8530 C.2     1  UNL1       -0.0003
      5 C         -25.1370   -5.2800   29.2050 C.2     1  UNL1       -0.0000
      6 C         -26.2320   -4.6110   29.7840 C.2     1  UNL1       -0.0003
      7 C         -26.1550   -3.2320   30.0650 C.2     1  UNL1       -0.0039
      8 C         -25.3870   -0.6790   31.5710 C.3     1  UNL1        0.0811
      9 C         -25.1890    0.7730   32.0280 C.3     1  UNL1        0.0195
     10 C         -25.3360    0.6840   33.5440 C.3     1  UNL1        0.0203
     11 C         -24.8290   -0.7150   33.9050 C.3     1  UNL1        0.0887
     12 N         -24.7580   -1.4810   32.6460 N.3     1  UNL1       -0.2188
     13 C         -25.6880    1.6140   26.4610 C.2     1  UNL1        0.0397
     14 C         -26.2500    2.9200   26.3950 C.2     1  UNL1        0.0764
     15 C         -25.6420    4.0930   27.1230 C.2     1  UNL1        0.2664
     16 N         -25.6140    5.2520   26.4490 N.am    1  UNL1       -0.1997
     17 C         -25.0260    6.4790   26.9630 C.3     1  UNL1        0.1388
     18 O         -25.1430    3.9660   28.2430 O.2     1  UNL1       -0.2683
     19 C         -27.4380    3.0910   25.6450 C.2     1  UNL1        0.1067
     20 N         -28.0750    2.0890   25.0030 N.2     1  UNL1       -0.2081
     21 C         -27.5430    0.8490   25.0790 C.2     1  UNL1        0.2533
     22 O         -28.1930   -0.2080   24.4770 O.2     1  UNL1       -0.4558
     23 C         -29.4600    0.0050   23.8660 C.3     1  UNL1        0.2426
     24 C         -30.0650   -1.3770   23.5730 C.3     1  UNL1        0.2292
     25 O         -30.7290   -1.8780   24.7210 O.3     1  UNL1       -0.2162
     26 C         -26.3540    0.5760   25.7770 C.2     1  UNL1        0.1929
     27 F         -25.8600   -0.6810   25.7950 F       1  UNL1       -0.1992
     28 C         -29.4605    0.5898   28.8898 C.3     1  UNL1        0.1458
     29 C         -31.9150    0.3830   26.7904 C.3     1  UNL1        0.0683
     30 O         -20.7287    1.8566   27.1087 O.3     1  UNL1       -0.0782
     31 C         -25.1692    0.9366   28.5593 C.2     1  UNL1        0.1367
     32 C         -31.4402    1.6537   27.5632 C.3     1  UNL1        0.0930
     33 O         -21.8775    0.9405   28.5324 O.2     1  UNL1       -0.3701
     34 N         -22.0356    1.5262   27.4172 N.3     1  UNL1        0.0454
     35 O         -30.2056   -1.3089   27.4744 O.3     1  UNL1       -0.3367
     36 C         -29.5411   -0.9097   28.7052 C.3     1  UNL1        0.1649
     37 C         -31.5059   -0.9131   27.5034 C.3     1  UNL1        0.2076
     38 N         -30.1175    1.4807   28.2767 N.3     1  UNL1       -0.2130
     39 CL        -23.0201    1.6602   24.8598 Cl      1  UNL1       -0.0856
     40 C         -23.1734    1.3666   26.5851 C.3     1  UNL1        0.2311
     41 C         -24.6124    1.2799   27.1919 C.2     1  UNL1        0.0496
     42 C         -22.9083    0.2957   29.4114 C.2     1  UNL1        0.2034
     43 C         -28.2544    1.1138   29.7438 C.3     1  UNL1        0.2251
     44 O         -26.6390    1.4077   28.9621 O.2     1  UNL1       -0.4743
     45 C         -24.4329    0.1592   29.2680 C.2     1  UNL1        0.0562
     46 N         -32.4109   -1.7262   28.0768 N.3     1  UNL1       -0.1001
@<TRIPOS>BOND
     1     1    45    1
     2     2     7    1
     3     2     1    1
     4     3     2    2
     5     4     3    1
     6     4     5    2
     7     5     6    1
     8     6     7    2
     9     8     1    1
    10     8     9    1
    11     8    12    1
    12     9    10    1
    13    10    11    1
    14    12    11    1
    15    13    41    1
    16    14    13    1
    17    14    15    1
    18    15    18    2
    19    16    17    1
    20    16    15    1
    21    19    14    2
    22    20    21    2
    23    20    19    1
    24    21    26    1
    25    22    21    1
    26    23    22    1
    27    24    23    1
    28    24    25    1
    29    26    27    1
    30    26    13    2
    31    28    43    1
    32    29    37    1
    33    29    32    1
    34    30    34    1
    35    31    44    1
    36    31    45    1
    37    32    38    1
    38    33    42    1
    39    34    33    1
    40    35    37    1
    41    35    36    1
    42    36    28    1
    43    37    46    1
    44    38    28    1
    45    40    39    1
    46    40    41    1
    47    40    34    1
    48    41    31    2
    49    44    43    1
    50    45    42    2
