@<TRIPOS>MOLECULE
outputs/IAG933/test6/raw/output_401_IAG933_linker_design_.xyz
 45 48 0 0 0
SMALL
GASTEIGER

@<TRIPOS>ATOM
      1 C         -24.8550   -1.0120   30.1430 C.3     1  UNL1        0.0436
      2 C         -24.9730   -2.5050   29.7880 C.2     1  UNL1       -0.0208
      3 C         -23.9060   -3.1730   29.1460 C.2     1  UNL1       -0.0042
      4 C         -23.9890   -4.5490   28.8530 C.2     1  UNL1       -0.0003
      5 C         -25.1370   -5.2800   29.2050 C.2     1  UNL1       -0.0000
      6 C         -26.2320   -4.6110   29.7840 C.2     1  UNL1       -0.0003
      7 C         -26.1550   -3.2320   30.0650 C.2     1  UNL1       -0.0042
      8 C         -25.3870   -0.6790   31.5710 C.3     1  UNL1        0.0772
      9 C         -25.1890    0.7730   32.0280 C.3     1  UNL1        0.0192
     10 C         -25.3360    0.6840   33.5440 C.3     1  UNL1        0.0202
     11 C         -24.8290   -0.7150   33.9050 C.3     1  UNL1        0.0887
     12 N         -24.7580   -1.4810   32.6460 N.3     1  UNL1       -0.2191
     13 C         -25.6880    1.6140   26.4610 C.2     1  UNL1        0.0937
     14 C         -26.2500    2.9200   26.3950 C.2     1  UNL1        0.0905
     15 C         -25.6420    4.0930   27.1230 C.2     1  UNL1        0.2677
     16 N         -25.6140    5.2520   26.4490 N.am    1  UNL1       -0.1997
     17 C         -25.0260    6.4790   26.9630 C.3     1  UNL1        0.1388
     18 O         -25.1430    3.9660   28.2430 O.2     1  UNL1       -0.2683
     19 C         -27.4380    3.0910   25.6450 C.2     1  UNL1        0.1080
     20 N         -28.0750    2.0890   25.0030 N.2     1  UNL1       -0.2080
     21 C         -27.5430    0.8490   25.0790 C.2     1  UNL1        0.2546
     22 O         -28.1930   -0.2080   24.4770 O.2     1  UNL1       -0.4558
     23 C         -29.4600    0.0050   23.8660 C.3     1  UNL1        0.2426
     24 C         -30.0650   -1.3770   23.5730 C.3     1  UNL1        0.2292
     25 O         -30.7290   -1.8780   24.7210 O.3     1  UNL1       -0.2162
     26 C         -26.3540    0.5760   25.7770 C.2     1  UNL1        0.2068
     27 F         -25.8600   -0.6810   25.7950 F       1  UNL1       -0.1979
     28 O         -29.4800    0.6225   29.6377 O.3     1  UNL1       -0.2204
     29 C         -26.9068   -0.4119   28.6929 C.3     1  UNL1        0.0087
     30 N         -24.3995    1.3269   27.1042 N.pl3   1  UNL1       -0.2640
     31 C         -24.1913    0.5032   28.2685 C.2     1  UNL1        0.0354
     32 O         -30.1759   -3.4960   30.5692 O.3     1  UNL1       -0.2231
     33 C         -22.3066    1.1212   27.4840 C.2     1  UNL1        0.1562
     34 C         -28.2730   -0.9562   28.2534 C.3     1  UNL1        0.0359
     35 C         -29.3014    0.1921   28.2830 C.3     1  UNL1        0.1821
     36 C         -31.7689   -2.0498   29.5408 C.3     1  UNL1        0.0344
     37 C         -23.2236    1.6774   26.5925 C.2     1  UNL1        0.0993
     38 C         -33.8955   -1.4261   30.6231 C.3     1  UNL1        0.1094
     39 F         -21.0215    1.6420   27.5007 F       1  UNL1       -0.2028
     40 N         -35.2454   -1.7702   30.6464 N.3     1  UNL1       -0.1314
     41 C         -22.8359    0.3317   28.4632 C.2     1  UNL1        0.0417
     42 C         -32.9010   -2.5351   30.4709 C.3     1  UNL1        0.0231
     43 C         -30.1688   -2.4193   29.8378 C.3     1  UNL1        0.1521
     44 C         -25.3947   -0.3005   29.0403 C.3     1  UNL1        0.0420
     45 C         -28.7718   -2.2404   29.1139 C.3     1  UNL1        0.0355
@<TRIPOS>BOND
     1     1    44    1
     2     2     7    1
     3     2     1    1
     4     3     2    2
     5     4     3    1
     6     4     5    2
     7     5     6    1
     8     6     7    2
     9     8     1    1
    10     8     9    1
    11     8    12    1
    12     9    10    1
    13    10    11    1
    14    12    11    1
    15    13    30    1
    16    14    13    1
    17    14    15    1
    18    15    18    2
    19    16    17    1
    20    16    15    1
    21    19    14    2
    22    20    21    2
    23    20    19    1
    24    21    26    1
    25    22    21    1
    26    23    22    1
    27    24    23    1
    28    24    25    1
    29    26    27    1
    30    26    13    2
    31    30    31    1
    32    31    41    2
    33    31    44    1
    34    33    39    1
    35    33    41    1
    36    34    35    1
    37    34    29    1
    38    34    45    1
    39    35    28    1
    40    36    43    1
    41    36    42    1
    42    37    30    1
    43    37    33    2
    44    38    40    1
    45    42    38    1
    46    43    32    1
    47    44    29    1
    48    45    43    1
