@<TRIPOS>MOLECULE
No_4011-gen_results/8p0m/2024-11-27-11-27-31/
 16 18 0 0 0
SMALL
GASTEIGER

@<TRIPOS>ATOM
      1 C         -28.0162   -0.8135   28.8779 C.ar    1  UNL1        0.0000
      2 C         -27.0636   -0.1189   28.6079 C.ar    1  UNL1        0.0000
      3 C         -25.7647   -0.3897   29.0360 C.ar    1  UNL1        0.0000
      4 C         -24.5516    0.4058   28.7646 C.ar    1  UNL1        0.0001
      5 C         -23.2300    0.1178   29.2575 C.ar    1  UNL1        0.0000
      6 C         -23.0942   -1.1309   29.8730 C.ar    1  UNL1        0.0000
      7 C         -27.7980   -1.9341   29.8560 C.ar    1  UNL1        0.0000
      8 C         -26.5420   -2.3269   30.2580 C.ar    1  UNL1        0.0000
      9 C         -25.4514   -1.5516   29.9079 C.ar    1  UNL1        0.0000
     10 C         -24.1562   -1.9097   30.2809 C.ar    1  UNL1        0.0000
     11 C         -24.7820    1.7477   28.3206 C.ar    1  UNL1        0.0031
     12 C         -24.9964    2.7929   29.1104 C.ar    1  UNL1        0.0207
     13 C         -24.6025    1.9771   26.8823 C.ar    1  UNL1        0.0207
     14 C         -25.3032    4.0970   28.5401 C.ar    1  UNL1        0.0989
     15 N         -25.1632    4.2836   27.1613 N.ar    1  UNL1       -0.2423
     16 C         -24.8094    3.2295   26.3774 C.ar    1  UNL1        0.0989
@<TRIPOS>BOND
     1     4    11    1
     2     1     2   ar
     3     2     3   ar
     4     9     8   ar
     5     8     7   ar
     6     7     1   ar
     7    11    12   ar
     8    12    14   ar
     9    14    15   ar
    10    15    16   ar
    11    16    13   ar
    12    13    11   ar
    13     3     4   ar
    14     4     5   ar
    15     5     6   ar
    16     6    10   ar
    17    10     9   ar
    18     9     3   ar
