@<TRIPOS>MOLECULE
No_4012-gen_results/8p0m/2024-11-27-11-27-31/
 25 28 0 0 0
SMALL
GASTEIGER

@<TRIPOS>ATOM
      1 C         -28.0162   -0.8135   28.8779 C.2     1  UNL1       -0.0058
      2 C         -27.0636   -0.1189   28.6079 C.2     1  UNL1        0.0146
      3 C         -26.9716    0.7139   27.5060 C.2     1  UNL1        0.1728
      4 C         -25.8205    1.4909   27.1160 C.3     1  UNL1        0.0835
      5 C         -24.6562    1.4242   27.9180 C.ar    1  UNL1       -0.0188
      6 C         -23.4598    2.1165   27.6160 C.ar    1  UNL1       -0.0042
      7 C         -22.3449    1.9937   28.4414 C.ar    1  UNL1       -0.0003
      8 C         -22.3657    0.9905   29.4427 C.ar    1  UNL1       -0.0003
      9 C         -23.4794    0.3053   29.7917 C.ar    1  UNL1       -0.0042
     10 C         -24.6337    0.4667   29.0059 C.ar    1  UNL1       -0.0212
     11 C         -25.7674   -0.2668   29.3410 C.3     1  UNL1        0.0549
     12 C         -28.7112   -0.4048   30.1503 C.3     1  UNL1        0.1185
     13 N         -29.7644   -1.1564   30.6028 N.pl3   1  UNL1       -0.2333
     14 C         -30.6284   -0.8252   31.1959 C.2     1  UNL1        0.0805
     15 O         -28.1316    0.8992   26.9227 O.2     1  UNL1       -0.2913
     16 C         -31.0543    0.0703   31.3688 C.2     1  UNL1        0.0193
     17 C         -30.0548    1.2211   31.0831 C.ar    1  UNL1        0.0249
     18 C         -28.0870    0.4498   31.1729 C.3     1  UNL1        0.0525
     19 C         -30.7400    2.6246   31.2994 C.ar    1  UNL1        0.1398
     20 C         -28.7733    1.3628   31.0844 C.ar    1  UNL1       -0.0179
     21 F         -31.8922    2.6080   31.4333 F       1  UNL1       -0.2042
     22 C         -29.9763    3.7814   30.9709 C.ar    1  UNL1        0.0296
     23 C         -28.6469    3.7799   30.8225 C.ar    1  UNL1        0.0020
     24 C         -28.0172    2.6419   30.9339 C.ar    1  UNL1       -0.0041
     25 C         -25.9123    2.4003   26.0076 C.3     1  UNL1        0.0128
@<TRIPOS>BOND
     1     1     2    2
     2     2     3    1
     3     3     4    1
     4     4     5    1
     5     2    11    1
     6    10    11    1
     7     1    12    1
     8    12    13    1
     9    13    14    1
    10     3    15    2
    11    14    16    2
    12    16    17    1
    13    12    18    1
    14    19    21    1
    15     4    25    1
    16    18    20    1
    17     5     6   ar
    18     6     7   ar
    19     7     8   ar
    20     8     9   ar
    21     9    10   ar
    22    10     5   ar
    23    17    19   ar
    24    19    22   ar
    25    22    23   ar
    26    23    24   ar
    27    24    20   ar
    28    20    17   ar
