@<TRIPOS>MOLECULE
outputs/IAG933/test6/raw/output_4014_IAG933_linker_design_.xyz
 45 48 0 0 0
SMALL
GASTEIGER

@<TRIPOS>ATOM
      1 C         -24.8550   -1.0120   30.1430 C.3     1  UNL1        0.0524
      2 C         -24.9730   -2.5050   29.7880 C.2     1  UNL1       -0.0200
      3 C         -23.9060   -3.1730   29.1460 C.2     1  UNL1       -0.0042
      4 C         -23.9890   -4.5490   28.8530 C.2     1  UNL1       -0.0003
      5 C         -25.1370   -5.2800   29.2050 C.2     1  UNL1       -0.0000
      6 C         -26.2320   -4.6110   29.7840 C.2     1  UNL1       -0.0003
      7 C         -26.1550   -3.2320   30.0650 C.2     1  UNL1       -0.0042
      8 C         -25.3870   -0.6790   31.5710 C.3     1  UNL1        0.0779
      9 C         -25.1890    0.7730   32.0280 C.3     1  UNL1        0.0192
     10 C         -25.3360    0.6840   33.5440 C.3     1  UNL1        0.0202
     11 C         -24.8290   -0.7150   33.9050 C.3     1  UNL1        0.0887
     12 N         -24.7580   -1.4810   32.6460 N.3     1  UNL1       -0.2191
     13 C         -25.6880    1.6140   26.4610 C.2     1  UNL1        0.0373
     14 C         -26.2500    2.9200   26.3950 C.2     1  UNL1        0.0765
     15 C         -25.6420    4.0930   27.1230 C.2     1  UNL1        0.2664
     16 N         -25.6140    5.2520   26.4490 N.am    1  UNL1       -0.1997
     17 C         -25.0260    6.4790   26.9630 C.3     1  UNL1        0.1388
     18 O         -25.1430    3.9660   28.2430 O.2     1  UNL1       -0.2683
     19 C         -27.4380    3.0910   25.6450 C.2     1  UNL1        0.1067
     20 N         -28.0750    2.0890   25.0030 N.2     1  UNL1       -0.2081
     21 C         -27.5430    0.8490   25.0790 C.2     1  UNL1        0.2533
     22 O         -28.1930   -0.2080   24.4770 O.2     1  UNL1       -0.4558
     23 C         -29.4600    0.0050   23.8660 C.3     1  UNL1        0.2426
     24 C         -30.0650   -1.3770   23.5730 C.3     1  UNL1        0.2292
     25 O         -30.7290   -1.8780   24.7210 O.3     1  UNL1       -0.2162
     26 C         -26.3540    0.5760   25.7770 C.2     1  UNL1        0.1930
     27 F         -25.8600   -0.6810   25.7950 F       1  UNL1       -0.1992
     28 C         -30.7759   -1.0281   28.2497 C.2     1  UNL1        0.2118
     29 C         -28.7780   -0.8307   29.5096 C.2     1  UNL1        0.0125
     30 C         -25.3641   -0.0328   29.2567 C.3     1  UNL1        0.0769
     31 C         -22.2415    1.2427   27.6310 C.2     1  UNL1        0.1902
     32 C         -31.4294   -0.2924   30.2996 C.3     1  UNL1        0.0127
     33 C         -30.1819   -0.4096   29.5395 C.3     1  UNL1        0.0930
     34 O         -31.7585   -1.6847   28.0906 O.2     1  UNL1       -0.2879
     35 S         -27.2208    0.2705   29.3630 S.3     1  UNL1       -0.1137
     36 C         -33.1973    0.8616   31.4752 C.3     1  UNL1        0.0000
     37 C         -24.3484    0.5865   28.3923 C.2     1  UNL1       -0.0095
     38 C         -23.1630    1.5949   26.6848 C.2     1  UNL1        0.0142
     39 C         -22.9584    0.5141   28.6254 C.3     1  UNL1        0.1719
     40 C         -32.8694   -0.0058   32.6972 C.3     1  UNL1        0.0000
     41 N         -22.2946   -0.3008   29.4821 N.3     1  UNL1       -0.1201
     42 C         -31.9936    1.1202   30.5348 C.3     1  UNL1        0.0008
     43 O         -20.9093    1.4168   27.5777 O.2     1  UNL1       -0.2898
     44 C         -22.7529    2.0664   25.3099 C.3     1  UNL1        0.0341
     45 C         -24.4302    1.2925   27.1504 C.2     1  UNL1       -0.0040
@<TRIPOS>BOND
     1     1    30    1
     2     2     7    1
     3     2     1    1
     4     3     2    2
     5     4     3    1
     6     4     5    2
     7     5     6    1
     8     6     7    2
     9     8     1    1
    10     8     9    1
    11     8    12    1
    12     9    10    1
    13    10    11    1
    14    12    11    1
    15    13    45    1
    16    14    13    1
    17    14    15    1
    18    15    18    2
    19    16    17    1
    20    16    15    1
    21    19    14    2
    22    20    21    2
    23    20    19    1
    24    21    26    1
    25    22    21    1
    26    23    22    1
    27    24    23    1
    28    24    25    1
    29    26    27    1
    30    26    13    2
    31    29    33    1
    32    30    35    1
    33    31    39    1
    34    32    42    1
    35    33    28    1
    36    33    32    1
    37    34    28    2
    38    35    29    2
    39    36    40    1
    40    37    39    1
    41    37    30    1
    42    38    45    1
    43    38    31    2
    44    39    41    1
    45    42    36    1
    46    43    31    1
    47    44    38    1
    48    45    37    2
