@<TRIPOS>MOLECULE
outputs/IAG933/test6/raw/output_4018_IAG933_linker_design_.xyz
 40 43 0 0 0
SMALL
GASTEIGER

@<TRIPOS>ATOM
      1 C         -24.8550   -1.0120   30.1430 C.3     1  UNL1        0.1138
      2 C         -24.9730   -2.5050   29.7880 C.2     1  UNL1       -0.0029
      3 C         -23.9060   -3.1730   29.1460 C.2     1  UNL1       -0.0026
      4 C         -23.9890   -4.5490   28.8530 C.2     1  UNL1       -0.0003
      5 C         -25.1370   -5.2800   29.2050 C.2     1  UNL1       -0.0000
      6 C         -26.2320   -4.6110   29.7840 C.2     1  UNL1       -0.0003
      7 C         -26.1550   -3.2320   30.0650 C.2     1  UNL1       -0.0026
      8 C         -25.3870   -0.6790   31.5710 C.3     1  UNL1        0.0951
      9 C         -25.1890    0.7730   32.0280 C.3     1  UNL1        0.0209
     10 C         -25.3360    0.6840   33.5440 C.3     1  UNL1        0.0203
     11 C         -24.8290   -0.7150   33.9050 C.3     1  UNL1        0.0888
     12 N         -24.7580   -1.4810   32.6460 N.3     1  UNL1       -0.2174
     13 C         -25.6880    1.6140   26.4610 C.3     1  UNL1        0.0936
     14 C         -26.2500    2.9200   26.3950 C.2     1  UNL1        0.0567
     15 C         -25.6420    4.0930   27.1230 C.2     1  UNL1        0.2625
     16 N         -25.6140    5.2520   26.4490 N.am    1  UNL1       -0.2000
     17 C         -25.0260    6.4790   26.9630 C.3     1  UNL1        0.1388
     18 O         -25.1430    3.9660   28.2430 O.2     1  UNL1       -0.2687
     19 C         -27.4380    3.0910   25.6450 C.2     1  UNL1        0.1022
     20 N         -28.0750    2.0890   25.0030 N.2     1  UNL1       -0.2119
     21 C         -27.5430    0.8490   25.0790 C.2     1  UNL1        0.2341
     22 O         -28.1930   -0.2080   24.4770 O.2     1  UNL1       -0.4585
     23 C         -29.4600    0.0050   23.8660 C.3     1  UNL1        0.2423
     24 C         -30.0650   -1.3770   23.5730 C.3     1  UNL1        0.2292
     25 O         -30.7290   -1.8780   24.7210 O.3     1  UNL1       -0.2162
     26 C         -26.3540    0.5760   25.7770 C.3     1  UNL1        0.2419
     27 F         -25.8600   -0.6810   25.7950 F       1  UNL1       -0.2268
     28 C         -23.2128    1.1320   27.4342 C.3     1  UNL1        0.1983
     29 C         -24.1351    1.5086   26.3917 C.3     1  UNL1        0.1332
     30 C         -22.4442    2.2288   25.0224 C.2     1  UNL1        0.2824
     31 O         -22.4853   -0.2491   29.2319 O.2     1  UNL1       -0.2742
     32 N         -23.7202    1.9186   25.1585 N.2     1  UNL1       -0.2340
     33 O         -21.5610    2.1313   26.0277 O.3     1  UNL1       -0.4013
     34 C         -21.8295    1.5593   27.2142 C.2     1  UNL1        0.3331
     35 C         -23.3794    0.3500   28.6906 C.2     1  UNL1        0.2382
     36 C         -27.0005    1.0665   29.3044 C.3     1  UNL1        0.2035
     37 C         -25.5995    1.3464   29.1847 C.3     1  UNL1        0.1292
     38 N         -24.6752    0.1677   29.2819 N.am    1  UNL1       -0.2728
     39 O         -27.3162   -0.3881   29.0067 O.3     1  UNL1       -0.2185
     40 O         -20.9685    1.4804   28.1378 O.2     1  UNL1       -0.2491
@<TRIPOS>BOND
     1     1    38    1
     2     2     7    1
     3     2     1    1
     4     3     2    2
     5     4     3    1
     6     4     5    2
     7     5     6    1
     8     6     7    2
     9     8     1    1
    10     8     9    1
    11     8    12    1
    12     9    10    1
    13    10    11    1
    14    12    11    1
    15    13    14    1
    16    14    15    1
    17    15    18    2
    18    16    17    1
    19    16    15    1
    20    19    14    2
    21    20    21    2
    22    20    19    1
    23    21    26    1
    24    22    21    1
    25    23    22    1
    26    24    23    1
    27    24    25    1
    28    26    27    1
    29    26    13    1
    30    28    35    1
    31    29    32    1
    32    29    13    1
    33    29    28    1
    34    30    32    2
    35    30    33    1
    36    33    34    1
    37    34    28    1
    38    34    40    2
    39    35    31    2
    40    35    38   am
    41    37    38    1
    42    37    36    1
    43    39    36    1
