@<TRIPOS>MOLECULE
No_402-gen_results/8p0m/2024-11-27-11-27-31/
 16 17 0 0 0
SMALL
GASTEIGER

@<TRIPOS>ATOM
      1 C         -28.0162   -0.8135   28.8779 C.ar    1  UNL1       -0.0019
      2 C         -28.4690   -0.7850   29.8287 C.ar    1  UNL1       -0.0002
      3 C         -27.1356    0.2359   28.5352 C.ar    1  UNL1        0.0072
      4 C         -26.8745    1.2825   29.3982 C.ar    1  UNL1        0.0551
      5 C         -27.5070    1.2380   30.6295 C.ar    1  UNL1        0.0111
      6 C         -28.3269    0.1637   30.9240 C.ar    1  UNL1        0.0008
      7 C         -26.4110    0.3070   27.2192 C.3     1  UNL1        0.1251
      8 CL        -27.1502    0.4353   25.9667 Cl      1  UNL1       -0.1053
      9 C         -24.9573    0.1449   27.2557 C.ar    1  UNL1       -0.0033
     10 C         -24.3107   -0.5095   28.2640 C.ar    1  UNL1       -0.0019
     11 C         -22.9459   -0.1586   28.5977 C.ar    1  UNL1        0.0111
     12 C         -22.3367    0.8660   27.8365 C.ar    1  UNL1        0.0577
     13 C         -23.0880    1.6288   26.9145 C.ar    1  UNL1        0.0111
     14 C         -24.3936    1.3752   26.7333 C.ar    1  UNL1       -0.0019
     15 CL        -20.7222    1.2753   28.1586 Cl      1  UNL1       -0.0822
     16 CL        -25.8664    2.6010   29.1118 Cl      1  UNL1       -0.0825
@<TRIPOS>BOND
     1     3     7    1
     2     7     8    1
     3     7     9    1
     4    12    15    1
     5     4    16    1
     6     1     2   ar
     7     2     6   ar
     8     6     5   ar
     9     5     4   ar
    10     4     3   ar
    11     3     1   ar
    12     9    10   ar
    13    10    11   ar
    14    11    12   ar
    15    12    13   ar
    16    13    14   ar
    17    14     9   ar
