@<TRIPOS>MOLECULE
No_4020-gen_results/8p0m/2024-11-27-11-27-31/
 32 35 0 0 0
SMALL
GASTEIGER

@<TRIPOS>ATOM
      1 C         -28.0162   -0.8135   28.8779 C.ar    1  UNL1        0.0305
      2 C         -27.0636   -0.1189   28.6079 C.ar    1  UNL1        0.1401
      3 C         -26.9287    1.1713   29.0083 C.ar    1  UNL1        0.0285
      4 C         -27.9560    1.7411   29.7840 C.ar    1  UNL1        0.0136
      5 C         -28.7721   -0.4537   29.8696 C.ar    1  UNL1        0.0137
      6 C         -28.8636    0.8725   30.2920 C.ar    1  UNL1        0.0578
      7 F         -26.0837   -0.5214   27.7210 F       1  UNL1       -0.2042
      8 CL        -30.0325    1.3815   31.4300 Cl      1  UNL1       -0.0822
      9 C         -25.8592    2.0806   28.4185 C.ar    1  UNL1        0.0084
     10 C         -24.6588    2.0578   29.0947 C.ar    1  UNL1        0.0758
     11 C         -23.4113    2.2026   28.2880 C.ar    1  UNL1        0.0064
     12 C         -23.5186    2.5440   26.9368 C.ar    1  UNL1        0.0002
     13 C         -24.8101    2.5880   26.3509 C.ar    1  UNL1        0.0000
     14 C         -25.9397    2.3276   27.0279 C.ar    1  UNL1        0.0003
     15 C         -24.4739    1.7791   30.5260 C.2     1  UNL1        0.3431
     16 O         -24.6699    2.5506   31.3898 O.2     1  UNL1       -0.2448
     17 O         -24.0899    0.5083   30.7937 O.3     1  UNL1       -0.4185
     18 C         -24.8080   -0.3862   31.2886 C.3     1  UNL1        0.3234
     19 C         -24.0767   -1.2048   32.2010 C.3     1  UNL1        0.2187
     20 O         -24.4106   -1.0905   33.3615 O.3     1  UNL1       -0.3407
     21 C         -25.1641    0.0050   33.7625 C.3     1  UNL1        0.2157
     22 C         -26.2731    0.0112   32.8146 C.3     1  UNL1        0.2909
     23 CL        -27.6467    0.8612   33.4598 Cl      1  UNL1       -0.0534
     24 O         -26.2559   -0.3646   31.5804 O.3     1  UNL1       -0.2831
     25 O         -27.0189   -0.9716   33.2333 O.3     1  UNL1       -0.3157
     26 C         -28.1150   -1.5791   33.2563 C.3     1  UNL1        0.1724
     27 C         -28.5771   -2.3116   32.2056 C.ar    1  UNL1        0.0074
     28 C         -29.3738   -3.3924   32.6851 C.ar    1  UNL1       -0.0019
     29 C         -29.7631   -4.3678   31.7130 C.ar    1  UNL1       -0.0002
     30 C         -29.3326   -4.1871   30.4042 C.ar    1  UNL1       -0.0000
     31 C         -28.1472   -3.5386   30.1763 C.ar    1  UNL1       -0.0002
     32 C         -27.8073   -2.5074   31.1229 C.ar    1  UNL1       -0.0019
@<TRIPOS>BOND
     1     2     7    1
     2     6     8    1
     3     3     9    1
     4    10    15    1
     5    15    16    2
     6    15    17    1
     7    17    18    1
     8    18    19    1
     9    19    20    1
    10    20    21    1
    11    21    22    1
    12    22    23    1
    13    18    24    1
    14    22    24    1
    15    22    25    1
    16    25    26    1
    17    26    27    1
    18    27    28   ar
    19    28    29   ar
    20    29    30   ar
    21    30    31   ar
    22    31    32   ar
    23    32    27   ar
    24     1     2   ar
    25     2     3   ar
    26     3     4   ar
    27     4     6   ar
    28     6     5   ar
    29     5     1   ar
    30     9    10   ar
    31    10    11   ar
    32    11    12   ar
    33    12    13   ar
    34    13    14   ar
    35    14     9   ar
