@<TRIPOS>MOLECULE
outputs/IAG933/test6/raw/output_4024_IAG933_linker_design_.xyz
 45 48 0 0 0
SMALL
GASTEIGER

@<TRIPOS>ATOM
      1 C         -24.8550   -1.0120   30.1430 C.3     1  UNL1        0.0542
      2 C         -24.9730   -2.5050   29.7880 C.2     1  UNL1       -0.0202
      3 C         -23.9060   -3.1730   29.1460 C.2     1  UNL1       -0.0042
      4 C         -23.9890   -4.5490   28.8530 C.2     1  UNL1       -0.0003
      5 C         -25.1370   -5.2800   29.2050 C.2     1  UNL1       -0.0000
      6 C         -26.2320   -4.6110   29.7840 C.2     1  UNL1       -0.0003
      7 C         -26.1550   -3.2320   30.0650 C.2     1  UNL1       -0.0042
      8 C         -25.3870   -0.6790   31.5710 C.3     1  UNL1        0.0777
      9 C         -25.1890    0.7730   32.0280 C.3     1  UNL1        0.0192
     10 C         -25.3360    0.6840   33.5440 C.3     1  UNL1        0.0202
     11 C         -24.8290   -0.7150   33.9050 C.3     1  UNL1        0.0887
     12 N         -24.7580   -1.4810   32.6460 N.3     1  UNL1       -0.2191
     13 C         -25.6880    1.6140   26.4610 C.2     1  UNL1        0.1029
     14 C         -26.2500    2.9200   26.3950 C.2     1  UNL1        0.0927
     15 C         -25.6420    4.0930   27.1230 C.2     1  UNL1        0.2678
     16 N         -25.6140    5.2520   26.4490 N.am    1  UNL1       -0.1997
     17 C         -25.0260    6.4790   26.9630 C.3     1  UNL1        0.1388
     18 O         -25.1430    3.9660   28.2430 O.2     1  UNL1       -0.2683
     19 C         -27.4380    3.0910   25.6450 C.2     1  UNL1        0.1082
     20 N         -28.0750    2.0890   25.0030 N.2     1  UNL1       -0.2080
     21 C         -27.5430    0.8490   25.0790 C.2     1  UNL1        0.2548
     22 O         -28.1930   -0.2080   24.4770 O.2     1  UNL1       -0.4558
     23 C         -29.4600    0.0050   23.8660 C.3     1  UNL1        0.2426
     24 C         -30.0650   -1.3770   23.5730 C.3     1  UNL1        0.2292
     25 O         -30.7290   -1.8780   24.7210 O.3     1  UNL1       -0.2162
     26 C         -26.3540    0.5760   25.7770 C.2     1  UNL1        0.2090
     27 F         -25.8600   -0.6810   25.7950 F       1  UNL1       -0.1977
     28 N         -23.5811    0.9258   29.0236 N.ar    1  UNL1       -0.2125
     29 O         -27.7948   -0.5081   28.1501 O.2     1  UNL1       -0.2729
     30 C         -24.7864    0.7541   28.3564 C.ar    1  UNL1        0.1343
     31 N         -21.3976    1.6450   28.2025 N.pl3   1  UNL1       -0.1060
     32 C         -29.3665    2.9060   29.5107 C.2     1  UNL1        0.2699
     33 O         -28.9799    4.0892   27.6376 O.3     1  UNL1       -0.2602
     34 O         -30.2459    2.8726   30.3939 O.2     1  UNL1       -0.2709
     35 N         -27.7445    1.2462   29.5939 N.am    1  UNL1       -0.1951
     36 C         -27.0846    0.1510   28.9071 C.2     1  UNL1        0.2489
     37 C         -22.9502    2.2868   25.7050 C.3     1  UNL1        0.0535
     38 C         -25.6784   -0.1479   29.1426 C.3     1  UNL1        0.1404
     39 N         -29.7090    3.2440   28.2914 N.am    1  UNL1       -0.1648
     40 C         -23.6097    1.6032   26.9132 C.ar    1  UNL1        0.0775
     41 C         -30.8696    2.6157   27.6832 C.3     1  UNL1        0.1482
     42 N         -24.6951    1.2345   27.1831 N.ar    1  UNL1       -0.2931
     43 C         -22.7220    1.4087   28.0894 C.ar    1  UNL1        0.1828
     44 C         -28.7587    5.2235   28.4873 C.3     1  UNL1        0.2058
     45 C         -27.8885    2.6745   29.7737 C.3     1  UNL1        0.2019
@<TRIPOS>BOND
     1     1    38    1
     2     2     7    1
     3     2     1    1
     4     3     2    2
     5     4     3    1
     6     4     5    2
     7     5     6    1
     8     6     7    2
     9     8     1    1
    10     8     9    1
    11     8    12    1
    12     9    10    1
    13    10    11    1
    14    12    11    1
    15    13    42    1
    16    14    13    1
    17    14    15    1
    18    15    18    2
    19    16    17    1
    20    16    15    1
    21    19    14    2
    22    20    21    2
    23    20    19    1
    24    21    26    1
    25    22    21    1
    26    23    22    1
    27    24    23    1
    28    24    25    1
    29    26    27    1
    30    26    13    2
    31    29    36    2
    32    30    28   ar
    33    30    38    1
    34    32    45    1
    35    32    34    2
    36    33    39    1
    37    33    44    1
    38    35    45    1
    39    36    35    1
    40    37    40    1
    41    38    36    1
    42    39    32   am
    43    40    42   ar
    44    40    43   ar
    45    41    39    1
    46    42    30   ar
    47    43    31    1
    48    43    28   ar
