@<TRIPOS>MOLECULE
No_4026-gen_results/8p0m/2024-11-27-11-27-31/
 17 18 0 0 0
SMALL
GASTEIGER

@<TRIPOS>ATOM
      1 C         -28.0162   -0.8135   28.8779 C.ar    1  UNL1        0.0293
      2 C         -28.4690   -0.7850   29.8287 C.ar    1  UNL1        0.1401
      3 C         -26.5455   -0.8762   28.8500 C.ar    1  UNL1       -0.0016
      4 C         -25.8041   -1.0324   30.0571 C.ar    1  UNL1       -0.0176
      5 C         -27.9437   -0.9869   31.2075 C.ar    1  UNL1        0.0293
      6 C         -24.4008   -1.0969   30.0965 C.3     1  UNL1        0.0526
      7 C         -26.5612   -1.0746   31.2270 C.ar    1  UNL1       -0.0016
      8 C         -23.6345   -0.8923   29.0458 C.ar    1  UNL1       -0.0178
      9 C         -22.1743   -0.7863   29.1506 C.ar    1  UNL1       -0.0043
     10 C         -21.6088    0.4081   28.9496 C.ar    1  UNL1       -0.0046
     11 C         -22.0805    1.3783   28.0013 C.ar    1  UNL1       -0.0219
     12 C         -21.5069    2.5230   27.7057 C.3     1  UNL1        0.0310
     13 C         -23.4810    1.1790   27.6027 C.ar    1  UNL1       -0.0043
     14 C         -24.1820    0.6188   28.6748 C.ar    1  UNL1       -0.0042
     15 F         -29.9253   -0.7123   29.8829 F       1  UNL1       -0.2042
     16 C         -24.0531    1.5811   26.4636 C.2     1  UNL1       -0.0003
     17 C         -25.2093    1.2806   26.0429 C.2     1  UNL1       -0.0000
@<TRIPOS>BOND
     1     4     6    1
     2    11    12    1
     3     2    15    1
     4    13    16    1
     5    16    17    2
     6     6     8    1
     7     8     9   ar
     8     9    10   ar
     9    10    11   ar
    10    11    13   ar
    11    13    14   ar
    12    14     8   ar
    13     1     2   ar
    14     2     5   ar
    15     5     7   ar
    16     7     4   ar
    17     4     3   ar
    18     3     1   ar
