@<TRIPOS>MOLECULE
outputs/IAG933/test6/raw/output_4029_IAG933_linker_design_.xyz
 41 45 0 0 0
SMALL
GASTEIGER

@<TRIPOS>ATOM
      1 C         -24.8550   -1.0120   30.1430 C.3     1  UNL1        0.1256
      2 C         -24.9730   -2.5050   29.7880 C.2     1  UNL1       -0.0004
      3 C         -23.9060   -3.1730   29.1460 C.2     1  UNL1       -0.0024
      4 C         -23.9890   -4.5490   28.8530 C.2     1  UNL1       -0.0003
      5 C         -25.1370   -5.2800   29.2050 C.2     1  UNL1       -0.0000
      6 C         -26.2320   -4.6110   29.7840 C.2     1  UNL1       -0.0003
      7 C         -26.1550   -3.2320   30.0650 C.2     1  UNL1       -0.0024
      8 C         -25.3870   -0.6790   31.5710 C.3     1  UNL1        0.0977
      9 C         -25.1890    0.7730   32.0280 C.3     1  UNL1        0.0211
     10 C         -25.3360    0.6840   33.5440 C.3     1  UNL1        0.0203
     11 C         -24.8290   -0.7150   33.9050 C.3     1  UNL1        0.0888
     12 N         -24.7580   -1.4810   32.6460 N.3     1  UNL1       -0.2172
     13 C         -25.6880    1.6140   26.4610 C.3     1  UNL1        0.0945
     14 C         -26.2500    2.9200   26.3950 C.2     1  UNL1        0.0590
     15 C         -25.6420    4.0930   27.1230 C.2     1  UNL1        0.2628
     16 N         -25.6140    5.2520   26.4490 N.am    1  UNL1       -0.2000
     17 C         -25.0260    6.4790   26.9630 C.3     1  UNL1        0.1388
     18 O         -25.1430    3.9660   28.2430 O.2     1  UNL1       -0.2686
     19 C         -27.4380    3.0910   25.6450 C.2     1  UNL1        0.1025
     20 N         -28.0750    2.0890   25.0030 N.2     1  UNL1       -0.2118
     21 C         -27.5430    0.8490   25.0790 C.2     1  UNL1        0.2344
     22 O         -28.1930   -0.2080   24.4770 O.2     1  UNL1       -0.4585
     23 C         -29.4600    0.0050   23.8660 C.3     1  UNL1        0.2423
     24 C         -30.0650   -1.3770   23.5730 C.3     1  UNL1        0.2292
     25 O         -30.7290   -1.8780   24.7210 O.3     1  UNL1       -0.2162
     26 C         -26.3540    0.5760   25.7770 C.3     1  UNL1        0.2441
     27 F         -25.8600   -0.6810   25.7950 F       1  UNL1       -0.2265
     28 C         -21.0874    1.4656   27.3529 C.2     1  UNL1        0.0582
     29 O         -19.7509   -0.0537   28.5307 O.2     1  UNL1       -0.2680
     30 C         -22.3884    1.6099   26.8656 C.2     1  UNL1        0.0176
     31 C         -22.7367    2.3647   25.5927 C.3     1  UNL1        0.2088
     32 C         -25.3537    0.3892   28.4292 C.ar    1  UNL1        0.1336
     33 C         -23.4765    1.0179   27.5590 C.ar    1  UNL1        0.0290
     34 N         -24.4691   -0.1524   29.1980 N.ar    1  UNL1       -0.3031
     35 C         -24.7976    1.1264   27.4053 C.ar    1  UNL1        0.0137
     36 C         -23.2456    0.2987   28.7798 C.ar    1  UNL1        0.1362
     37 O         -27.4285   -0.5835   28.7254 O.2     1  UNL1       -0.2296
     38 C         -26.4867   -0.1211   28.5848 C.1     1  UNL1        0.1505
     39 N         -21.9702    0.0579   29.1602 N.am    1  UNL1       -0.1583
     40 C         -20.9388    0.5038   28.3927 C.2     1  UNL1        0.2702
     41 O         -23.3296    1.5436   24.6007 O.3     1  UNL1       -0.2152
@<TRIPOS>BOND
     1     1     2    1
     2     2     7    1
     3     3     2    2
     4     4     3    1
     5     4     5    2
     6     5     6    1
     7     6     7    2
     8     8     1    1
     9     8     9    1
    10     8    12    1
    11     9    10    1
    12    10    11    1
    13    12    11    1
    14    13    35    1
    15    14    13    1
    16    14    15    1
    17    15    18    2
    18    16    17    1
    19    16    15    1
    20    19    14    2
    21    20    21    2
    22    20    19    1
    23    21    26    1
    24    22    21    1
    25    23    22    1
    26    24    23    1
    27    24    25    1
    28    26    27    1
    29    26    13    1
    30    28    40    1
    31    30    28    2
    32    30    33    1
    33    31    30    1
    34    32    38    2
    35    32    34   ar
    36    33    36   ar
    37    34     1    1
    38    35    33   ar
    39    35    32   ar
    40    36    39    2
    41    36    34   ar
    42    38    37    2
    43    40    29    2
    44    40    39    1
    45    41    31    1
