@<TRIPOS>MOLECULE
outputs/IAG933/test6/raw/output_4031_IAG933_linker_design_.xyz
 41 43 0 0 0
SMALL
GASTEIGER

@<TRIPOS>ATOM
      1 C         -24.8550   -1.0120   30.1430 C.3     1  UNL1        0.0845
      2 C         -24.9730   -2.5050   29.7880 C.2     1  UNL1       -0.0173
      3 C         -23.9060   -3.1730   29.1460 C.2     1  UNL1       -0.0041
      4 C         -23.9890   -4.5490   28.8530 C.2     1  UNL1       -0.0003
      5 C         -25.1370   -5.2800   29.2050 C.2     1  UNL1       -0.0000
      6 C         -26.2320   -4.6110   29.7840 C.2     1  UNL1       -0.0003
      7 C         -26.1550   -3.2320   30.0650 C.2     1  UNL1       -0.0041
      8 C         -25.3870   -0.6790   31.5710 C.3     1  UNL1        0.0807
      9 C         -25.1890    0.7730   32.0280 C.3     1  UNL1        0.0193
     10 C         -25.3360    0.6840   33.5440 C.3     1  UNL1        0.0202
     11 C         -24.8290   -0.7150   33.9050 C.3     1  UNL1        0.0887
     12 N         -24.7580   -1.4810   32.6460 N.3     1  UNL1       -0.2190
     13 C         -25.6880    1.6140   26.4610 C.2     1  UNL1        0.0407
     14 C         -26.2500    2.9200   26.3950 C.2     1  UNL1        0.0744
     15 C         -25.6420    4.0930   27.1230 C.2     1  UNL1        0.2220
     16 N         -25.6140    5.2520   26.4490 N.2     1  UNL1       -0.2357
     17 C         -25.0260    6.4790   26.9630 C.3     1  UNL1        0.1550
     18 O         -25.1430    3.9660   28.2430 O.2     1  UNL1       -0.4570
     19 C         -27.4380    3.0910   25.6450 C.2     1  UNL1        0.1068
     20 N         -28.0750    2.0890   25.0030 N.2     1  UNL1       -0.2081
     21 C         -27.5430    0.8490   25.0790 C.2     1  UNL1        0.2533
     22 O         -28.1930   -0.2080   24.4770 O.2     1  UNL1       -0.4558
     23 C         -29.4600    0.0050   23.8660 C.3     1  UNL1        0.2426
     24 C         -30.0650   -1.3770   23.5730 C.3     1  UNL1        0.2292
     25 O         -30.7290   -1.8780   24.7210 O.3     1  UNL1       -0.2162
     26 C         -26.3540    0.5760   25.7770 C.2     1  UNL1        0.1931
     27 F         -25.8600   -0.6810   25.7950 F       1  UNL1       -0.1992
     28 C         -21.2906    0.8486   28.1205 C.2     1  UNL1        0.2280
     29 N         -23.6009    1.5104   28.7859 N.am    1  UNL1       -0.1802
     30 C         -27.3147    1.6359   29.7661 C.3     1  UNL1        0.1115
     31 O         -22.4473   -0.3283   29.8801 O.2     1  UNL1       -0.2652
     32 O         -26.7827   -0.7798   28.6193 O.3     1  UNL1       -0.2045
     33 C         -25.1398    2.9672   29.0238 C.3     1  UNL1        0.2453
     34 N         -25.8088    1.1879   29.3060 N.3     1  UNL1       -0.2261
     35 O         -26.8922    4.1785   29.9726 O.3     1  UNL1       -0.2189
     36 C         -25.6591   -0.1970   29.0342 C.3     1  UNL1        0.2193
     37 C         -27.8707    3.1251   29.8008 C.3     1  UNL1        0.1995
     38 C         -22.5772    0.5128   28.7716 C.2     1  UNL1        0.3010
     39 C         -20.2232   -0.1051   28.3367 C.3     1  UNL1        0.0824
     40 O         -21.1170    1.8337   27.3343 O.2     1  UNL1       -0.2864
     41 C         -24.6685    1.9068   29.1266 C.3     1  UNL1        0.2010
@<TRIPOS>BOND
     1     1    36    1
     2     2     7    1
     3     2     1    1
     4     3     2    2
     5     4     3    1
     6     4     5    2
     7     5     6    1
     8     6     7    2
     9     8     1    1
    10     8     9    1
    11     8    12    1
    12     9    10    1
    13    10    11    1
    14    12    11    1
    15    14    13    1
    16    14    15    1
    17    15    18    1
    18    16    17    1
    19    16    15    2
    20    18    33    1
    21    19    14    2
    22    20    21    2
    23    20    19    1
    24    21    26    1
    25    22    21    1
    26    23    22    1
    27    24    23    1
    28    24    25    1
    29    26    27    1
    30    26    13    2
    31    28    39    1
    32    28    38    1
    33    29    41    1
    34    30    37    1
    35    34    30    1
    36    36    32    1
    37    36    34    1
    38    37    35    1
    39    38    29    1
    40    38    31    2
    41    40    28    2
    42    41    33    1
    43    41    34    1
