@<TRIPOS>MOLECULE
No_4032-gen_results/8p0m/2024-11-27-11-27-31/
 11 11 0 0 0
SMALL
GASTEIGER

@<TRIPOS>ATOM
      1 F         -28.0727   -1.2542   28.5316 F       1  UNL1       -0.1984
      2 C         -27.3591   -0.3792   28.7224 C.3     1  UNL1        0.3189
      3 F         -27.7576    0.4972   29.4008 F       1  UNL1       -0.1984
      4 C         -26.0810   -0.3916   28.0774 C.3     1  UNL1        0.0770
      5 C         -25.7306    0.7169   27.3094 C.3     1  UNL1        0.0322
      6 C         -24.3802    1.0846   27.2187 C.ar    1  UNL1       -0.0220
      7 C         -23.9368    2.2215   26.4263 C.ar    1  UNL1       -0.0043
      8 C         -22.6053    2.5755   26.4028 C.ar    1  UNL1       -0.0003
      9 C         -21.7450    1.8920   27.2471 C.ar    1  UNL1       -0.0000
     10 C         -22.1692    0.9133   28.1453 C.ar    1  UNL1       -0.0003
     11 C         -23.4309    0.5496   28.1283 C.ar    1  UNL1       -0.0043
@<TRIPOS>BOND
     1     1     2    1
     2     2     3    1
     3     2     4    1
     4     4     5    1
     5     5     6    1
     6     6     7   ar
     7     7     8   ar
     8     8     9   ar
     9     9    10   ar
    10    10    11   ar
    11    11     6   ar
