@<TRIPOS>MOLECULE
No_4035-gen_results/8p0m/2024-11-27-11-27-31/
 19 21 0 0 0
SMALL
GASTEIGER

@<TRIPOS>ATOM
      1 C         -28.0162   -0.8135   28.8779 C.3     1  UNL1        0.0800
      2 C         -27.0636   -0.1189   28.6079 C.ar    1  UNL1       -0.0078
      3 C         -26.9287    1.1713   29.0083 C.ar    1  UNL1       -0.0028
      4 C         -25.7702    2.0341   28.6884 C.ar    1  UNL1        0.0063
      5 C         -24.7141    1.4431   27.9188 C.ar    1  UNL1        0.0798
      6 C         -24.8590    0.0783   27.5836 C.ar    1  UNL1        0.0063
      7 C         -25.9647   -0.6606   27.9164 C.ar    1  UNL1       -0.0028
      8 N         -29.1778   -0.3051   28.9638 N.3     1  UNL1       -0.2716
      9 C         -30.1765   -0.9070   29.7369 C.3     1  UNL1        0.0577
     10 C         -23.5156    2.1616   27.5794 C.2     1  UNL1        0.3878
     11 O         -23.3407    2.9653   27.0044 O.co2   1  UNL1       -0.2406
     12 O         -22.3603    1.4758   28.1185 O.co2   1  UNL1       -0.2406
     13 C         -31.5178   -0.6586   29.4893 C.3     1  UNL1        0.0160
     14 C         -29.8432   -1.8467   30.8052 C.3     1  UNL1        0.0160
     15 C         -28.5395   -2.0207   31.2135 C.3     1  UNL1        0.0031
     16 C         -27.5756   -1.7471   30.0201 C.3     1  UNL1        0.0205
     17 C         -29.6349    0.5679   27.9629 C.3     1  UNL1        0.0723
     18 C         -30.9591    0.7916   27.7353 C.3     1  UNL1        0.0174
     19 C         -31.8708    0.2934   28.5876 C.3     1  UNL1        0.0028
@<TRIPOS>BOND
     1     1     2    1
     2     1     8    1
     3     8     9    1
     4     5    10    1
     5    10    11   ar
     6    10    12   ar
     7     9    14    1
     8    14    15    1
     9     1    16    1
    10    15    16    1
    11     8    17    1
    12    13    19    1
    13    18    19    1
    14     9    13    1
    15    18    17    1
    16     2     3   ar
    17     3     4   ar
    18     4     5   ar
    19     5     6   ar
    20     6     7   ar
    21     7     2   ar
