@<TRIPOS>MOLECULE
No_4036-gen_results/8p0m/2024-11-27-11-27-31/
 7 7 0 0 0
SMALL
GASTEIGER

@<TRIPOS>ATOM
      1 C         -28.0162   -0.8135   28.8779 C.ar    1  UNL1        0.0067
      2 C         -28.4690   -0.7850   29.8287 C.ar    1  UNL1        0.0005
      3 C         -28.1960    0.3478   28.0550 C.ar    1  UNL1        0.0346
      4 C         -29.0191    1.3501   28.3782 C.ar    1  UNL1        0.0067
      5 C         -29.4107    0.1803   30.3782 C.ar    1  UNL1        0.0000
      6 C         -29.6059    1.2495   29.6193 C.ar    1  UNL1        0.0005
      7 BR        -27.1511    0.2183   26.4915 Br      1  UNL1       -0.0490
@<TRIPOS>BOND
     1     3     7    1
     2     1     2   ar
     3     2     5   ar
     4     5     6   ar
     5     6     4   ar
     6     4     3   ar
     7     3     1   ar
