@<TRIPOS>MOLECULE
outputs/IAG933/test6/raw/output_4037_IAG933_linker_design_.xyz
 43 47 0 0 0
SMALL
GASTEIGER

@<TRIPOS>ATOM
      1 C         -24.8550   -1.0120   30.1430 C.3     1  UNL1        0.0438
      2 C         -24.9730   -2.5050   29.7880 C.2     1  UNL1       -0.0208
      3 C         -23.9060   -3.1730   29.1460 C.2     1  UNL1       -0.0042
      4 C         -23.9890   -4.5490   28.8530 C.2     1  UNL1       -0.0003
      5 C         -25.1370   -5.2800   29.2050 C.2     1  UNL1       -0.0000
      6 C         -26.2320   -4.6110   29.7840 C.2     1  UNL1       -0.0003
      7 C         -26.1550   -3.2320   30.0650 C.2     1  UNL1       -0.0042
      8 C         -25.3870   -0.6790   31.5710 C.3     1  UNL1        0.0795
      9 C         -25.1890    0.7730   32.0280 C.3     1  UNL1        0.0475
     10 C         -25.3360    0.6840   33.5440 C.3     1  UNL1        0.0227
     11 C         -24.8290   -0.7150   33.9050 C.3     1  UNL1        0.0888
     12 N         -24.7580   -1.4810   32.6460 N.3     1  UNL1       -0.2190
     13 C         -25.6880    1.6140   26.4610 C.3     1  UNL1        0.0921
     14 C         -26.2500    2.9200   26.3950 C.2     1  UNL1        0.0589
     15 C         -25.6420    4.0930   27.1230 C.2     1  UNL1        0.2628
     16 N         -25.6140    5.2520   26.4490 N.am    1  UNL1       -0.2000
     17 C         -25.0260    6.4790   26.9630 C.3     1  UNL1        0.1388
     18 O         -25.1430    3.9660   28.2430 O.2     1  UNL1       -0.2686
     19 C         -27.4380    3.0910   25.6450 C.2     1  UNL1        0.1025
     20 N         -28.0750    2.0890   25.0030 N.2     1  UNL1       -0.2118
     21 C         -27.5430    0.8490   25.0790 C.2     1  UNL1        0.2344
     22 O         -28.1930   -0.2080   24.4770 O.2     1  UNL1       -0.4585
     23 C         -29.4600    0.0050   23.8660 C.3     1  UNL1        0.2423
     24 C         -30.0650   -1.3770   23.5730 C.3     1  UNL1        0.2292
     25 O         -30.7290   -1.8780   24.7210 O.3     1  UNL1       -0.2162
     26 C         -26.3540    0.5760   25.7770 C.3     1  UNL1        0.2440
     27 F         -25.8600   -0.6810   25.7950 F       1  UNL1       -0.2265
     28 C         -22.2930    2.1721   25.2476 C.3     1  UNL1        0.2330
     29 C         -23.6473    2.0529   25.3479 C.2     1  UNL1        0.0168
     30 N         -25.4741    4.4819   33.5613 N.3     1  UNL1       -0.1643
     31 C         -23.9253    1.4078   29.2089 C.3     1  UNL1        0.1727
     32 C         -26.0463    4.3835   31.7113 C.3     1  UNL1        0.0540
     33 O         -24.8636    3.4265   33.0278 O.3     1  UNL1       -0.2823
     34 C         -21.9471    1.6190   27.5348 C.2     1  UNL1        0.2282
     35 C         -26.7137    3.8788   34.2594 C.3     1  UNL1        0.1207
     36 C         -24.2198    1.7191   26.6068 C.2     1  UNL1       -0.0130
     37 C         -25.3965    5.3261   32.1501 C.3     1  UNL1        0.1037
     38 O         -21.4633    1.9313   26.3270 O.2     1  UNL1       -0.4563
     39 C         -25.2278    1.9701   31.2068 C.3     1  UNL1        0.1460
     40 C         -25.2374    3.3492   31.7481 C.3     1  UNL1        0.1660
     41 N         -21.0241    1.3200   28.5293 N.pl3   1  UNL1       -0.0884
     42 O         -23.9514    2.1024   30.4427 O.3     1  UNL1       -0.3487
     43 C         -23.3808    1.5897   27.7859 C.2     1  UNL1        0.0555
@<TRIPOS>BOND
     1     2     7    1
     2     2     1    1
     3     3     2    2
     4     4     3    1
     5     4     5    2
     6     5     6    1
     7     6     7    2
     8     8     1    1
     9     8     9    1
    10     8    12    1
    11     9    39    1
    12     9    10    1
    13    10    11    1
    14    12    11    1
    15    13    36    1
    16    14    13    1
    17    14    15    1
    18    15    18    2
    19    16    17    1
    20    16    15    1
    21    19    14    2
    22    20    21    2
    23    20    19    1
    24    21    26    1
    25    22    21    1
    26    23    22    1
    27    24    23    1
    28    24    25    1
    29    26    27    1
    30    26    13    1
    31    28    29    1
    32    28    38    1
    33    29    36    2
    34    30    35    1
    35    31    42    1
    36    32    40    1
    37    32    37    1
    38    33    30    1
    39    34    43    2
    40    34    41    1
    41    36    43    1
    42    37    30    1
    43    38    34    1
    44    39    42    1
    45    40    39    1
    46    40    33    1
    47    43    31    1
