@<TRIPOS>MOLECULE
outputs/IAG933/test6/raw/output_4038_IAG933_linker_design_.xyz
 47 50 0 0 0
SMALL
GASTEIGER

@<TRIPOS>ATOM
      1 C         -24.8550   -1.0120   30.1430 C.3     1  UNL1        0.1113
      2 C         -24.9730   -2.5050   29.7880 C.2     1  UNL1       -0.0030
      3 C         -23.9060   -3.1730   29.1460 C.2     1  UNL1       -0.0026
      4 C         -23.9890   -4.5490   28.8530 C.2     1  UNL1       -0.0003
      5 C         -25.1370   -5.2800   29.2050 C.2     1  UNL1       -0.0000
      6 C         -26.2320   -4.6110   29.7840 C.2     1  UNL1       -0.0003
      7 C         -26.1550   -3.2320   30.0650 C.2     1  UNL1       -0.0026
      8 C         -25.3870   -0.6790   31.5710 C.3     1  UNL1        0.0950
      9 C         -25.1890    0.7730   32.0280 C.3     1  UNL1        0.0209
     10 C         -25.3360    0.6840   33.5440 C.3     1  UNL1        0.0203
     11 C         -24.8290   -0.7150   33.9050 C.3     1  UNL1        0.0888
     12 N         -24.7580   -1.4810   32.6460 N.3     1  UNL1       -0.2174
     13 C         -25.6880    1.6140   26.4610 C.3     1  UNL1        0.0861
     14 C         -26.2500    2.9200   26.3950 C.2     1  UNL1        0.0562
     15 C         -25.6420    4.0930   27.1230 C.2     1  UNL1        0.2625
     16 N         -25.6140    5.2520   26.4490 N.am    1  UNL1       -0.2000
     17 C         -25.0260    6.4790   26.9630 C.3     1  UNL1        0.1388
     18 O         -25.1430    3.9660   28.2430 O.2     1  UNL1       -0.2687
     19 C         -27.4380    3.0910   25.6450 C.2     1  UNL1        0.1022
     20 N         -28.0750    2.0890   25.0030 N.2     1  UNL1       -0.2119
     21 C         -27.5430    0.8490   25.0790 C.2     1  UNL1        0.2341
     22 O         -28.1930   -0.2080   24.4770 O.2     1  UNL1       -0.4585
     23 C         -29.4600    0.0050   23.8660 C.3     1  UNL1        0.2423
     24 C         -30.0650   -1.3770   23.5730 C.3     1  UNL1        0.2292
     25 O         -30.7290   -1.8780   24.7210 O.3     1  UNL1       -0.2162
     26 C         -26.3540    0.5760   25.7770 C.3     1  UNL1        0.2413
     27 F         -25.8600   -0.6810   25.7950 F       1  UNL1       -0.2268
     28 C         -21.2241    1.3345   28.0667 C.3     1  UNL1        0.0191
     29 C         -24.2939    1.3304   26.4518 C.3     1  UNL1        0.0800
     30 C         -22.3669    1.9320   25.8386 C.3     1  UNL1        0.0897
     31 C         -22.7091    0.8556   28.0403 C.3     1  UNL1        0.0774
     32 C         -26.7097    1.8822   29.6975 C.2     1  UNL1       -0.0055
     33 N         -29.2033    3.8805   28.1837 N.pl3   1  UNL1       -0.2318
     34 C         -27.5313   -0.2126   28.5942 C.2     1  UNL1        0.0142
     35 O         -30.0343    4.7954   30.8016 O.co2   1  UNL1       -0.2438
     36 C         -26.4668    0.5767   29.1403 C.2     1  UNL1        0.0442
     37 N         -23.2459    1.8072   27.0257 N.3     1  UNL1       -0.2708
     38 CA        -30.4485    4.5286   28.5270 C.3     1  UNL1        0.1946
     39 C         -29.4137    1.4944   28.3345 C.2     1  UNL1        0.0121
     40 C         -30.1202    5.3575   29.6864 C.2     1  UNL1        0.3841
     41 C         -27.8305    2.7583   29.7595 C.3     1  UNL1        0.0700
     42 CB        -31.4401    3.4438   28.6478 C.3     1  UNL1        0.0355
     43 C         -28.8489    2.7226   28.7333 C.2     0  ACE0        0.0480
     44 OXT       -29.8483    6.5396   29.4916 O.co2   1  UNL1       -0.2438
     45 C         -28.8379    0.1828   28.3597 C.2     1  UNL1        0.0023
     46 C         -23.8473    0.7983   29.1412 C.3     1  UNL1        0.1069
     47 N         -25.1628    0.1484   29.2847 N.pl3   1  UNL1       -0.3029
@<TRIPOS>BOND
     1     1    47    1
     2     2     7    1
     3     2     1    1
     4     3     2    2
     5     4     3    1
     6     4     5    2
     7     5     6    1
     8     6     7    2
     9     8     1    1
    10     8     9    1
    11     8    12    1
    12     9    10    1
    13    10    11    1
    14    12    11    1
    15    13    29    1
    16    14    13    1
    17    14    15    1
    18    15    18    2
    19    16    17    1
    20    16    15    1
    21    19    14    2
    22    20    21    2
    23    20    19    1
    24    21    26    1
    25    22    21    1
    26    23    22    1
    27    24    23    1
    28    24    25    1
    29    26    27    1
    30    26    13    1
    31    29    37    1
    32    30    37    1
    33    31    28    1
    34    31    46    1
    35    32    41    1
    36    33    38    1
    37    33    43    1
    38    34    36    1
    39    36    47    1
    40    36    32    2
    41    37    31    1
    42    38    42    1
    43    38    40    1
    44    39    45    1
    45    39    43    2
    46    40    35   ar
    47    43    41    1
    48    44    40   ar
    49    45    34    2
    50    46    47    1
