@<TRIPOS>MOLECULE
outputs/IAG933/test6/raw/output_4041_IAG933_linker_design_.xyz
 46 50 0 0 0
SMALL
GASTEIGER

@<TRIPOS>ATOM
      1 C         -24.8550   -1.0120   30.1430 C.3     1  UNL1        0.0750
      2 C         -24.9730   -2.5050   29.7880 C.2     1  UNL1       -0.0181
      3 C         -23.9060   -3.1730   29.1460 C.2     1  UNL1       -0.0041
      4 C         -23.9890   -4.5490   28.8530 C.2     1  UNL1       -0.0003
      5 C         -25.1370   -5.2800   29.2050 C.2     1  UNL1       -0.0000
      6 C         -26.2320   -4.6110   29.7840 C.2     1  UNL1       -0.0003
      7 C         -26.1550   -3.2320   30.0650 C.2     1  UNL1       -0.0041
      8 C         -25.3870   -0.6790   31.5710 C.3     1  UNL1        0.0799
      9 C         -25.1890    0.7730   32.0280 C.3     1  UNL1        0.0193
     10 C         -25.3360    0.6840   33.5440 C.3     1  UNL1        0.0202
     11 C         -24.8290   -0.7150   33.9050 C.3     1  UNL1        0.0887
     12 N         -24.7580   -1.4810   32.6460 N.3     1  UNL1       -0.2190
     13 C         -25.6880    1.6140   26.4610 C.3     1  UNL1        0.1016
     14 C         -26.2500    2.9200   26.3950 C.2     1  UNL1        0.0575
     15 C         -25.6420    4.0930   27.1230 C.2     1  UNL1        0.2625
     16 N         -25.6140    5.2520   26.4490 N.am    1  UNL1       -0.2000
     17 C         -25.0260    6.4790   26.9630 C.3     1  UNL1        0.1388
     18 O         -25.1430    3.9660   28.2430 O.2     1  UNL1       -0.2687
     19 C         -27.4380    3.0910   25.6450 C.2     1  UNL1        0.1022
     20 N         -28.0750    2.0890   25.0030 N.2     1  UNL1       -0.2119
     21 C         -27.5430    0.8490   25.0790 C.2     1  UNL1        0.2342
     22 O         -28.1930   -0.2080   24.4770 O.2     1  UNL1       -0.4585
     23 C         -29.4600    0.0050   23.8660 C.3     1  UNL1        0.2423
     24 C         -30.0650   -1.3770   23.5730 C.3     1  UNL1        0.2292
     25 O         -30.7290   -1.8780   24.7210 O.3     1  UNL1       -0.2162
     26 C         -26.3540    0.5760   25.7770 C.3     1  UNL1        0.2427
     27 F         -25.8600   -0.6810   25.7950 F       1  UNL1       -0.2268
     28 C         -25.9545   -0.3394   29.2420 C.3     1  UNL1        0.1757
     29 C         -28.7866    3.2637   30.1683 C.2     1  UNL1       -0.0092
     30 C         -30.2327    2.8610   30.5195 C.2     1  UNL1       -0.0273
     31 C         -28.5139   -0.1113   28.9913 C.2     1  UNL1        0.3247
     32 C         -22.7690    1.0930   28.4887 C.3     1  UNL1        0.2453
     33 C         -21.3785    1.4363   27.7436 C.3     1  UNL1        0.1938
     34 N         -23.6312    1.4847   27.5071 N.3     1  UNL1       -0.2066
     35 O         -21.7040    1.9064   26.3907 O.3     1  UNL1       -0.3330
     36 C         -30.1842    1.3411   27.0831 C.3     1  UNL1        0.0219
     37 C         -24.8818    1.1855   27.5929 C.3     1  UNL1        0.1448
     38 C         -27.8878    2.3279   29.3655 C.3     1  UNL1        0.1211
     39 N         -25.3456    0.2053   28.1897 N.3     1  UNL1       -0.1829
     40 O         -22.7687   -0.2117   28.7757 O.3     1  UNL1       -0.2021
     41 O         -29.2955   -0.9517   28.5790 O.2     1  UNL1       -0.2507
     42 C         -23.1215    2.0869   26.1913 C.3     1  UNL1        0.2230
     43 N         -27.2507   -0.5768   29.2779 N.am    1  UNL1       -0.1718
     44 N         -28.8259    1.1873   29.0390 N.am    1  UNL1       -0.2600
     45 C         -30.3116    1.4234   28.6005 C.3     1  UNL1        0.0816
     46 C         -30.7041    1.5240   30.0456 C.3     1  UNL1        0.0456
@<TRIPOS>BOND
     1     1    28    1
     2     2     7    1
     3     2     1    1
     4     3     2    2
     5     4     3    1
     6     4     5    2
     7     5     6    1
     8     6     7    2
     9     8     1    1
    10     8     9    1
    11     8    12    1
    12     9    10    1
    13    10    11    1
    14    12    11    1
    15    13    37    1
    16    14    13    1
    17    14    15    1
    18    15    18    2
    19    16    17    1
    20    16    15    1
    21    19    14    2
    22    20    21    2
    23    20    19    1
    24    21    26    1
    25    22    21    1
    26    23    22    1
    27    24    23    1
    28    24    25    1
    29    26    27    1
    30    26    13    1
    31    28    39    1
    32    28    43    1
    33    29    30    2
    34    31    44   am
    35    31    43    1
    36    32    40    1
    37    33    32    1
    38    34    37    1
    39    34    32    1
    40    35    33    1
    41    37    39    1
    42    38    29    1
    43    41    31    2
    44    42    35    1
    45    42    34    1
    46    44    38    1
    47    45    36    1
    48    45    44    1
    49    45    46    1
    50    46    30    1
