@<TRIPOS>MOLECULE
No_4043-gen_results/8p0m/2024-11-27-11-27-31/
 25 27 0 0 0
SMALL
GASTEIGER

@<TRIPOS>ATOM
      1 C         -28.0162   -0.8135   28.8779 C.ar    1  UNL1        0.0490
      2 C         -27.0636   -0.1190   28.6079 C.ar    1  UNL1        0.0607
      3 C         -25.7923   -0.4302   29.0761 C.ar    1  UNL1        0.0109
      4 C         -25.5756   -1.5654   29.9363 C.ar    1  UNL1        0.0040
      5 C         -26.7354   -2.3004   30.2173 C.ar    1  UNL1        0.0377
      6 C         -27.9184   -1.9537   29.7629 C.ar    1  UNL1        0.1496
      7 O         -29.0001   -2.7012   30.1151 O.3     1  UNL1       -0.4210
      8 C         -24.5290    0.3490   28.7998 C.ar    1  UNL1        0.0038
      9 C         -24.4808    1.2113   27.7998 C.ar    1  UNL1        0.0369
     10 C         -23.2478    1.8974   27.4951 C.ar    1  UNL1        0.1387
     11 C         -22.0497    1.5890   28.1642 C.ar    1  UNL1        0.0369
     12 C         -23.3072    0.0149   29.4618 C.ar    1  UNL1        0.0002
     13 C         -22.0852    0.6899   29.1374 C.ar    1  UNL1        0.0031
     14 C         -30.1270   -2.1323   30.5815 C.2     1  UNL1        0.3458
     15 C         -30.5782   -2.8385   31.6842 C.ar    1  UNL1        0.0783
     16 C         -29.7872   -3.6767   32.3628 C.ar    1  UNL1        0.0066
     17 C         -31.9832   -2.6972   32.0780 C.ar    1  UNL1        0.0361
     18 C         -30.2679   -4.4507   33.5605 C.ar    1  UNL1        0.0025
     19 C         -32.4088   -3.4209   33.2470 C.ar    1  UNL1        0.1404
     20 C         -31.5622   -4.2942   33.9368 C.ar    1  UNL1        0.0296
     21 O         -30.6745   -1.1793   30.1157 O.2     1  UNL1       -0.2445
     22 O         -23.2919    2.8171   26.4747 O.3     1  UNL1       -0.4714
     23 C         -24.6002    3.1128   25.9795 C.3     1  UNL1        0.2525
     24 F         -33.6616   -3.2754   33.6380 F       1  UNL1       -0.2042
     25 CL        -27.2035    1.2849   27.5542 Cl      1  UNL1       -0.0821
@<TRIPOS>BOND
     1     6     7    1
     2     3     8    1
     3     7    14    1
     4    14    15    1
     5    14    21    2
     6    10    22    1
     7    22    23    1
     8    19    24    1
     9     2    25    1
    10     1     2   ar
    11     2     3   ar
    12     3     4   ar
    13     4     5   ar
    14     5     6   ar
    15     6     1   ar
    16    15    16   ar
    17    16    18   ar
    18    18    20   ar
    19    20    19   ar
    20    19    17   ar
    21    17    15   ar
    22     8     9   ar
    23     9    10   ar
    24    10    11   ar
    25    11    13   ar
    26    13    12   ar
    27    12     8   ar
