@<TRIPOS>MOLECULE
No_4045-gen_results/8p0m/2024-11-27-11-27-31/
 35 40 0 0 0
SMALL
GASTEIGER

@<TRIPOS>ATOM
      1 C         -28.0162   -0.8135   28.8779 C.ar    1  UNL1        0.0369
      2 C         -27.0636   -0.1190   28.6079 C.ar    1  UNL1        0.0031
      3 C         -25.7647   -0.3897   29.0360 C.ar    1  UNL1        0.0002
      4 C         -25.5296   -1.5303   29.9014 C.ar    1  UNL1        0.0030
      5 C         -24.2910   -1.8751   30.3797 C.ar    1  UNL1        0.0001
      6 C         -27.9084   -1.9224   29.8277 C.ar    1  UNL1        0.1389
      7 C         -26.6512   -2.2902   30.3071 C.ar    1  UNL1        0.0369
      8 C         -23.2204   -0.8110   30.2432 C.ar    1  UNL1        0.0000
      9 C         -23.1592   -0.0547   29.0942 C.ar    1  UNL1        0.0000
     10 C         -24.5456    0.4203   28.6666 C.ar    1  UNL1        0.0000
     11 C         -24.5642    1.4957   27.7151 C.ar    1  UNL1        0.0000
     12 C         -23.6159    1.6798   26.7846 C.ar    1  UNL1        0.0000
     13 C         -22.4060    0.9299   26.8998 C.ar    1  UNL1        0.0000
     14 C         -22.0597    0.4142   28.3257 C.ar    1  UNL1        0.0000
     15 O         -29.0052   -2.6220   30.1466 O.3     1  UNL1       -0.4747
     16 C         -30.0957   -1.9617   30.5875 C.3     1  UNL1        0.1889
     17 C         -30.6886   -2.6679   31.6537 C.2     1  UNL1       -0.0003
     18 C         -30.0927   -3.7287   32.1721 C.2     1  UNL1       -0.0051
     19 C         -31.1270   -1.7383   32.7848 C.3     1  UNL1        0.0515
     20 C         -31.7583   -0.5860   32.4267 C.ar    1  UNL1       -0.0218
     21 C         -31.9841    0.3798   33.2967 C.ar    1  UNL1       -0.0043
     22 C         -32.4846    1.7112   32.9199 C.ar    1  UNL1       -0.0003
     23 C         -32.7392    2.7469   33.8131 C.ar    1  UNL1       -0.0000
     24 C         -33.1706    1.6347   31.6787 C.ar    1  UNL1       -0.0003
     25 C         -32.9521    0.6629   30.7272 C.ar    1  UNL1       -0.0044
     26 C         -32.2352   -0.4847   31.0876 C.ar    1  UNL1       -0.0219
     27 C         -32.7707    3.7774   33.9265 C.ar    1  UNL1       -0.0000
     28 C         -32.9572    4.6832   35.0576 C.ar    1  UNL1       -0.0000
     29 C         -33.1438    4.0267   36.2793 C.ar    1  UNL1        0.0000
     30 C         -33.0907    2.6747   36.3146 C.ar    1  UNL1       -0.0000
     31 C         -32.8447    1.8898   35.2047 C.ar    1  UNL1       -0.0000
     32 C         -29.8963   -4.8486   31.2875 C.2     1  UNL1       -0.0051
     33 C         -29.3857   -6.0446   31.9449 C.2     1  UNL1       -0.0258
     34 C         -29.6221   -7.2046   31.1622 C.3     1  UNL1        0.0307
     35 C         -30.7532   -0.8092   30.0658 C.3     1  UNL1        0.0739
@<TRIPOS>BOND
     1     6    15    1
     2    15    16    1
     3    16    17    1
     4    17    18    2
     5    17    19    1
     6    19    20    1
     7    22    23    1
     8    18    32    1
     9    32    33    2
    10    33    34    1
    11    16    35    1
    12    26    35    1
    13     4     5   ar
    14     5     8   ar
    15     8     9   ar
    16    10     3   ar
    17    23    27   ar
    18    27    28   ar
    19    28    29   ar
    20    29    30   ar
    21    30    31   ar
    22    31    23   ar
    23     9    10   ar
    24    10    11   ar
    25    11    12   ar
    26    12    13   ar
    27    13    14   ar
    28    14     9   ar
    29    20    21   ar
    30    21    22   ar
    31    22    24   ar
    32    24    25   ar
    33    25    26   ar
    34    26    20   ar
    35     1     2   ar
    36     2     3   ar
    37     3     4   ar
    38     4     7   ar
    39     7     6   ar
    40     6     1   ar
