@<TRIPOS>MOLECULE
outputs/IAG933/test6/raw/output_405_IAG933_linker_design_.xyz
 43 46 0 0 0
SMALL
GASTEIGER

@<TRIPOS>ATOM
      1 C         -24.8550   -1.0120   30.1430 C.3     1  UNL1        0.1160
      2 C         -24.9730   -2.5050   29.7880 C.2     1  UNL1       -0.0125
      3 C         -23.9060   -3.1730   29.1460 C.2     1  UNL1       -0.0038
      4 C         -23.9890   -4.5490   28.8530 C.2     1  UNL1       -0.0003
      5 C         -25.1370   -5.2800   29.2050 C.2     1  UNL1       -0.0000
      6 C         -26.2320   -4.6110   29.7840 C.2     1  UNL1       -0.0003
      7 C         -26.1550   -3.2320   30.0650 C.2     1  UNL1       -0.0038
      8 C         -25.3870   -0.6790   31.5710 C.3     1  UNL1        0.0855
      9 C         -25.1890    0.7730   32.0280 C.3     1  UNL1        0.0197
     10 C         -25.3360    0.6840   33.5440 C.3     1  UNL1        0.0203
     11 C         -24.8290   -0.7150   33.9050 C.3     1  UNL1        0.0887
     12 N         -24.7580   -1.4810   32.6460 N.3     1  UNL1       -0.2186
     13 C         -25.6880    1.6140   26.4610 C.3     1  UNL1        0.0937
     14 C         -26.2500    2.9200   26.3950 C.2     1  UNL1        0.0589
     15 C         -25.6420    4.0930   27.1230 C.2     1  UNL1        0.2628
     16 N         -25.6140    5.2520   26.4490 N.am    1  UNL1       -0.2000
     17 C         -25.0260    6.4790   26.9630 C.3     1  UNL1        0.1388
     18 O         -25.1430    3.9660   28.2430 O.2     1  UNL1       -0.2686
     19 C         -27.4380    3.0910   25.6450 C.2     1  UNL1        0.1025
     20 N         -28.0750    2.0890   25.0030 N.2     1  UNL1       -0.2118
     21 C         -27.5430    0.8490   25.0790 C.2     1  UNL1        0.2344
     22 O         -28.1930   -0.2080   24.4770 O.2     1  UNL1       -0.4585
     23 C         -29.4600    0.0050   23.8660 C.3     1  UNL1        0.2423
     24 C         -30.0650   -1.3770   23.5730 C.3     1  UNL1        0.2292
     25 O         -30.7290   -1.8780   24.7210 O.3     1  UNL1       -0.2162
     26 C         -26.3540    0.5760   25.7770 C.3     1  UNL1        0.2440
     27 F         -25.8600   -0.6810   25.7950 F       1  UNL1       -0.2265
     28 C         -25.4794   -0.0891   29.1831 C.2     1  UNL1        0.2434
     29 C         -24.3346    1.5698   26.6577 C.2     1  UNL1        0.0027
     30 O         -26.5449   -0.1990   28.6438 O.2     1  UNL1       -0.2733
     31 O         -21.1830    1.8535   26.4612 O.2     1  UNL1       -0.4473
     32 C         -25.7742    5.7630   32.3286 C.3     1  UNL1        0.1432
     33 C         -22.1555    2.0775   25.4845 C.2     1  UNL1        0.1794
     34 C         -24.4838    7.5188   33.4702 C.3     1  UNL1        0.1741
     35 O         -24.5473    6.1204   33.0655 O.3     1  UNL1       -0.3511
     36 C         -22.5455    0.9009   28.2454 C.2     1  UNL1        0.0561
     37 S         -24.1656    2.6061   30.2345 S.3     1  UNL1       -0.0409
     38 N         -24.4522    1.2072   29.1350 N.am    1  UNL1       -0.2111
     39 C         -23.9979    1.1898   27.8459 C.2     1  UNL1        0.0640
     40 C         -21.2699    1.1506   27.6040 C.2     1  UNL1        0.1810
     41 C         -24.2792    4.1081   31.2551 C.3     1  UNL1        0.0806
     42 C         -25.7003    4.2885   31.8234 C.3     1  UNL1        0.0454
     43 C         -23.4917    1.9195   25.6586 C.2     1  UNL1        0.0381
@<TRIPOS>BOND
     1     1    28    1
     2     2     7    1
     3     2     1    1
     4     3     2    2
     5     4     3    1
     6     4     5    2
     7     5     6    1
     8     6     7    2
     9     8     1    1
    10     8     9    1
    11     8    12    1
    12     9    10    1
    13    10    11    1
    14    12    11    1
    15    13    29    1
    16    14    13    1
    17    14    15    1
    18    15    18    2
    19    16    17    1
    20    16    15    1
    21    19    14    2
    22    20    21    2
    23    20    19    1
    24    21    26    1
    25    22    21    1
    26    23    22    1
    27    24    23    1
    28    24    25    1
    29    26    27    1
    30    26    13    1
    31    29    39    2
    32    30    28    2
    33    31    40    1
    34    32    35    1
    35    33    43    2
    36    33    31    1
    37    35    34    1
    38    37    41    1
    39    38    28   am
    40    38    37    1
    41    39    36    1
    42    39    38    1
    43    40    36    2
    44    41    42    1
    45    42    32    1
    46    43    29    1
