@<TRIPOS>MOLECULE
No_4050-gen_results/8p0m/2024-11-27-11-27-31/
 17 19 0 0 0
SMALL
GASTEIGER

@<TRIPOS>ATOM
      1 C         -28.0162   -0.8135   28.8779 C.ar    1  UNL1        0.0577
      2 C         -27.0636   -0.1189   28.6079 C.ar    1  UNL1       -0.0036
      3 C         -25.7923   -0.4302   29.0761 C.ar    1  UNL1       -0.0027
      4 C         -25.5756   -1.5654   29.9363 C.ar    1  UNL1       -0.0002
      5 C         -26.7354   -2.3004   30.2173 C.ar    1  UNL1        0.0013
      6 C         -27.9184   -1.9537   29.7629 C.ar    1  UNL1        0.0150
      7 C         -27.1057    1.1023   27.7593 C.3     1  UNL1        0.0552
      8 C         -27.8576    1.5309   27.2156 C.ar    1  UNL1       -0.0036
      9 C         -29.2421    0.8816   27.2919 C.ar    1  UNL1        0.0577
     10 C         -30.1363    1.1221   26.2917 C.ar    1  UNL1        0.0150
     11 C         -29.8994    2.2403   25.4307 C.ar    1  UNL1        0.0013
     12 C         -28.7143    2.9514   25.3572 C.ar    1  UNL1       -0.0002
     13 C         -27.7288    2.5759   26.1326 C.ar    1  UNL1       -0.0027
     14 N         -29.4032   -0.6069   28.4139 N.am    1  UNL1       -0.2014
     15 C         -30.6100   -0.8514   28.6543 C.2     1  UNL1        0.4546
     16 O         -31.1468   -0.3346   29.5310 O.co2   1  UNL1       -0.2216
     17 O         -31.2267   -1.5740   27.7199 O.co2   1  UNL1       -0.2216
@<TRIPOS>BOND
     1     2     7    1
     2     1    14    1
     3     9    14    1
     4    14    15   am
     5    15    16   ar
     6    15    17   ar
     7     7     8    1
     8     1     2   ar
     9     2     3   ar
    10     3     4   ar
    11     4     5   ar
    12     5     6   ar
    13     6     1   ar
    14     8     9   ar
    15     9    10   ar
    16    10    11   ar
    17    11    12   ar
    18    12    13   ar
    19    13     8   ar
