@<TRIPOS>MOLECULE
No_4054-gen_results/8p0m/2024-11-27-11-27-31/
 28 31 0 0 0
SMALL
GASTEIGER

@<TRIPOS>ATOM
      1 C         -28.0162   -0.8135   28.8779 C.ar    1  UNL1        0.0066
      2 C         -28.4690   -0.7850   29.8287 C.ar    1  UNL1        0.0800
      3 C         -28.1816    0.4277   28.1134 C.ar    1  UNL1        0.0004
      4 C         -27.4498    0.6435   26.8500 C.ar    1  UNL1        0.0000
      5 C         -27.8596    1.4573   25.9076 C.ar    1  UNL1        0.0000
      6 C         -29.4263    0.1097   30.4178 C.ar    1  UNL1        0.0130
      7 C         -29.6233    1.2198   29.7351 C.ar    1  UNL1        0.0762
      8 C         -28.9609    1.4529   28.5513 C.ar    1  UNL1        0.0065
      9 C         -27.1733    1.5743   24.7028 C.ar    1  UNL1        0.0000
     10 C         -26.0892    0.7468   24.4126 C.ar    1  UNL1        0.0000
     11 C         -25.6364   -0.1191   25.3972 C.ar    1  UNL1        0.0000
     12 C         -26.2807   -0.2063   26.5817 C.ar    1  UNL1        0.0000
     13 C         -30.5459    2.3201   30.2418 C.2     1  UNL1        0.3457
     14 O         -31.1534    2.9914   29.5934 O.2     1  UNL1       -0.2445
     15 O         -30.5073    2.4112   31.5995 O.3     1  UNL1       -0.4210
     16 C         -28.2804   -2.1676   30.7077 C.2     1  UNL1        0.3878
     17 O         -27.4744   -2.9602   30.3412 O.co2   1  UNL1       -0.2406
     18 O         -28.9707   -2.3091   31.7881 O.co2   1  UNL1       -0.2406
     19 C         -31.5015    3.0063   32.2774 C.ar    1  UNL1        0.1487
     20 C         -31.2597    2.9098   33.6494 C.ar    1  UNL1        0.0347
     21 C         -30.0226    2.7999   34.1305 C.ar    1  UNL1        0.0030
     22 C         -29.7319    2.5143   35.5376 C.ar    1  UNL1        0.0001
     23 C         -30.7589    2.4273   36.4184 C.ar    1  UNL1        0.0000
     24 C         -32.0349    2.5790   35.9512 C.ar    1  UNL1        0.0001
     25 C         -32.2856    2.7646   34.5977 C.ar    1  UNL1        0.0029
     26 C         -33.6445    2.8805   34.1150 C.ar    1  UNL1        0.0002
     27 C         -33.9431    2.4773   32.8845 C.ar    1  UNL1        0.0031
     28 C         -32.7973    2.1450   32.0250 C.ar    1  UNL1        0.0376
@<TRIPOS>BOND
     1     3     4    1
     2     7    13    1
     3    13    14    2
     4    13    15    1
     5     2    16    1
     6    16    17   ar
     7    16    18   ar
     8    15    19    1
     9    20    21   ar
    10    21    22   ar
    11    22    23   ar
    12    23    24   ar
    13    24    25   ar
    14    19    20   ar
    15    20    25   ar
    16    25    26   ar
    17    26    27   ar
    18    27    28   ar
    19    28    19   ar
    20     4     5   ar
    21     5     9   ar
    22     9    10   ar
    23    10    11   ar
    24    11    12   ar
    25    12     4   ar
    26     1     2   ar
    27     2     6   ar
    28     6     7   ar
    29     7     8   ar
    30     8     3   ar
    31     3     1   ar
