@<TRIPOS>MOLECULE
outputs/IAG933/test6/raw/output_4056_IAG933_linker_design_.xyz
 41 45 0 0 0
SMALL
GASTEIGER

@<TRIPOS>ATOM
      1 C         -24.8550   -1.0120   30.1430 C.3     1  UNL1        0.1117
      2 C         -24.9730   -2.5050   29.7880 C.2     1  UNL1       -0.0030
      3 C         -23.9060   -3.1730   29.1460 C.2     1  UNL1       -0.0026
      4 C         -23.9890   -4.5490   28.8530 C.2     1  UNL1       -0.0003
      5 C         -25.1370   -5.2800   29.2050 C.2     1  UNL1       -0.0000
      6 C         -26.2320   -4.6110   29.7840 C.2     1  UNL1       -0.0003
      7 C         -26.1550   -3.2320   30.0650 C.2     1  UNL1       -0.0026
      8 C         -25.3870   -0.6790   31.5710 C.3     1  UNL1        0.0950
      9 C         -25.1890    0.7730   32.0280 C.3     1  UNL1        0.0209
     10 C         -25.3360    0.6840   33.5440 C.3     1  UNL1        0.0203
     11 C         -24.8290   -0.7150   33.9050 C.3     1  UNL1        0.0888
     12 N         -24.7580   -1.4810   32.6460 N.3     1  UNL1       -0.2174
     13 C         -25.6880    1.6140   26.4610 C.3     1  UNL1        0.0780
     14 C         -26.2500    2.9200   26.3950 C.2     1  UNL1        0.0552
     15 C         -25.6420    4.0930   27.1230 C.2     1  UNL1        0.2625
     16 N         -25.6140    5.2520   26.4490 N.am    1  UNL1       -0.2000
     17 C         -25.0260    6.4790   26.9630 C.3     1  UNL1        0.1388
     18 O         -25.1430    3.9660   28.2430 O.2     1  UNL1       -0.2687
     19 C         -27.4380    3.0910   25.6450 C.2     1  UNL1        0.1022
     20 N         -28.0750    2.0890   25.0030 N.2     1  UNL1       -0.2119
     21 C         -27.5430    0.8490   25.0790 C.2     1  UNL1        0.2341
     22 O         -28.1930   -0.2080   24.4770 O.2     1  UNL1       -0.4585
     23 C         -29.4600    0.0050   23.8660 C.3     1  UNL1        0.2423
     24 C         -30.0650   -1.3770   23.5730 C.3     1  UNL1        0.2292
     25 O         -30.7290   -1.8780   24.7210 O.3     1  UNL1       -0.2162
     26 C         -26.3540    0.5760   25.7770 C.3     1  UNL1        0.2404
     27 F         -25.8600   -0.6810   25.7950 F       1  UNL1       -0.2269
     28 C         -20.7943   -0.1395   28.6233 C.3     1  UNL1        0.2363
     29 C         -23.4159    2.1055   25.6434 C.3     1  UNL1        0.2135
     30 O         -21.9777    1.9314   26.0077 O.2     1  UNL1       -0.4479
     31 C         -25.3479    0.2298   28.3931 C.3     1  UNL1        0.1807
     32 C         -24.1658    1.5440   26.8768 C.3     1  UNL1        0.0809
     33 C         -21.8937   -0.5668   29.1929 C.2     1  UNL1        0.0352
     34 O         -20.6648    0.8757   27.6897 O.2     1  UNL1       -0.4433
     35 C         -26.6813    0.1873   28.8166 C.2     1  UNL1        0.2809
     36 C         -21.8988    1.2715   27.2819 C.2     1  UNL1        0.2892
     37 N         -24.3028   -0.1558   29.1544 N.pl3   1  UNL1       -0.2964
     38 O         -27.1010    1.0967   29.4601 O.2     1  UNL1       -0.2698
     39 C         -23.0533    0.0589   28.6923 C.2     1  UNL1        0.0499
     40 C         -23.0321    0.9516   27.6460 C.2     1  UNL1        0.0660
     41 N         -27.4795   -0.8095   28.5215 N.am    1  UNL1       -0.0863
@<TRIPOS>BOND
     1     1    37    1
     2     2     7    1
     3     2     1    1
     4     3     2    2
     5     4     3    1
     6     4     5    2
     7     5     6    1
     8     6     7    2
     9     8     1    1
    10     8     9    1
    11     8    12    1
    12     9    10    1
    13    10    11    1
    14    12    11    1
    15    13    14    1
    16    13    32    1
    17    14    15    1
    18    15    18    2
    19    16    17    1
    20    16    15    1
    21    19    14    2
    22    20    21    2
    23    20    19    1
    24    21    26    1
    25    22    21    1
    26    23    22    1
    27    24    23    1
    28    24    25    1
    29    26    27    1
    30    26    13    1
    31    28    33    1
    32    29    30    1
    33    30    36    1
    34    31    35    1
    35    31    37    1
    36    32    29    1
    37    32    40    1
    38    34    28    1
    39    35    38    2
    40    36    40    2
    41    36    34    1
    42    39    37    1
    43    39    33    2
    44    40    39    1
    45    41    35    1
