@<TRIPOS>MOLECULE
No_4057-gen_results/8p0m/2024-11-27-11-27-31/
 30 33 0 0 0
SMALL
GASTEIGER

@<TRIPOS>ATOM
      1 C         -28.0162   -0.8135   28.8779 C.ar    1  UNL1        0.0369
      2 C         -27.0636   -0.1190   28.6079 C.ar    1  UNL1        0.0028
      3 C         -25.7923   -0.4302   29.0761 C.ar    1  UNL1       -0.0035
      4 C         -24.5456    0.3494   28.8225 C.ar    1  UNL1       -0.0190
      5 C         -23.2409    0.0217   29.3323 C.ar    1  UNL1       -0.0040
      6 C         -27.8820   -1.8995   29.8633 C.ar    1  UNL1        0.1387
      7 C         -26.6526   -2.3142   30.3138 C.ar    1  UNL1        0.0369
      8 C         -25.5153   -1.5607   29.9787 C.ar    1  UNL1        0.0027
      9 C         -23.2072   -1.2289   30.0311 C.ar    1  UNL1       -0.0003
     10 C         -24.2434   -1.9361   30.3879 C.ar    1  UNL1        0.0001
     11 C         -24.5768    1.5651   27.9574 C.3     1  UNL1        0.0377
     12 C         -24.9283    1.4560   26.6921 C.3     1  UNL1        0.0088
     13 C         -25.3476    2.6365   28.6824 C.ar    1  UNL1       -0.0190
     14 C         -25.5569    3.8554   28.0050 C.ar    1  UNL1       -0.0040
     15 C         -26.2244    4.8867   28.6557 C.ar    1  UNL1       -0.0003
     16 C         -26.4961    4.8393   29.9900 C.ar    1  UNL1       -0.0000
     17 C         -26.1470    3.6929   30.7079 C.ar    1  UNL1       -0.0003
     18 C         -25.5300    2.6230   30.0970 C.ar    1  UNL1       -0.0040
     19 C         -23.0368    2.0856   27.9580 C.3     1  UNL1        0.0088
     20 O         -29.0094   -2.6323   30.1643 O.3     1  UNL1       -0.4724
     21 C         -28.8754   -3.9136   30.5966 C.3     1  UNL1        0.2396
     22 C         -30.1259   -4.5895   30.8311 C.3     1  UNL1        0.1853
     23 C         -30.9900   -3.8949   31.4635 C.ar    1  UNL1        0.0086
     24 C         -31.9850   -3.5946   31.3057 C.ar    1  UNL1       -0.0018
     25 C         -32.9565   -2.7515   32.1113 C.ar    1  UNL1       -0.0002
     26 C         -32.4308   -2.2547   33.2914 C.ar    1  UNL1       -0.0000
     27 C         -31.1393   -2.5558   33.6541 C.ar    1  UNL1       -0.0002
     28 C         -30.3506   -3.3282   32.8641 C.ar    1  UNL1       -0.0018
     29 O         -30.7311   -4.9909   29.5975 O.3     1  UNL1       -0.2173
     30 C         -29.8478   -6.0141   31.5673 C.3     1  UNL1        0.0414
@<TRIPOS>BOND
     1     4    11    1
     2    11    12    1
     3    11    13    1
     4    11    19    1
     5     6    20    1
     6    20    21    1
     7    21    22    1
     8    22    23    1
     9    22    29    1
    10    22    30    1
    11    13    14   ar
    12    14    15   ar
    13    15    16   ar
    14    16    17   ar
    15    17    18   ar
    16    18    13   ar
    17     1     2   ar
    18     2     3   ar
    19     8     7   ar
    20     7     6   ar
    21     6     1   ar
    22    23    24   ar
    23    24    25   ar
    24    25    26   ar
    25    26    27   ar
    26    27    28   ar
    27    28    23   ar
    28     3     4   ar
    29     4     5   ar
    30     5     9   ar
    31     9    10   ar
    32    10     8   ar
    33     8     3   ar
