@<TRIPOS>MOLECULE
outputs/IAG933/test6/raw/output_4059_IAG933_linker_design_.xyz
 46 50 0 0 0
SMALL
GASTEIGER

@<TRIPOS>ATOM
      1 C         -24.8550   -1.0120   30.1430 C.3     1  UNL1        0.1113
      2 C         -24.9730   -2.5050   29.7880 C.2     1  UNL1       -0.0030
      3 C         -23.9060   -3.1730   29.1460 C.2     1  UNL1       -0.0026
      4 C         -23.9890   -4.5490   28.8530 C.2     1  UNL1       -0.0003
      5 C         -25.1370   -5.2800   29.2050 C.2     1  UNL1       -0.0000
      6 C         -26.2320   -4.6110   29.7840 C.2     1  UNL1       -0.0003
      7 C         -26.1550   -3.2320   30.0650 C.2     1  UNL1       -0.0026
      8 C         -25.3870   -0.6790   31.5710 C.3     1  UNL1        0.0950
      9 C         -25.1890    0.7730   32.0280 C.3     1  UNL1        0.0209
     10 C         -25.3360    0.6840   33.5440 C.3     1  UNL1        0.0203
     11 C         -24.8290   -0.7150   33.9050 C.3     1  UNL1        0.0888
     12 N         -24.7580   -1.4810   32.6460 N.3     1  UNL1       -0.2174
     13 C         -25.6880    1.6140   26.4610 C.2     1  UNL1        0.0416
     14 C         -26.2500    2.9200   26.3950 C.2     1  UNL1        0.0767
     15 C         -25.6420    4.0930   27.1230 C.2     1  UNL1        0.2664
     16 N         -25.6140    5.2520   26.4490 N.am    1  UNL1       -0.1997
     17 C         -25.0260    6.4790   26.9630 C.3     1  UNL1        0.1388
     18 O         -25.1430    3.9660   28.2430 O.2     1  UNL1       -0.2683
     19 C         -27.4380    3.0910   25.6450 C.2     1  UNL1        0.1067
     20 N         -28.0750    2.0890   25.0030 N.2     1  UNL1       -0.2081
     21 C         -27.5430    0.8490   25.0790 C.2     1  UNL1        0.2533
     22 O         -28.1930   -0.2080   24.4770 O.2     1  UNL1       -0.4558
     23 C         -29.4600    0.0050   23.8660 C.3     1  UNL1        0.2426
     24 C         -30.0650   -1.3770   23.5730 C.3     1  UNL1        0.2292
     25 O         -30.7290   -1.8780   24.7210 O.3     1  UNL1       -0.2162
     26 C         -26.3540    0.5760   25.7770 C.2     1  UNL1        0.1932
     27 F         -25.8600   -0.6810   25.7950 F       1  UNL1       -0.1992
     28 F         -23.1220    2.6819   25.7503 F       1  UNL1       -0.2001
     29 C         -27.0489   -0.4185   28.6736 C.3     1  UNL1        0.0915
     30 F         -21.0167    2.2276   27.2596 F       1  UNL1       -0.1808
     31 C         -28.4115    4.0467   31.6179 C.2     1  UNL1       -0.0003
     32 C         -23.3765    0.3523   29.0173 C.2     1  UNL1        0.1159
     33 C         -28.8095    2.8554   33.7178 C.2     1  UNL1       -0.0003
     34 C         -28.7842    0.3947   30.8047 C.3     1  UNL1        0.0240
     35 C         -29.3906   -0.7609   31.3297 C.3     1  UNL1        0.0047
     36 C         -24.5634    1.3607   27.2748 C.2     1  UNL1        0.0487
     37 C         -22.1460    1.7046   27.6423 C.2     1  UNL1        0.2500
     38 N         -22.1823    0.9287   28.7423 N.2     1  UNL1       -0.2133
     39 C         -29.0221    1.6558   33.0291 C.2     1  UNL1       -0.0043
     40 C         -23.2897    1.9511   26.8860 C.2     1  UNL1        0.1870
     41 C         -28.0947    0.4123   29.4392 C.3     1  UNL1        0.0258
     42 N         -25.5928   -0.2168   29.0210 N.pl3   1  UNL1       -0.3028
     43 C         -28.4660    4.0271   33.0308 C.2     1  UNL1       -0.0000
     44 C         -28.8871    1.6296   31.6202 C.2     1  UNL1       -0.0224
     45 C         -28.6816    2.8400   30.9246 C.2     1  UNL1       -0.0043
     46 C         -24.6342    0.5870   28.3617 C.2     1  UNL1        0.0699
@<TRIPOS>BOND
     1     1    42    1
     2     2     7    1
     3     2     1    1
     4     3     2    2
     5     4     3    1
     6     4     5    2
     7     5     6    1
     8     6     7    2
     9     8     1    1
    10     8     9    1
    11     8    12    1
    12     9    10    1
    13    10    11    1
    14    12    11    1
    15    13    36    1
    16    14    13    1
    17    14    15    1
    18    15    18    2
    19    16    17    1
    20    16    15    1
    21    19    14    2
    22    20    21    2
    23    20    19    1
    24    21    26    1
    25    22    21    1
    26    23    22    1
    27    24    23    1
    28    24    25    1
    29    26    27    1
    30    26    13    2
    31    28    40    1
    32    29    42    1
    33    29    41    1
    34    30    37    1
    35    31    43    1
    36    34    35    1
    37    34    44    1
    38    36    46    1
    39    37    38    2
    40    38    32    1
    41    39    33    1
    42    40    36    2
    43    40    37    1
    44    41    34    1
    45    43    33    2
    46    44    39    2
    47    45    31    2
    48    45    44    1
    49    46    32    2
    50    46    42    1
