@<TRIPOS>MOLECULE
No_4060-gen_results/8p0m/2024-11-27-11-27-31/
 17 18 0 0 0
SMALL
GASTEIGER

@<TRIPOS>ATOM
      1 C         -28.0162   -0.8135   28.8779 C.ar    1  UNL1        0.0362
      2 C         -28.4690   -0.7850   29.8287 C.ar    1  UNL1        0.0820
      3 C         -26.5042   -0.7777   28.8766 C.ar    1  UNL1        0.1403
      4 C         -25.8103   -0.8531   30.1028 C.ar    1  UNL1        0.0275
      5 C         -27.9906   -0.8916   31.2257 C.ar    1  UNL1        0.0067
      6 C         -26.6042   -0.8676   31.2652 C.ar    1  UNL1        0.0024
      7 C         -30.0739   -0.8360   29.8615 C.2     1  UNL1        0.3878
      8 O         -30.6825   -0.0696   30.6918 O.co2   1  UNL1       -0.2406
      9 O         -30.6203   -1.8425   29.3350 O.co2   1  UNL1       -0.2406
     10 F         -25.7588   -0.7654   27.7954 F       1  UNL1       -0.2042
     11 C         -24.4015   -0.6991   29.9759 C.ar    1  UNL1        0.0021
     12 C         -23.8593    0.6809   30.2719 C.ar    1  UNL1       -0.0003
     13 C         -22.7420    1.1416   29.5220 C.ar    1  UNL1       -0.0043
     14 C         -22.0075    0.2944   28.7263 C.ar    1  UNL1       -0.0218
     15 C         -20.9244    0.8818   28.0893 C.3     1  UNL1        0.0310
     16 C         -23.8204   -1.1878   28.7415 C.ar    1  UNL1       -0.0003
     17 C         -22.5663   -0.7056   28.3160 C.ar    1  UNL1       -0.0043
@<TRIPOS>BOND
     1     2     7    1
     2     7     8   ar
     3     7     9   ar
     4     3    10    1
     5     4    11    1
     6    14    15    1
     7     1     2   ar
     8     2     5   ar
     9     5     6   ar
    10     6     4   ar
    11     4     3   ar
    12     3     1   ar
    13    11    12   ar
    14    12    13   ar
    15    13    14   ar
    16    14    17   ar
    17    17    16   ar
    18    16    11   ar
