@<TRIPOS>MOLECULE
outputs/IAG933/test6/raw/output_4061_IAG933_linker_design_.xyz
 45 50 0 0 0
SMALL
GASTEIGER

@<TRIPOS>ATOM
      1 C         -24.8550   -1.0120   30.1430 C.3     1  UNL1        0.0618
      2 C         -24.9730   -2.5050   29.7880 C.2     1  UNL1       -0.0170
      3 C         -23.9060   -3.1730   29.1460 C.2     1  UNL1       -0.0039
      4 C         -23.9890   -4.5490   28.8530 C.2     1  UNL1       -0.0003
      5 C         -25.1370   -5.2800   29.2050 C.2     1  UNL1       -0.0000
      6 C         -26.2320   -4.6110   29.7840 C.2     1  UNL1       -0.0003
      7 C         -26.1550   -3.2320   30.0650 C.2     1  UNL1       -0.0039
      8 C         -25.3870   -0.6790   31.5710 C.3     1  UNL1        0.0809
      9 C         -25.1890    0.7730   32.0280 C.3     1  UNL1        0.0195
     10 C         -25.3360    0.6840   33.5440 C.3     1  UNL1        0.0203
     11 C         -24.8290   -0.7150   33.9050 C.3     1  UNL1        0.0887
     12 N         -24.7580   -1.4810   32.6460 N.3     1  UNL1       -0.2188
     13 C         -25.6880    1.6140   26.4610 C.3     1  UNL1        0.0941
     14 C         -26.2500    2.9200   26.3950 C.2     1  UNL1        0.0589
     15 C         -25.6420    4.0930   27.1230 C.2     1  UNL1        0.2628
     16 N         -25.6140    5.2520   26.4490 N.am    1  UNL1       -0.2000
     17 C         -25.0260    6.4790   26.9630 C.3     1  UNL1        0.1388
     18 O         -25.1430    3.9660   28.2430 O.2     1  UNL1       -0.2686
     19 C         -27.4380    3.0910   25.6450 C.2     1  UNL1        0.1025
     20 N         -28.0750    2.0890   25.0030 N.2     1  UNL1       -0.2118
     21 C         -27.5430    0.8490   25.0790 C.2     1  UNL1        0.2344
     22 O         -28.1930   -0.2080   24.4770 O.2     1  UNL1       -0.4585
     23 C         -29.4600    0.0050   23.8660 C.3     1  UNL1        0.2423
     24 C         -30.0650   -1.3770   23.5730 C.3     1  UNL1        0.2292
     25 O         -30.7290   -1.8780   24.7210 O.3     1  UNL1       -0.2162
     26 C         -26.3540    0.5760   25.7770 C.3     1  UNL1        0.2441
     27 F         -25.8600   -0.6810   25.7950 F       1  UNL1       -0.2265
     28 C         -30.0974   -1.4620   30.5438 C.3     1  UNL1        0.1638
     29 N         -29.4840   -1.7332   29.2262 N.3     1  UNL1       -0.2004
     30 C         -29.0295   -0.4710   28.5752 C.3     1  UNL1        0.0955
     31 C         -30.3372    0.2476   28.1002 C.3     1  UNL1        0.0365
     32 N         -26.7945    0.5607   28.8000 N.pl3   1  UNL1       -0.2385
     33 F         -21.2010    1.4232   28.1176 F       1  UNL1       -0.2037
     34 C         -24.4213   -0.0713   29.1964 C.2     1  UNL1       -0.0003
     35 C         -23.0435    0.1672   29.0885 C.2     1  UNL1        0.0274
     36 N         -30.8072   -0.1551   30.4645 N.3     1  UNL1       -0.2579
     37 C         -23.5112    1.4637   27.1558 C.2     1  UNL1        0.0551
     38 C         -24.8480    1.2457   27.3646 C.2     1  UNL1        0.0071
     39 I         -22.9571    2.4789   25.5014 I       1  UNL1       -0.0405
     40 C         -25.4459    0.5517   28.4680 C.2     1  UNL1        0.0586
     41 C         -28.5016    1.2692   30.3878 C.3     1  UNL1        0.0404
     42 C         -27.9421    0.0922   29.5616 C.3     1  UNL1        0.1098
     43 C         -31.4701    0.0217   29.1182 C.3     1  UNL1        0.0749
     44 C         -30.0244    1.0926   30.7710 C.3     1  UNL1        0.0752
     45 C         -22.5441    1.0300   28.1264 C.2     1  UNL1        0.1449
@<TRIPOS>BOND
     1     1    34    1
     2     2     7    1
     3     2     1    1
     4     3     2    2
     5     4     3    1
     6     4     5    2
     7     5     6    1
     8     6     7    2
     9     8     1    1
    10     8     9    1
    11     8    12    1
    12     9    10    1
    13    10    11    1
    14    12    11    1
    15    13    38    1
    16    14    13    1
    17    14    15    1
    18    15    18    2
    19    16    17    1
    20    16    15    1
    21    19    14    2
    22    20    21    2
    23    20    19    1
    24    21    26    1
    25    22    21    1
    26    23    22    1
    27    24    23    1
    28    24    25    1
    29    26    27    1
    30    26    13    1
    31    29    28    1
    32    30    31    1
    33    30    29    1
    34    30    42    1
    35    31    43    1
    36    33    45    1
    37    35    34    1
    38    36    43    1
    39    36    28    1
    40    36    44    1
    41    37    38    2
    42    37    45    1
    43    38    40    1
    44    39    37    1
    45    40    32    1
    46    40    34    2
    47    41    44    1
    48    42    32    1
    49    42    41    1
    50    45    35    2
