@<TRIPOS>MOLECULE
outputs/IAG933/test6/raw/output_4063_IAG933_linker_design_.xyz
 44 47 0 0 0
SMALL
GASTEIGER

@<TRIPOS>ATOM
      1 C         -24.8550   -1.0120   30.1430 C.3     1  UNL1        0.2187
      2 C         -24.9730   -2.5050   29.7880 C.2     1  UNL1        0.0184
      3 C         -23.9060   -3.1730   29.1460 C.2     1  UNL1       -0.0009
      4 C         -23.9890   -4.5490   28.8530 C.2     1  UNL1       -0.0002
      5 C         -25.1370   -5.2800   29.2050 C.2     1  UNL1       -0.0000
      6 C         -26.2320   -4.6110   29.7840 C.2     1  UNL1       -0.0002
      7 C         -26.1550   -3.2320   30.0650 C.2     1  UNL1       -0.0009
      8 C         -25.3870   -0.6790   31.5710 C.3     1  UNL1        0.1168
      9 C         -25.1890    0.7730   32.0280 C.3     1  UNL1        0.0228
     10 C         -25.3360    0.6840   33.5440 C.3     1  UNL1        0.0204
     11 C         -24.8290   -0.7150   33.9050 C.3     1  UNL1        0.0888
     12 N         -24.7580   -1.4810   32.6460 N.3     1  UNL1       -0.2156
     13 C         -25.6880    1.6140   26.4610 C.3     1  UNL1        0.2119
     14 C         -26.2500    2.9200   26.3950 C.2     1  UNL1        0.0909
     15 C         -25.6420    4.0930   27.1230 C.2     1  UNL1        0.2656
     16 N         -25.6140    5.2520   26.4490 N.am    1  UNL1       -0.1999
     17 C         -25.0260    6.4790   26.9630 C.3     1  UNL1        0.1388
     18 O         -25.1430    3.9660   28.2430 O.2     1  UNL1       -0.2685
     19 C         -27.4380    3.0910   25.6450 C.2     1  UNL1        0.1054
     20 N         -28.0750    2.0890   25.0030 N.2     1  UNL1       -0.2116
     21 C         -27.5430    0.8490   25.0790 C.2     1  UNL1        0.2377
     22 O         -28.1930   -0.2080   24.4770 O.2     1  UNL1       -0.4584
     23 C         -29.4600    0.0050   23.8660 C.3     1  UNL1        0.2423
     24 C         -30.0650   -1.3770   23.5730 C.3     1  UNL1        0.2292
     25 O         -30.7290   -1.8780   24.7210 O.3     1  UNL1       -0.2162
     26 C         -26.3540    0.5760   25.7770 C.3     1  UNL1        0.2760
     27 F         -25.8600   -0.6810   25.7950 F       1  UNL1       -0.2232
     28 C         -29.6548   -1.3762   30.1361 C.2     1  UNL1        0.1801
     29 C         -30.4792    1.6475   29.4683 C.2     1  UNL1       -0.0050
     30 C         -28.6979   -0.9456   29.1981 C.2     1  UNL1        0.0748
     31 C         -26.0083    0.5855   28.5117 C.cat   1  UNL1        0.4271
     32 C         -23.7261    0.7006   27.6074 C.3     1  UNL1        0.1781
     33 C         -21.7040    0.3341   28.8829 C.3     1  UNL1        0.0036
     34 C         -30.6953    0.9257   30.6364 C.2     1  UNL1       -0.0362
     35 C         -31.4357    1.5496   31.7734 C.3     1  UNL1        0.0268
     36 N         -27.3861    0.8356   28.3945 N.pl3   1  UNL1       -0.0688
     37 C         -29.6430    1.2028   28.3965 C.2     1  UNL1        0.0366
     38 C         -30.4316   -0.4163   30.8530 C.3     1  UNL1        0.0912
     39 C         -28.5534    0.3038   28.6653 C.2     1  UNL1        0.1617
     40 N         -25.0778    1.2516   27.7235 N.pl3   1  UNL1       -0.2282
     41 O         -29.9088   -2.6649   30.3471 O.2     1  UNL1       -0.2909
     42 C         -23.0755    0.9798   28.9375 C.3     1  UNL1        0.0430
     43 C         -20.9977    0.9875   27.6882 C.3     1  UNL1        0.0001
     44 N         -25.7419   -0.1855   29.4222 N.pl3   1  UNL1       -0.0921
@<TRIPOS>BOND
     1     1    44    1
     2     2     7    1
     3     2     1    1
     4     3     2    2
     5     4     3    1
     6     4     5    2
     7     5     6    1
     8     6     7    2
     9     8     1    1
    10     8     9    1
    11     8    12    1
    12     9    10    1
    13    10    11    1
    14    12    11    1
    15    13    40    1
    16    14    13    1
    17    14    15    1
    18    15    18    2
    19    16    17    1
    20    16    15    1
    21    19    14    2
    22    20    21    2
    23    20    19    1
    24    21    26    1
    25    22    21    1
    26    23    22    1
    27    24    23    1
    28    24    25    1
    29    26    27    1
    30    26    13    1
    31    28    41    1
    32    28    38    1
    33    29    34    2
    34    30    28    2
    35    31    44    2
    36    32    40    1
    37    32    42    1
    38    33    42    1
    39    34    38    1
    40    34    35    1
    41    36    31    1
    42    36    39    1
    43    37    39    2
    44    37    29    1
    45    39    30    1
    46    40    31    1
    47    43    33    1
