@<TRIPOS>MOLECULE
No_4065-gen_results/8p0m/2024-11-27-11-27-31/
 5 4 0 0 0
SMALL
GASTEIGER

@<TRIPOS>ATOM
      1 F         -28.0727   -1.2542   28.5316 F       1  UNL1       -0.1403
      2 C         -27.0607   -0.6291   28.8721 C.3     1  UNL1        0.5613
      3 F         -26.4722   -0.5474   28.0086 F       1  UNL1       -0.1403
      4 F         -27.3684    0.5937   29.4292 F       1  UNL1       -0.1403
      5 F         -26.4776   -1.3386   29.8999 F       1  UNL1       -0.1403
@<TRIPOS>BOND
     1     1     2    1
     2     2     3    1
     3     2     4    1
     4     2     5    1
