@<TRIPOS>MOLECULE
outputs/IAG933/test6/raw/output_4066_IAG933_linker_design_.xyz
 43 48 0 0 0
SMALL
GASTEIGER

@<TRIPOS>ATOM
      1 C         -24.8550   -1.0120   30.1430 C.3     1  UNL1        0.0978
      2 C         -24.9730   -2.5050   29.7880 C.2     1  UNL1       -0.0064
      3 C         -23.9060   -3.1730   29.1460 C.2     1  UNL1       -0.0029
      4 C         -23.9890   -4.5490   28.8530 C.2     1  UNL1       -0.0003
      5 C         -25.1370   -5.2800   29.2050 C.2     1  UNL1       -0.0000
      6 C         -26.2320   -4.6110   29.7840 C.2     1  UNL1       -0.0003
      7 C         -26.1550   -3.2320   30.0650 C.2     1  UNL1       -0.0029
      8 C         -25.3870   -0.6790   31.5710 C.3     1  UNL1        0.0946
      9 C         -25.1890    0.7730   32.0280 C.3     1  UNL1        0.0547
     10 C         -25.3360    0.6840   33.5440 C.3     1  UNL1        0.0234
     11 C         -24.8290   -0.7150   33.9050 C.3     1  UNL1        0.0889
     12 N         -24.7580   -1.4810   32.6460 N.3     1  UNL1       -0.2176
     13 C         -25.6880    1.6140   26.4610 C.3     1  UNL1        0.0902
     14 C         -26.2500    2.9200   26.3950 C.2     1  UNL1        0.0586
     15 C         -25.6420    4.0930   27.1230 C.2     1  UNL1        0.2627
     16 N         -25.6140    5.2520   26.4490 N.am    1  UNL1       -0.2000
     17 C         -25.0260    6.4790   26.9630 C.3     1  UNL1        0.1388
     18 O         -25.1430    3.9660   28.2430 O.2     1  UNL1       -0.2686
     19 C         -27.4380    3.0910   25.6450 C.2     1  UNL1        0.1025
     20 N         -28.0750    2.0890   25.0030 N.2     1  UNL1       -0.2118
     21 C         -27.5430    0.8490   25.0790 C.2     1  UNL1        0.2344
     22 O         -28.1930   -0.2080   24.4770 O.2     1  UNL1       -0.4585
     23 C         -29.4600    0.0050   23.8660 C.3     1  UNL1        0.2423
     24 C         -30.0650   -1.3770   23.5730 C.3     1  UNL1        0.2292
     25 O         -30.7290   -1.8780   24.7210 O.3     1  UNL1       -0.2162
     26 C         -26.3540    0.5760   25.7770 C.3     1  UNL1        0.2437
     27 F         -25.8600   -0.6810   25.7950 F       1  UNL1       -0.2265
     28 C         -24.1523    1.1611   31.0020 C.3     1  UNL1        0.1598
     29 C         -23.3464    0.3959   28.7529 C.3     1  UNL1        0.0796
     30 C         -22.0069    0.1238   28.9479 C.3     1  UNL1        0.0231
     31 C         -25.9593    5.9260   32.8254 C.3     1  UNL1        0.0513
     32 C         -21.2870    0.9559   27.9936 C.3     1  UNL1        0.0356
     33 O         -26.4478    3.4638   31.2042 O.2     1  UNL1       -0.2245
     34 C         -24.7340    5.1183   32.7339 C.3     1  UNL1        0.2103
     35 C         -23.4621    1.9593   25.4642 C.3     1  UNL1        0.1646
     36 C         -25.3207    3.2466   31.4688 C.2     1  UNL1        0.4223
     37 C         -23.4447    1.0415   27.4936 C.2     1  UNL1       -0.0084
     38 O         -22.1092    2.0520   25.8056 O.3     1  UNL1       -0.3477
     39 N         -24.5121    2.5598   30.6382 N.am    1  UNL1       -0.1537
     40 C         -24.2459    1.5258   26.5090 C.2     1  UNL1       -0.0122
     41 O         -24.7654    3.6867   32.6774 O.3     1  UNL1       -0.4335
     42 N         -24.3187    0.2878   29.6776 N.3     1  UNL1       -0.2509
     43 C         -22.2021    1.3757   27.0398 C.3     1  UNL1        0.1347
@<TRIPOS>BOND
     1     1     2    1
     2     1     8    1
     3     2     7    1
     4     3     2    2
     5     4     3    1
     6     4     5    2
     7     5     6    1
     8     6     7    2
     9     8     9    1
    10     8    12    1
    11     9    10    1
    12    10    11    1
    13    12    11    1
    14    13    40    1
    15    14    13    1
    16    14    15    1
    17    15    18    2
    18    16    17    1
    19    16    15    1
    20    19    14    2
    21    20    21    2
    22    20    19    1
    23    21    26    1
    24    22    21    1
    25    23    22    1
    26    24    23    1
    27    24    25    1
    28    26    27    1
    29    26    13    1
    30    28    39    1
    31    28     9    1
    32    29    30    1
    33    32    30    1
    34    33    36    2
    35    34    31    1
    36    35    38    1
    37    35    40    1
    38    36    41    1
    39    37    29    1
    40    38    43    1
    41    39    36    1
    42    40    37    2
    43    41    34    1
    44    42    29    1
    45    42     1    1
    46    42    28    1
    47    43    37    1
    48    43    32    1
