@<TRIPOS>MOLECULE
No_4070-gen_results/8p0m/2024-11-27-11-27-31/
 10 10 0 0 0
SMALL
GASTEIGER

@<TRIPOS>ATOM
      1 C         -28.0162   -0.8135   28.8779 C.ar    1  UNL1       -0.0061
      2 C         -27.0636   -0.1189   28.6079 C.ar    1  UNL1       -0.0029
      3 C         -27.0010    0.6913   27.4910 C.ar    1  UNL1       -0.0003
      4 C         -28.1373    0.7363   26.6350 C.ar    1  UNL1       -0.0000
      5 C         -29.2360    0.0765   27.0690 C.ar    1  UNL1       -0.0003
      6 C         -29.2177   -0.6429   28.1747 C.ar    1  UNL1       -0.0029
      7 C         -28.0030   -1.6604   30.1266 C.3     1  UNL1        0.0992
      8 N         -27.0435   -2.4948   30.2692 N.3     1  UNL1       -0.2665
      9 C         -25.7647   -2.0663   30.2738 C.3     1  UNL1        0.0899
     10 C         -27.2602   -3.8864   30.0616 C.3     1  UNL1        0.0899
@<TRIPOS>BOND
     1     1     7    1
     2     7     8    1
     3     8     9    1
     4     8    10    1
     5     1     2   ar
     6     2     3   ar
     7     3     4   ar
     8     4     5   ar
     9     5     6   ar
    10     6     1   ar
