@<TRIPOS>MOLECULE
outputs/IAG933/test6/raw/output_4071_IAG933_linker_design_.xyz
 45 49 0 0 0
SMALL
GASTEIGER

@<TRIPOS>ATOM
      1 C         -24.8550   -1.0120   30.1430 C.3     1  UNL1        0.1117
      2 C         -24.9730   -2.5050   29.7880 C.2     1  UNL1       -0.0010
      3 C         -23.9060   -3.1730   29.1460 C.2     1  UNL1       -0.0024
      4 C         -23.9890   -4.5490   28.8530 C.2     1  UNL1       -0.0003
      5 C         -25.1370   -5.2800   29.2050 C.2     1  UNL1       -0.0000
      6 C         -26.2320   -4.6110   29.7840 C.2     1  UNL1       -0.0003
      7 C         -26.1550   -3.2320   30.0650 C.2     1  UNL1       -0.0024
      8 C         -25.3870   -0.6790   31.5710 C.3     1  UNL1        0.0971
      9 C         -25.1890    0.7730   32.0280 C.3     1  UNL1        0.0212
     10 C         -25.3360    0.6840   33.5440 C.3     1  UNL1        0.0203
     11 C         -24.8290   -0.7150   33.9050 C.3     1  UNL1        0.0888
     12 N         -24.7580   -1.4810   32.6460 N.3     1  UNL1       -0.2172
     13 C         -25.6880    1.6140   26.4610 C.2     1  UNL1        0.0390
     14 C         -26.2500    2.9200   26.3950 C.2     1  UNL1        0.0766
     15 C         -25.6420    4.0930   27.1230 C.2     1  UNL1        0.2664
     16 N         -25.6140    5.2520   26.4490 N.am    1  UNL1       -0.1997
     17 C         -25.0260    6.4790   26.9630 C.3     1  UNL1        0.1388
     18 O         -25.1430    3.9660   28.2430 O.2     1  UNL1       -0.2683
     19 C         -27.4380    3.0910   25.6450 C.2     1  UNL1        0.1067
     20 N         -28.0750    2.0890   25.0030 N.2     1  UNL1       -0.2081
     21 C         -27.5430    0.8490   25.0790 C.2     1  UNL1        0.2533
     22 O         -28.1930   -0.2080   24.4770 O.2     1  UNL1       -0.4558
     23 C         -29.4600    0.0050   23.8660 C.3     1  UNL1        0.2426
     24 C         -30.0650   -1.3770   23.5730 C.3     1  UNL1        0.2292
     25 O         -30.7290   -1.8780   24.7210 O.3     1  UNL1       -0.2162
     26 C         -26.3540    0.5760   25.7770 C.2     1  UNL1        0.1931
     27 F         -25.8600   -0.6810   25.7950 F       1  UNL1       -0.1992
     28 C         -22.2175    1.3483   27.7182 C.2     1  UNL1        0.1365
     29 C         -23.3187    1.5210   26.8421 C.2     1  UNL1        0.0168
     30 C         -23.3313    1.9393   25.4007 C.3     1  UNL1        0.1294
     31 C         -24.7290    0.4813   28.5238 C.2     1  UNL1        0.0459
     32 O         -21.1369    1.9317   25.4916 O.2     1  UNL1       -0.2587
     33 O         -28.9894   -1.0075   29.2922 O.3     1  UNL1       -0.3519
     34 F         -20.9695    1.9477   27.7320 F       1  UNL1       -0.2045
     35 C         -22.2499    0.5977   28.8209 C.2     1  UNL1        0.0282
     36 C         -27.4599    0.6960   28.8690 C.3     1  UNL1        0.1004
     37 F         -22.1532    1.8898   23.4904 F       1  UNL1       -0.1632
     38 C         -23.4449    0.0146   29.3014 C.2     1  UNL1        0.0146
     39 C         -24.5879    1.1981   27.4155 C.2     1  UNL1        0.0143
     40 C         -22.1573    1.9823   24.8116 C.2     1  UNL1        0.3151
     41 C         -28.1877    2.1165   28.8569 C.3     1  UNL1        0.0240
     42 N         -26.0667   -0.1260   29.1372 N.pl3   1  UNL1       -0.3019
     43 C         -28.5612   -0.3069   28.3441 C.3     1  UNL1        0.1333
     44 C         -29.7081    0.2754   27.4712 C.3     1  UNL1        0.0338
     45 C         -30.2738   -1.5121   29.4365 C.3     1  UNL1        0.1741
@<TRIPOS>BOND
     1     1     2    1
     2     1     8    1
     3     2     7    1
     4     3     2    2
     5     4     3    1
     6     4     5    2
     7     5     6    1
     8     6     7    2
     9     8     9    1
    10     8    12    1
    11     9    10    1
    12    10    11    1
    13    12    11    1
    14    13    39    1
    15    14    13    1
    16    14    15    1
    17    15    18    2
    18    16    17    1
    19    16    15    1
    20    19    14    2
    21    20    21    2
    22    20    19    1
    23    21    26    1
    24    22    21    1
    25    23    22    1
    26    24    23    1
    27    24    25    1
    28    26    27    1
    29    26    13    2
    30    28    34    1
    31    28    35    1
    32    29    39    1
    33    29    28    2
    34    30    29    1
    35    31    42    1
    36    31    38    1
    37    33    45    1
    38    35    38    2
    39    36    41    1
    40    36    42    1
    41    37    40    1
    42    38     1    1
    43    39    31    2
    44    40    30    1
    45    40    32    2
    46    42     1    1
    47    43    44    1
    48    43    36    1
    49    43    33    1
