@<TRIPOS>MOLECULE
No_4072-gen_results/8p0m/2024-11-27-11-27-31/
 9 9 0 0 0
SMALL
GASTEIGER

@<TRIPOS>ATOM
      1 C         -28.0162   -0.8135   28.8779 C.ar    1  UNL1       -0.0003
      2 C         -27.0636   -0.1189   28.6079 C.ar    1  UNL1       -0.0039
      3 C         -25.7647   -0.3897   29.0360 C.ar    1  UNL1       -0.0161
      4 C         -25.5296   -1.5302   29.9014 C.ar    1  UNL1       -0.0039
      5 C         -26.6577   -2.2915   30.2035 C.ar    1  UNL1       -0.0003
      6 C         -27.8548   -1.9555   29.7630 C.ar    1  UNL1       -0.0000
      7 C         -24.5349    0.4128   28.7431 C.3     1  UNL1        0.0752
      8 C         -24.0543    1.3255   29.5757 C.2     1  UNL1        0.1004
      9 N         -22.9726    2.0523   29.1553 N.2     1  UNL1       -0.1510
@<TRIPOS>BOND
     1     3     7    1
     2     7     8    1
     3     8     9    2
     4     1     2   ar
     5     2     3   ar
     6     3     4   ar
     7     4     5   ar
     8     5     6   ar
     9     6     1   ar
