@<TRIPOS>MOLECULE
outputs/IAG933/test6/raw/output_4076_IAG933_linker_design_.xyz
 41 44 0 0 0
SMALL
GASTEIGER

@<TRIPOS>ATOM
      1 C         -24.8550   -1.0120   30.1430 C.3     1  UNL1        0.0867
      2 C         -24.9730   -2.5050   29.7880 C.2     1  UNL1       -0.0170
      3 C         -23.9060   -3.1730   29.1460 C.2     1  UNL1       -0.0041
      4 C         -23.9890   -4.5490   28.8530 C.2     1  UNL1       -0.0003
      5 C         -25.1370   -5.2800   29.2050 C.2     1  UNL1       -0.0000
      6 C         -26.2320   -4.6110   29.7840 C.2     1  UNL1       -0.0003
      7 C         -26.1550   -3.2320   30.0650 C.2     1  UNL1       -0.0041
      8 C         -25.3870   -0.6790   31.5710 C.3     1  UNL1        0.0809
      9 C         -25.1890    0.7730   32.0280 C.3     1  UNL1        0.0193
     10 C         -25.3360    0.6840   33.5440 C.3     1  UNL1        0.0202
     11 C         -24.8290   -0.7150   33.9050 C.3     1  UNL1        0.0887
     12 N         -24.7580   -1.4810   32.6460 N.3     1  UNL1       -0.2190
     13 C         -25.6880    1.6140   26.4610 C.2     1  UNL1        0.1035
     14 C         -26.2500    2.9200   26.3950 C.2     1  UNL1        0.0914
     15 C         -25.6420    4.0930   27.1230 C.2     1  UNL1        0.2677
     16 N         -25.6140    5.2520   26.4490 N.am    1  UNL1       -0.1997
     17 C         -25.0260    6.4790   26.9630 C.3     1  UNL1        0.1388
     18 O         -25.1430    3.9660   28.2430 O.2     1  UNL1       -0.2683
     19 C         -27.4380    3.0910   25.6450 C.2     1  UNL1        0.1080
     20 N         -28.0750    2.0890   25.0030 N.2     1  UNL1       -0.2080
     21 C         -27.5430    0.8490   25.0790 C.2     1  UNL1        0.2546
     22 O         -28.1930   -0.2080   24.4770 O.2     1  UNL1       -0.4558
     23 C         -29.4600    0.0050   23.8660 C.3     1  UNL1        0.2426
     24 C         -30.0650   -1.3770   23.5730 C.3     1  UNL1        0.2292
     25 O         -30.7290   -1.8780   24.7210 O.3     1  UNL1       -0.2162
     26 C         -26.3540    0.5760   25.7770 C.2     1  UNL1        0.2078
     27 F         -25.8600   -0.6810   25.7950 F       1  UNL1       -0.1979
     28 C         -22.9596    0.6362   27.9507 C.3     1  UNL1        0.1447
     29 O         -21.5869    2.2324   26.3337 O.3     1  UNL1       -0.3254
     30 C         -25.1229   -0.0746   28.9716 C.3     1  UNL1        0.2163
     31 O         -23.7916   -0.4285   28.3008 O.3     1  UNL1       -0.3365
     32 C         -22.8275    1.7966   26.0694 C.3     1  UNL1        0.3008
     33 C         -21.0142    1.8460   27.5000 C.3     1  UNL1        0.1477
     34 C         -27.4347    0.8863   29.0306 C.2     1  UNL1        0.2439
     35 C         -23.5386    1.3960   27.0694 C.3     1  UNL1        0.1809
     36 C         -28.3133    1.9920   29.4341 C.3     1  UNL1        0.0965
     37 O         -27.8298   -0.2706   28.7697 O.2     1  UNL1       -0.2733
     38 N         -26.1344    1.1211   29.1516 N.am    1  UNL1       -0.1774
     39 N         -24.6406    1.4833   27.0970 N.pl3   1  UNL1       -0.2287
     40 C         -21.6764    0.9403   28.3388 C.3     1  UNL1        0.0637
     41 F         -23.2609    1.5891   24.8332 F       1  UNL1       -0.2020
@<TRIPOS>BOND
     1     1    30    1
     2     2     7    1
     3     2     1    1
     4     3     2    2
     5     4     3    1
     6     4     5    2
     7     5     6    1
     8     6     7    2
     9     8     1    1
    10     8     9    1
    11     8    12    1
    12     9    10    1
    13    10    11    1
    14    12    11    1
    15    13    39    1
    16    14    13    1
    17    14    15    1
    18    15    18    2
    19    16    17    1
    20    16    15    1
    21    19    14    2
    22    20    21    2
    23    20    19    1
    24    21    26    1
    25    22    21    1
    26    23    22    1
    27    24    23    1
    28    24    25    1
    29    26    27    1
    30    26    13    2
    31    28    31    1
    32    28    40    1
    33    29    33    1
    34    30    31    1
    35    30    38    1
    36    32    41    1
    37    32    29    1
    38    32    35    1
    39    33    40    1
    40    34    38    1
    41    34    36    1
    42    35    39    1
    43    35    28    1
    44    37    34    2
