@<TRIPOS>MOLECULE
outputs/IAG933/test6/raw/output_4079_IAG933_linker_design_.xyz
 43 47 0 0 0
SMALL
GASTEIGER

@<TRIPOS>ATOM
      1 C         -24.8550   -1.0120   30.1430 C.3     1  UNL1        0.0923
      2 C         -24.9730   -2.5050   29.7880 C.2     1  UNL1       -0.0165
      3 C         -23.9060   -3.1730   29.1460 C.2     1  UNL1       -0.0041
      4 C         -23.9890   -4.5490   28.8530 C.2     1  UNL1       -0.0003
      5 C         -25.1370   -5.2800   29.2050 C.2     1  UNL1       -0.0000
      6 C         -26.2320   -4.6110   29.7840 C.2     1  UNL1       -0.0003
      7 C         -26.1550   -3.2320   30.0650 C.2     1  UNL1       -0.0041
      8 C         -25.3870   -0.6790   31.5710 C.3     1  UNL1        0.0866
      9 C         -25.1890    0.7730   32.0280 C.3     1  UNL1        0.0538
     10 C         -25.3360    0.6840   33.5440 C.3     1  UNL1        0.0258
     11 C         -24.8290   -0.7150   33.9050 C.3     1  UNL1        0.0891
     12 N         -24.7580   -1.4810   32.6460 N.3     1  UNL1       -0.2186
     13 C         -25.6880    1.6140   26.4610 C.2     1  UNL1        0.0380
     14 C         -26.2500    2.9200   26.3950 C.2     1  UNL1        0.0765
     15 C         -25.6420    4.0930   27.1230 C.2     1  UNL1        0.2664
     16 N         -25.6140    5.2520   26.4490 N.am    1  UNL1       -0.1997
     17 C         -25.0260    6.4790   26.9630 C.3     1  UNL1        0.1388
     18 O         -25.1430    3.9660   28.2430 O.2     1  UNL1       -0.2683
     19 C         -27.4380    3.0910   25.6450 C.2     1  UNL1        0.1067
     20 N         -28.0750    2.0890   25.0030 N.2     1  UNL1       -0.2081
     21 C         -27.5430    0.8490   25.0790 C.2     1  UNL1        0.2533
     22 O         -28.1930   -0.2080   24.4770 O.2     1  UNL1       -0.4558
     23 C         -29.4600    0.0050   23.8660 C.3     1  UNL1        0.2426
     24 C         -30.0650   -1.3770   23.5730 C.3     1  UNL1        0.2292
     25 O         -30.7290   -1.8780   24.7210 O.3     1  UNL1       -0.2162
     26 C         -26.3540    0.5760   25.7770 C.2     1  UNL1        0.1930
     27 F         -25.8600   -0.6810   25.7950 F       1  UNL1       -0.1992
     28 O         -24.2422    3.9209   32.4468 O.3     1  UNL1       -0.2059
     29 C         -21.8180    1.4345   28.6479 C.2     1  UNL1        0.1795
     30 C         -25.5511    4.1923   32.5787 C.3     1  UNL1        0.2068
     31 C         -22.0451    2.1176   26.8076 C.2     1  UNL1        0.1797
     32 N         -26.0205    4.3700   33.8928 N.3     1  UNL1       -0.1006
     33 O         -21.2043    1.9523   27.6909 O.2     1  UNL1       -0.4473
     34 C         -24.2666    0.9329   28.4438 C.2     1  UNL1        0.0299
     35 C         -23.0455    1.0691   29.1078 C.2     1  UNL1        0.0407
     36 C         -25.7730    5.5421   32.0892 C.3     1  UNL1        0.0532
     37 C         -25.9129    1.9275   31.3397 C.2     1  UNL1        0.0393
     38 O         -26.3207   -0.5350   28.3456 O.3     1  UNL1       -0.1958
     39 C         -24.4267    1.4801   27.1423 C.2     1  UNL1        0.0059
     40 C         -26.4180    3.0869   32.0015 C.3     1  UNL1        0.0897
     41 C         -25.4155    0.2846   29.3002 C.3     1  UNL1        0.2326
     42 N         -26.0913    1.5258   29.9443 N.2     1  UNL1       -0.2491
     43 C         -23.3204    1.9876   26.4228 C.2     1  UNL1        0.0406
@<TRIPOS>BOND
     1     1     2    1
     2     1     8    1
     3     2     7    1
     4     3     2    2
     5     4     3    1
     6     4     5    2
     7     5     6    1
     8     6     7    2
     9     8     9    1
    10     8    12    1
    11     9    10    1
    12    10    11    1
    13    12    11    1
    14    13    39    1
    15    14    13    1
    16    14    15    1
    17    15    18    2
    18    16    17    1
    19    16    15    1
    20    19    14    2
    21    20    21    2
    22    20    19    1
    23    21    26    1
    24    22    21    1
    25    23    22    1
    26    24    23    1
    27    24    25    1
    28    26    27    1
    29    26    13    2
    30    28    30    1
    31    29    35    2
    32    30    36    1
    33    30    32    1
    34    31    33    1
    35    33    29    1
    36    34    35    1
    37    34    41    1
    38    37    40    1
    39    37     9    1
    40    39    34    2
    41    40    30    1
    42    41    38    1
    43    41    42    1
    44    41     1    1
    45    42    37    2
    46    43    31    2
    47    43    39    1
