@<TRIPOS>MOLECULE
No_4082-gen_results/8p0m/2024-11-27-11-27-31/
 35 37 0 0 0
SMALL
GASTEIGER

@<TRIPOS>ATOM
      1 C         -28.0162   -0.8135   28.8779 C.ar    1  UNL1        0.0259
      2 C         -28.4690   -0.7850   29.8287 C.ar    1  UNL1        0.1462
      3 C         -26.5455   -0.8762   28.8500 C.ar    1  UNL1       -0.0155
      4 C         -25.6825   -0.7773   27.6829 C.3     1  UNL1        0.0527
      5 C         -27.9181   -1.0034   31.1877 C.ar    1  UNL1        0.1071
      6 C         -26.5308   -1.0794   31.2463 C.ar    1  UNL1        0.0086
      7 C         -25.7798   -1.0462   30.0905 C.ar    1  UNL1       -0.0026
      8 C         -25.2322    0.5793   27.3292 C.ar    1  UNL1       -0.0176
      9 C         -25.9027    1.5335   27.4253 C.ar    1  UNL1        0.0025
     10 C         -25.3348    2.8671   27.0802 C.ar    1  UNL1        0.0753
     11 C         -24.0033    2.9885   26.6466 C.ar    1  UNL1        0.0064
     12 C         -23.2328    1.8380   26.6116 C.ar    1  UNL1       -0.0001
     13 C         -23.8065    0.5810   26.9916 C.ar    1  UNL1       -0.0039
     14 C         -24.3748   -1.1302   30.1718 C.ar    1  UNL1        0.0123
     15 C         -23.3958   -0.1612   30.3904 C.ar    1  UNL1        0.0802
     16 C         -23.8208   -2.4657   29.6640 C.ar    1  UNL1        0.0347
     17 C         -22.0629   -0.2845   30.1936 C.ar    1  UNL1        0.0066
     18 C         -21.5856   -1.4242   29.5152 C.ar    1  UNL1        0.0007
     19 C         -22.4476   -2.4585   29.2813 C.ar    1  UNL1        0.0067
     20 C         -23.9389    1.1778   31.0152 C.2     1  UNL1        0.3878
     21 O         -24.5179    1.3088   32.0268 O.co2   1  UNL1       -0.2406
     22 O         -23.6950    2.2781   30.2097 O.co2   1  UNL1       -0.2406
     23 F         -29.8825   -0.7579   29.9228 F       1  UNL1       -0.2040
     24 BR        -24.9649   -3.7352   29.5180 Br      1  UNL1       -0.0490
     25 C         -28.7675   -1.0360   32.4211 C.2     1  UNL1        0.3899
     26 O         -29.1234   -0.1581   33.0355 O.co2   1  UNL1       -0.2405
     27 O         -28.8570   -2.2878   32.8600 O.co2   1  UNL1       -0.2405
     28 C         -26.1935    4.1158   27.1661 C.2     1  UNL1        0.3412
     29 O         -27.3129    4.0405   26.9218 O.2     1  UNL1       -0.2449
     30 O         -25.5649    5.2218   27.4715 O.3     1  UNL1       -0.4454
     31 C         -26.3022    6.3824   27.6740 C.3     1  UNL1        0.2085
     32 C         -25.5503    7.5329   27.5518 C.3     1  UNL1        0.0405
     33 C         -24.2401    7.4567   27.8723 C.3     1  UNL1        0.0037
     34 C         -26.1342    8.7418   28.3200 C.3     1  UNL1        0.0037
     35 C         -25.6347    7.9522   26.0028 C.3     1  UNL1        0.0037
@<TRIPOS>BOND
     1     3     4    1
     2     4     8    1
     3     7    14    1
     4    15    20    1
     5    20    21   ar
     6    20    22   ar
     7     2    23    1
     8    16    24    1
     9     5    25    1
    10    25    26   ar
    11    25    27   ar
    12    10    28    1
    13    28    29    2
    14    28    30    1
    15    30    31    1
    16    31    32    1
    17    32    33    1
    18    32    34    1
    19    32    35    1
    20    14    15   ar
    21    15    17   ar
    22    17    18   ar
    23    18    19   ar
    24    19    16   ar
    25    16    14   ar
    26     8     9   ar
    27     9    10   ar
    28    10    11   ar
    29    11    12   ar
    30    12    13   ar
    31    13     8   ar
    32     1     2   ar
    33     2     5   ar
    34     5     6   ar
    35     6     7   ar
    36     7     3   ar
    37     3     1   ar
