@<TRIPOS>MOLECULE
No_4086-gen_results/8p0m/2024-11-27-11-27-31/
 16 18 0 0 0
SMALL
GASTEIGER

@<TRIPOS>ATOM
      1 C         -28.0162   -0.8135   28.8779 C.ar    1  UNL1        0.0033
      2 C         -28.4690   -0.7850   29.8287 C.ar    1  UNL1        0.0001
      3 C         -27.0871    0.2903   28.6377 C.ar    1  UNL1        0.0420
      4 C         -26.2516    0.4114   27.4223 C.2     1  UNL1        0.1957
      5 C         -28.3913    0.1041   30.9805 C.ar    1  UNL1        0.0001
      6 C         -27.5332    1.1666   30.7866 C.ar    1  UNL1        0.0033
      7 C         -26.8281    1.2557   29.6454 C.ar    1  UNL1        0.0420
      8 C         -25.6444    1.6653   27.2216 C.ar    1  UNL1        0.0420
      9 C         -24.6322    1.7370   26.2648 C.ar    1  UNL1        0.0033
     10 C         -23.8427    2.9889   26.2422 C.ar    1  UNL1        0.0001
     11 C         -24.2581    4.0862   27.0217 C.ar    1  UNL1        0.0001
     12 C         -25.3586    3.9452   27.8295 C.ar    1  UNL1        0.0033
     13 C         -25.9857    2.7341   28.0164 C.ar    1  UNL1        0.0420
     14 C         -26.6790    2.5245   29.2790 C.2     1  UNL1        0.1957
     15 O         -26.7527    3.5748   30.0738 O.2     1  UNL1       -0.2866
     16 O         -26.1688   -0.5160   26.6253 O.2     1  UNL1       -0.2866
@<TRIPOS>BOND
     1     3     4    1
     2     4     8    1
     3     7    14    1
     4    13    14    1
     5    14    15    2
     6     4    16    2
     7     8     9   ar
     8     9    10   ar
     9    10    11   ar
    10    11    12   ar
    11    12    13   ar
    12    13     8   ar
    13     1     2   ar
    14     2     5   ar
    15     5     6   ar
    16     6     7   ar
    17     7     3   ar
    18     3     1   ar
