@<TRIPOS>MOLECULE
No_4087-gen_results/8p0m/2024-11-27-11-27-31/
 22 24 0 0 0
SMALL
GASTEIGER

@<TRIPOS>ATOM
      1 C         -28.0162   -0.8135   28.8779 C.ar    1  UNL1        0.0497
      2 C         -28.4690   -0.7850   29.8287 C.2     1  UNL1        0.2488
      3 C         -28.1816    0.4277   28.1134 C.ar    1  UNL1        0.0039
      4 C         -27.4498    0.6435   26.8500 C.ar    1  UNL1       -0.0027
      5 C         -26.1815    0.0357   26.7145 C.ar    1  UNL1       -0.0051
      6 C         -25.7800   -0.9326   27.6938 C.ar    1  UNL1       -0.0069
      7 C         -26.5568   -1.2134   28.7413 C.ar    1  UNL1       -0.0164
      8 N         -28.3021   -1.9782   30.6613 N.am    1  UNL1       -0.2740
      9 O         -29.5330   -0.1613   30.2779 O.2     1  UNL1       -0.2699
     10 C         -29.1652   -2.4095   31.8078 C.3     1  UNL1        0.1152
     11 C         -25.2943    0.3227   25.6009 C.3     1  UNL1        0.1154
     12 C         -27.2132   -2.8463   30.4707 C.3     1  UNL1        0.0984
     13 C         -26.1591   -2.4285   29.5236 C.3     1  UNL1        0.0480
     14 N         -24.5967    1.2915   25.2858 N.3     1  UNL1       -0.2085
     15 C         -24.4881    2.3077   26.2572 C.3     1  UNL1        0.1151
     16 C         -24.5040    2.3677   27.3189 C.ar    1  UNL1       -0.0087
     17 C         -24.4066    3.6098   28.1516 C.ar    1  UNL1       -0.0032
     18 C         -24.7097    3.5276   29.5176 C.ar    1  UNL1       -0.0003
     19 C         -24.8990    2.2670   30.1110 C.ar    1  UNL1       -0.0003
     20 C         -24.8414    1.1251   29.3624 C.ar    1  UNL1       -0.0045
     21 C         -24.6895    1.2128   28.1251 C.ar    1  UNL1       -0.0245
     22 C         -23.8533    0.1167   27.5684 C.3     1  UNL1        0.0307
@<TRIPOS>BOND
     1     1     2    1
     2     2     8   am
     3     2     9    2
     4     8    10    1
     5     5    11    1
     6     8    12    1
     7     7    13    1
     8    11    14    1
     9    14    15    1
    10    21    22    1
    11    15    16    1
    12    13    12    1
    13    16    17   ar
    14    17    18   ar
    15    18    19   ar
    16    19    20   ar
    17    20    21   ar
    18    21    16   ar
    19     1     3   ar
    20     3     4   ar
    21     4     5   ar
    22     5     6   ar
    23     6     7   ar
    24     7     1   ar
