@<TRIPOS>MOLECULE
outputs/IAG933/test6/raw/output_4088_IAG933_linker_design_.xyz
 49 53 0 0 0
SMALL
GASTEIGER

@<TRIPOS>ATOM
      1 C         -24.8550   -1.0120   30.1430 C.3     1  UNL1        0.0672
      2 C         -24.9730   -2.5050   29.7880 C.2     1  UNL1       -0.0190
      3 C         -23.9060   -3.1730   29.1460 C.2     1  UNL1       -0.0042
      4 C         -23.9890   -4.5490   28.8530 C.2     1  UNL1       -0.0003
      5 C         -25.1370   -5.2800   29.2050 C.2     1  UNL1       -0.0000
      6 C         -26.2320   -4.6110   29.7840 C.2     1  UNL1       -0.0003
      7 C         -26.1550   -3.2320   30.0650 C.2     1  UNL1       -0.0042
      8 C         -25.3870   -0.6790   31.5710 C.3     1  UNL1        0.0790
      9 C         -25.1890    0.7730   32.0280 C.3     1  UNL1        0.0193
     10 C         -25.3360    0.6840   33.5440 C.3     1  UNL1        0.0202
     11 C         -24.8290   -0.7150   33.9050 C.3     1  UNL1        0.0887
     12 N         -24.7580   -1.4810   32.6460 N.3     1  UNL1       -0.2191
     13 C         -25.6880    1.6140   26.4610 C.3     1  UNL1        0.0925
     14 C         -26.2500    2.9200   26.3950 C.2     1  UNL1        0.0566
     15 C         -25.6420    4.0930   27.1230 C.2     1  UNL1        0.2625
     16 N         -25.6140    5.2520   26.4490 N.am    1  UNL1       -0.2000
     17 C         -25.0260    6.4790   26.9630 C.3     1  UNL1        0.1388
     18 O         -25.1430    3.9660   28.2430 O.2     1  UNL1       -0.2687
     19 C         -27.4380    3.0910   25.6450 C.2     1  UNL1        0.1022
     20 N         -28.0750    2.0890   25.0030 N.2     1  UNL1       -0.2119
     21 C         -27.5430    0.8490   25.0790 C.2     1  UNL1        0.2341
     22 O         -28.1930   -0.2080   24.4770 O.2     1  UNL1       -0.4585
     23 C         -29.4600    0.0050   23.8660 C.3     1  UNL1        0.2423
     24 C         -30.0650   -1.3770   23.5730 C.3     1  UNL1        0.2292
     25 O         -30.7290   -1.8780   24.7210 O.3     1  UNL1       -0.2162
     26 C         -26.3540    0.5760   25.7770 C.3     1  UNL1        0.2417
     27 F         -25.8600   -0.6810   25.7950 F       1  UNL1       -0.2268
     28 N         -26.0217    1.2680   29.0984 N.am    1  UNL1       -0.1971
     29 C         -23.7653    0.6671   28.9392 C.2     1  UNL1        0.2616
     30 C         -27.9337    4.0983   31.8078 C.2     1  UNL1        0.0190
     31 O         -29.2343    6.1005   31.3028 O.3     1  UNL1       -0.1999
     32 C         -21.1266    1.7584   27.4669 C.3     1  UNL1        0.1741
     33 O         -27.7682    0.1407   28.9970 O.2     1  UNL1       -0.2729
     34 C         -27.4159    2.7699   31.4383 C.2     1  UNL1       -0.0166
     35 C         -27.9168    2.1470   30.3060 C.3     1  UNL1        0.1146
     36 C         -29.1091    4.7240   31.1907 C.3     1  UNL1        0.2351
     37 C         -31.4540    3.3295   29.7983 C.3     1  UNL1        0.0188
     38 C         -23.0019    1.4916   26.0376 C.3     1  UNL1        0.1356
     39 C         -24.2418    1.3547   26.7582 C.3     1  UNL1        0.1297
     40 C         -30.4688    2.2130   30.2242 C.3     1  UNL1        0.0183
     41 C         -22.7494    2.3175   24.7625 C.3     1  UNL1        0.0339
     42 C         -27.2281    1.1473   29.4317 C.2     1  UNL1        0.2467
     43 N         -29.2581    4.2081   29.7894 N.3     1  UNL1       -0.2453
     44 C         -30.6804    4.6133   29.4175 C.3     1  UNL1        0.0746
     45 O         -21.8549    0.9864   26.4676 O.3     1  UNL1       -0.3518
     46 C         -25.1364   -0.0018   29.1034 C.3     1  UNL1        0.1780
     47 N         -23.9245    1.7008   28.1604 N.am    1  UNL1       -0.2028
     48 C         -29.1710    2.7571   29.6292 C.3     1  UNL1        0.0727
     49 O         -22.6979    0.3407   29.5582 O.2     1  UNL1       -0.2715
@<TRIPOS>BOND
     1     1    46    1
     2     2     7    1
     3     2     1    1
     4     3     2    2
     5     4     3    1
     6     4     5    2
     7     5     6    1
     8     6     7    2
     9     8     1    1
    10     8     9    1
    11     8    12    1
    12     9    10    1
    13    10    11    1
    14    12    11    1
    15    13    39    1
    16    14    13    1
    17    14    15    1
    18    15    18    2
    19    16    17    1
    20    16    15    1
    21    19    14    2
    22    20    21    2
    23    20    19    1
    24    21    26    1
    25    22    21    1
    26    23    22    1
    27    24    23    1
    28    24    25    1
    29    26    27    1
    30    26    13    1
    31    28    46    1
    32    28    42    1
    33    29    49    2
    34    33    42    2
    35    34    30    2
    36    35    42    1
    37    35    34    1
    38    36    31    1
    39    36    30    1
    40    37    40    1
    41    38    41    1
    42    38    45    1
    43    38    39    1
    44    39    47    1
    45    43    44    1
    46    43    36    1
    47    44    37    1
    48    45    32    1
    49    46    29    1
    50    47    29    1
    51    48    43    1
    52    48    40    1
    53    48    35    1
