@<TRIPOS>MOLECULE
outputs/IAG933/test6/raw/output_409_IAG933_linker_design_.xyz
 41 44 0 0 0
SMALL
GASTEIGER

@<TRIPOS>ATOM
      1 C         -24.8550   -1.0120   30.1430 C.3     1  UNL1        0.0656
      2 C         -24.9730   -2.5050   29.7880 C.2     1  UNL1       -0.0190
      3 C         -23.9060   -3.1730   29.1460 C.2     1  UNL1       -0.0042
      4 C         -23.9890   -4.5490   28.8530 C.2     1  UNL1       -0.0003
      5 C         -25.1370   -5.2800   29.2050 C.2     1  UNL1       -0.0000
      6 C         -26.2320   -4.6110   29.7840 C.2     1  UNL1       -0.0003
      7 C         -26.1550   -3.2320   30.0650 C.2     1  UNL1       -0.0042
      8 C         -25.3870   -0.6790   31.5710 C.3     1  UNL1        0.0789
      9 C         -25.1890    0.7730   32.0280 C.3     1  UNL1        0.0193
     10 C         -25.3360    0.6840   33.5440 C.3     1  UNL1        0.0202
     11 C         -24.8290   -0.7150   33.9050 C.3     1  UNL1        0.0887
     12 N         -24.7580   -1.4810   32.6460 N.3     1  UNL1       -0.2191
     13 C         -25.6880    1.6140   26.4610 C.2     1  UNL1        0.0369
     14 C         -26.2500    2.9200   26.3950 C.2     1  UNL1        0.0763
     15 C         -25.6420    4.0930   27.1230 C.2     1  UNL1        0.2664
     16 N         -25.6140    5.2520   26.4490 N.am    1  UNL1       -0.1997
     17 C         -25.0260    6.4790   26.9630 C.3     1  UNL1        0.1388
     18 O         -25.1430    3.9660   28.2430 O.2     1  UNL1       -0.2683
     19 C         -27.4380    3.0910   25.6450 C.2     1  UNL1        0.1067
     20 N         -28.0750    2.0890   25.0030 N.2     1  UNL1       -0.2081
     21 C         -27.5430    0.8490   25.0790 C.2     1  UNL1        0.2533
     22 O         -28.1930   -0.2080   24.4770 O.2     1  UNL1       -0.4558
     23 C         -29.4600    0.0050   23.8660 C.3     1  UNL1        0.2426
     24 C         -30.0650   -1.3770   23.5730 C.3     1  UNL1        0.2292
     25 O         -30.7290   -1.8780   24.7210 O.3     1  UNL1       -0.2162
     26 C         -26.3540    0.5760   25.7770 C.2     1  UNL1        0.1928
     27 F         -25.8600   -0.6810   25.7950 F       1  UNL1       -0.1992
     28 C         -28.9201    0.0334   29.5674 C.3     1  UNL1        0.1171
     29 C         -23.9556    0.5624   28.2239 C.2     1  UNL1        0.1322
     30 C         -23.0717    1.9233   26.5198 C.3     1  UNL1        0.0765
     31 O         -27.4601   -1.3126   28.4889 O.2     1  UNL1       -0.2732
     32 C         -28.7932    2.4305   30.3342 C.3     1  UNL1        0.0334
     33 C         -24.3472    1.3421   27.0832 C.2     1  UNL1        0.0155
     34 O         -22.6890    0.5824   28.4906 O.2     1  UNL1       -0.4780
     35 C         -29.6524    1.2865   29.8289 C.3     1  UNL1        0.1355
     36 N         -26.4492    0.5883   29.0956 N.am    1  UNL1       -0.1990
     37 C         -25.1989   -0.2037   28.9282 C.3     1  UNL1        0.1564
     38 C         -22.0648    1.5963   27.6242 C.3     1  UNL1        0.2097
     39 C         -27.5874   -0.2160   29.0223 C.2     1  UNL1        0.2442
     40 O         -30.2330    1.7141   28.6256 O.3     1  UNL1       -0.2252
     41 C         -30.8969    1.0421   30.8422 C.3     1  UNL1        0.0334
@<TRIPOS>BOND
     1     1    37    1
     2     2     7    1
     3     2     1    1
     4     3     2    2
     5     4     3    1
     6     4     5    2
     7     5     6    1
     8     6     7    2
     9     8     1    1
    10     8     9    1
    11     8    12    1
    12     9    10    1
    13    10    11    1
    14    12    11    1
    15    13    33    1
    16    14    13    1
    17    14    15    1
    18    15    18    2
    19    16    17    1
    20    16    15    1
    21    19    14    2
    22    20    21    2
    23    20    19    1
    24    21    26    1
    25    22    21    1
    26    23    22    1
    27    24    23    1
    28    24    25    1
    29    26    27    1
    30    26    13    2
    31    28    35    1
    32    29    34    1
    33    29    37    1
    34    30    33    1
    35    30    38    1
    36    31    39    2
    37    33    29    2
    38    35    32    1
    39    35    41    1
    40    37    36    1
    41    38    34    1
    42    39    36    1
    43    39    28    1
    44    40    35    1
