@<TRIPOS>MOLECULE
outputs/IAG933/test6/raw/output_4090_IAG933_linker_design_.xyz
 45 49 0 0 0
SMALL
GASTEIGER

@<TRIPOS>ATOM
      1 C         -24.8550   -1.0120   30.1430 C.3     1  UNL1        0.0585
      2 C         -24.9730   -2.5050   29.7880 C.2     1  UNL1       -0.0195
      3 C         -23.9060   -3.1730   29.1460 C.2     1  UNL1       -0.0042
      4 C         -23.9890   -4.5490   28.8530 C.2     1  UNL1       -0.0003
      5 C         -25.1370   -5.2800   29.2050 C.2     1  UNL1       -0.0000
      6 C         -26.2320   -4.6110   29.7840 C.2     1  UNL1       -0.0003
      7 C         -26.1550   -3.2320   30.0650 C.2     1  UNL1       -0.0042
      8 C         -25.3870   -0.6790   31.5710 C.3     1  UNL1        0.0785
      9 C         -25.1890    0.7730   32.0280 C.3     1  UNL1        0.0192
     10 C         -25.3360    0.6840   33.5440 C.3     1  UNL1        0.0202
     11 C         -24.8290   -0.7150   33.9050 C.3     1  UNL1        0.0887
     12 N         -24.7580   -1.4810   32.6460 N.3     1  UNL1       -0.2191
     13 C         -25.6880    1.6140   26.4610 C.2     1  UNL1        0.0378
     14 C         -26.2500    2.9200   26.3950 C.2     1  UNL1        0.0765
     15 C         -25.6420    4.0930   27.1230 C.2     1  UNL1        0.2664
     16 N         -25.6140    5.2520   26.4490 N.am    1  UNL1       -0.1997
     17 C         -25.0260    6.4790   26.9630 C.3     1  UNL1        0.1388
     18 O         -25.1430    3.9660   28.2430 O.2     1  UNL1       -0.2683
     19 C         -27.4380    3.0910   25.6450 C.2     1  UNL1        0.1067
     20 N         -28.0750    2.0890   25.0030 N.2     1  UNL1       -0.2081
     21 C         -27.5430    0.8490   25.0790 C.2     1  UNL1        0.2533
     22 O         -28.1930   -0.2080   24.4770 O.2     1  UNL1       -0.4558
     23 C         -29.4600    0.0050   23.8660 C.3     1  UNL1        0.2426
     24 C         -30.0650   -1.3770   23.5730 C.3     1  UNL1        0.2292
     25 O         -30.7290   -1.8780   24.7210 O.3     1  UNL1       -0.2162
     26 C         -26.3540    0.5760   25.7770 C.2     1  UNL1        0.1930
     27 F         -25.8600   -0.6810   25.7950 F       1  UNL1       -0.1992
     28 C         -24.3004    1.3650   27.1498 C.2     1  UNL1       -0.0001
     29 C         -26.9485    1.7294   29.6549 C.3     1  UNL1        0.1065
     30 C         -27.7376    2.7892   30.0718 C.3     1  UNL1        0.0956
     31 C         -23.1843    1.8543   26.3887 C.2     1  UNL1       -0.0002
     32 N         -26.3143    0.8453   29.2752 N.3     1  UNL1       -0.2132
     33 C         -28.2300    4.9518   30.6849 C.3     1  UNL1        0.2243
     34 O         -25.6239    3.2674   32.4535 O.3     1  UNL1       -0.1693
     35 C         -26.2206    5.3804   31.8259 C.3     1  UNL1        0.3169
     36 O         -27.1605    5.9564   30.8474 O.3     1  UNL1       -0.3080
     37 C         -25.1350   -0.0509   29.0304 C.3     1  UNL1        0.1003
     38 O         -24.2708    3.3482   32.6576 O.3     1  UNL1       -0.0332
     39 N         -27.5554    3.6617   30.9561 N.3     1  UNL1       -0.2167
     40 C         -24.0098    0.6661   28.4437 C.2     1  UNL1       -0.0060
     41 O         -24.9736    5.8424   31.7195 O.3     1  UNL1       -0.1853
     42 C         -22.6535    0.6863   29.0232 C.2     1  UNL1       -0.0029
     43 C         -21.5955    1.2494   28.2666 C.2     1  UNL1       -0.0003
     44 C         -21.8489    1.8228   26.9621 C.2     1  UNL1       -0.0000
     45 C         -26.4615    4.0239   31.8045 C.3     1  UNL1        0.2771
@<TRIPOS>BOND
     1     1    37    1
     2     2     7    1
     3     2     1    1
     4     3     2    2
     5     4     3    1
     6     4     5    2
     7     5     6    1
     8     6     7    2
     9     8     1    1
    10     8     9    1
    11     8    12    1
    12     9    10    1
    13    10    11    1
    14    12    11    1
    15    13    28    1
    16    14    13    1
    17    14    15    1
    18    15    18    2
    19    16    17    1
    20    16    15    1
    21    19    14    2
    22    20    21    2
    23    20    19    1
    24    21    26    1
    25    22    21    1
    26    23    22    1
    27    24    23    1
    28    24    25    1
    29    26    27    1
    30    26    13    2
    31    28    40    1
    32    29    30    1
    33    30    39    1
    34    31    44    1
    35    31    28    2
    36    32    29    1
    37    33    36    1
    38    33    39    1
    39    34    38    1
    40    35    41    1
    41    36    35    1
    42    37    32    1
    43    39    45    1
    44    40    42    2
    45    40    37    1
    46    43    42    1
    47    44    43    2
    48    45    35    1
    49    45    34    1
