@<TRIPOS>MOLECULE
No_4094-gen_results/8p0m/2024-11-27-11-27-31/
 35 38 0 0 0
SMALL
GASTEIGER

@<TRIPOS>ATOM
      1 C         -28.0162   -0.8135   28.8779 C.ar    1  UNL1        0.0441
      2 C         -27.0636   -0.1190   28.6079 C.ar    1  UNL1        0.1455
      3 C         -26.9287    1.1713   29.0083 C.ar    1  UNL1        0.0375
      4 C         -27.9560    1.7411   29.7840 C.ar    1  UNL1        0.0033
      5 C         -29.0569   -0.3271   29.7466 C.ar    1  UNL1        0.0828
      6 C         -28.9828    0.9722   30.1516 C.ar    1  UNL1        0.0068
      7 O         -25.9911   -0.6119   27.8566 O.3     1  UNL1       -0.4534
      8 C         -24.9038   -1.1483   28.5775 C.ar    1  UNL1        0.1483
      9 C         -23.7733   -0.9238   28.7488 C.ar    1  UNL1        0.0735
     10 C         -25.2670   -2.5528   29.1249 C.ar    1  UNL1        0.0376
     11 C         -23.1848    0.4311   28.3210 C.2     1  UNL1        0.2016
     12 C         -23.8512    1.4508   27.6850 C.ar    1  UNL1        0.0781
     13 C         -23.2019    2.5288   27.2034 C.ar    1  UNL1        0.0064
     14 C         -24.0477    3.4666   26.4918 C.ar    1  UNL1        0.0005
     15 C         -25.4186    3.2276   26.3671 C.ar    1  UNL1        0.0078
     16 C         -25.9468    2.0942   26.5391 C.ar    1  UNL1        0.0943
     17 C         -25.1152    1.1371   27.2079 C.ar    1  UNL1        0.2031
     18 O         -25.0100    0.5018   25.9809 O.3     1  UNL1       -0.2863
     19 C         -27.2182    1.8493   26.0772 C.2     1  UNL1        0.2721
     20 O         -28.1707    2.6074   26.2810 O.2     1  UNL1       -0.2679
     21 N         -27.4940    0.9472   25.1109 N.am    1  UNL1       -0.1754
     22 C         -28.7741    0.5990   24.5111 C.ar    1  UNL1        0.0734
     23 C         -29.6591    0.1781   25.5009 C.ar    1  UNL1        0.0124
     24 C         -30.9679    0.4532   25.1805 C.ar    1  UNL1       -0.0206
     25 C         -31.3136    0.6376   23.8897 C.ar    1  UNL1       -0.0042
     26 C         -30.3563    0.9499   22.9288 C.ar    1  UNL1        0.0010
     27 C         -29.0506    1.0446   23.3255 C.ar    1  UNL1        0.0166
     28 C         -24.3080   -3.4301   29.3852 C.ar    1  UNL1        0.0031
     29 C         -22.9766   -2.9347   29.4605 C.ar    1  UNL1        0.0003
     30 C         -22.7011   -1.6797   29.1152 C.ar    1  UNL1        0.0062
     31 C         -30.2364   -1.1660   30.0507 C.2     1  UNL1        0.3879
     32 O         -31.2700   -1.0297   29.5134 O.co2   1  UNL1       -0.2406
     33 O         -30.0609   -2.1635   30.8565 O.co2   1  UNL1       -0.2406
     34 O         -21.9502    0.7641   28.8071 O.2     1  UNL1       -0.2864
     35 C         -32.0892   -0.0924   26.1473 C.3     1  UNL1        0.0311
@<TRIPOS>BOND
     1     2     7    1
     2     7     8    1
     3     9    11    1
     4    11    12    1
     5    17    18    1
     6    16    19    1
     7    19    20    2
     8    19    21   am
     9    21    22    1
    10     5    31    1
    11    31    32   ar
    12    31    33   ar
    13    11    34    2
    14    24    35    1
    15    12    13   ar
    16    13    14   ar
    17    14    15   ar
    18    15    16   ar
    19    16    17   ar
    20    17    12   ar
    21     8     9   ar
    22     9    30   ar
    23    30    29   ar
    24    29    28   ar
    25    28    10   ar
    26    10     8   ar
    27    22    23   ar
    28    23    24   ar
    29    24    25   ar
    30    25    26   ar
    31    26    27   ar
    32    27    22   ar
    33     1     2   ar
    34     2     3   ar
    35     3     4   ar
    36     4     6   ar
    37     6     5   ar
    38     5     1   ar
