@<TRIPOS>MOLECULE
No_4097-gen_results/8p0m/2024-11-27-11-27-31/
 22 23 0 0 0
SMALL
GASTEIGER

@<TRIPOS>ATOM
      1 C         -28.0162   -0.8135   28.8779 C.ar    1  UNL1        0.2015
      2 C         -28.4690   -0.7850   29.8287 C.ar    1  UNL1        0.1704
      3 F         -27.0143   -1.6184   28.6838 F       1  UNL1       -0.1986
      4 C         -29.6471    0.0499   30.1551 C.ar    1  UNL1        0.0360
      5 C         -29.9936    0.9316   29.1198 C.ar    1  UNL1        0.0768
      6 C         -29.2939    0.9017   27.9571 C.ar    1  UNL1        0.0438
      7 C         -28.2303    0.0419   27.8206 C.ar    1  UNL1        0.1743
      8 C         -31.1213    1.8580   29.3026 C.3     1  UNL1        0.4187
      9 F         -31.5641    2.0168   30.4079 F       1  UNL1       -0.1659
     10 F         -30.6883    3.0905   28.8178 F       1  UNL1       -0.1659
     11 F         -32.0828    1.4191   28.3772 F       1  UNL1       -0.1659
     12 F         -28.2082   -1.6842   30.9033 F       1  UNL1       -0.2017
     13 O         -27.4990   -0.0273   26.6410 O.3     1  UNL1       -0.4554
     14 C         -27.7980    0.6493   25.5646 C.2     1  UNL1        0.1233
     15 C         -26.9775    1.3263   25.2319 C.2     1  UNL1        0.0330
     16 C         -28.9774    0.3768   24.8312 C.3     1  UNL1        0.0725
     17 C         -25.7150    1.6614   25.9181 C.ar    1  UNL1        0.0027
     18 C         -25.2158    2.7474   26.5422 C.ar    1  UNL1        0.0001
     19 C         -23.9839    2.9097   27.0994 C.ar    1  UNL1        0.0000
     20 C         -23.0493    1.8727   27.0541 C.ar    1  UNL1        0.0000
     21 C         -23.4865    0.6506   26.5495 C.ar    1  UNL1        0.0000
     22 C         -24.7096    0.5521   25.9557 C.ar    1  UNL1        0.0001
@<TRIPOS>BOND
     1     1     3    1
     2     5     8    1
     3     8     9    1
     4     8    10    1
     5     8    11    1
     6     2    12    1
     7     7    13    1
     8    13    14    1
     9    14    15    2
    10    14    16    1
    11    15    17    1
    12    17    18   ar
    13    18    19   ar
    14    19    20   ar
    15    20    21   ar
    16    21    22   ar
    17    22    17   ar
    18     1     2   ar
    19     2     4   ar
    20     4     5   ar
    21     5     6   ar
    22     6     7   ar
    23     7     1   ar
