@<TRIPOS>MOLECULE
outputs/IAG933/test6/raw/output_4101_IAG933_linker_design_.xyz
 45 49 0 0 0
SMALL
GASTEIGER

@<TRIPOS>ATOM
      1 C         -24.8550   -1.0120   30.1430 C.3     1  UNL1        0.0613
      2 C         -24.9730   -2.5050   29.7880 C.2     1  UNL1       -0.0192
      3 C         -23.9060   -3.1730   29.1460 C.2     1  UNL1       -0.0042
      4 C         -23.9890   -4.5490   28.8530 C.2     1  UNL1       -0.0003
      5 C         -25.1370   -5.2800   29.2050 C.2     1  UNL1       -0.0000
      6 C         -26.2320   -4.6110   29.7840 C.2     1  UNL1       -0.0003
      7 C         -26.1550   -3.2320   30.0650 C.2     1  UNL1       -0.0042
      8 C         -25.3870   -0.6790   31.5710 C.3     1  UNL1        0.0788
      9 C         -25.1890    0.7730   32.0280 C.3     1  UNL1        0.0193
     10 C         -25.3360    0.6840   33.5440 C.3     1  UNL1        0.0202
     11 C         -24.8290   -0.7150   33.9050 C.3     1  UNL1        0.0887
     12 N         -24.7580   -1.4810   32.6460 N.3     1  UNL1       -0.2191
     13 C         -25.6880    1.6140   26.4610 C.2     1  UNL1        0.0379
     14 C         -26.2500    2.9200   26.3950 C.2     1  UNL1        0.0744
     15 C         -25.6420    4.0930   27.1230 C.2     1  UNL1        0.2662
     16 N         -25.6140    5.2520   26.4490 N.am    1  UNL1       -0.1997
     17 C         -25.0260    6.4790   26.9630 C.3     1  UNL1        0.1388
     18 O         -25.1430    3.9660   28.2430 O.2     1  UNL1       -0.2683
     19 C         -27.4380    3.0910   25.6450 C.2     1  UNL1        0.1065
     20 N         -28.0750    2.0890   25.0030 N.2     1  UNL1       -0.2081
     21 C         -27.5430    0.8490   25.0790 C.2     1  UNL1        0.2530
     22 O         -28.1930   -0.2080   24.4770 O.2     1  UNL1       -0.4558
     23 C         -29.4600    0.0050   23.8660 C.3     1  UNL1        0.2426
     24 C         -30.0650   -1.3770   23.5730 C.3     1  UNL1        0.2292
     25 O         -30.7290   -1.8780   24.7210 O.3     1  UNL1       -0.2162
     26 C         -26.3540    0.5760   25.7770 C.2     1  UNL1        0.1910
     27 F         -25.8600   -0.6810   25.7950 F       1  UNL1       -0.1995
     28 C         -27.7679    0.1225   29.2328 C.1     1  UNL1       -0.1064
     29 C         -30.0947   -0.2045   28.2377 C.3     1  UNL1        0.1688
     30 C         -21.8455    1.2552   28.0464 C.2     1  UNL1        0.0155
     31 C         -31.9479   -2.9981   29.7790 C.3     1  UNL1        0.0460
     32 N         -24.2018    0.6852   28.2373 N.pl3   1  UNL1       -0.2976
     33 C         -25.2803   -0.0625   28.9192 C.3     1  UNL1        0.1085
     34 C         -31.4095   -4.3268   30.4354 C.3     1  UNL1        0.0063
     35 O         -32.1722   -1.0990   27.4500 O.3     1  UNL1       -0.0841
     36 C         -26.5979    0.6326   29.0897 C.2     1  UNL1        0.0348
     37 C         -29.1723   -0.5349   29.2266 C.2     1  UNL1        0.0380
     38 C         -23.2963    1.8797   26.3170 C.2     1  UNL1       -0.0021
     39 C         -21.9898    1.8312   26.7955 C.2     1  UNL1       -0.0013
     40 C         -30.8932   -1.8829   29.3874 C.2     1  UNL1        0.0634
     41 C         -24.3930    1.3053   27.0609 C.3     1  UNL1        0.1206
     42 C         -22.9060    0.6094   28.6925 C.2     1  UNL1        0.0620
     43 C         -29.6479   -1.6099   29.9635 C.2     1  UNL1        0.0201
     44 C         -30.1355   -3.9260   31.2421 C.3     1  UNL1        0.0004
     45 N         -31.0727   -1.0441   28.3315 N.3     1  UNL1       -0.2057
@<TRIPOS>BOND
     1     1    33    1
     2     2     7    1
     3     2     1    1
     4     3     2    2
     5     4     3    1
     6     4     5    2
     7     5     6    1
     8     6     7    2
     9     8     1    1
    10     8     9    1
    11     8    12    1
    12     9    10    1
    13    10    11    1
    14    12    11    1
    15    14    13    1
    16    14    15    1
    17    15    18    2
    18    16    17    1
    19    16    15    1
    20    19    14    2
    21    20    21    2
    22    20    19    1
    23    21    26    1
    24    22    21    1
    25    23    22    1
    26    24    23    1
    27    24    25    1
    28    26    27    1
    29    26    13    2
    30    29    45    1
    31    29    37    1
    32    30    42    2
    33    31    34    1
    34    32    42    1
    35    32    33    1
    36    33    36    1
    37    34    44    1
    38    35    45    1
    39    36    28    2
    40    37    28    2
    41    37    43    1
    42    38    39    2
    43    38    41    1
    44    39    30    1
    45    40    31    1
    46    40    43    2
    47    41    13    1
    48    41    32    1
    49    45    40    1
