@<TRIPOS>MOLECULE
No_4103-gen_results/8p0m/2024-11-27-11-27-31/
 21 22 0 0 0
SMALL
GASTEIGER

@<TRIPOS>ATOM
      1 C         -28.0162   -0.8135   28.8779 C.ar    1  UNL1       -0.0004
      2 C         -28.4690   -0.7850   29.8287 C.ar    1  UNL1        0.0255
      3 C         -26.5042   -0.7777   28.8766 C.ar    1  UNL1       -0.0005
      4 C         -25.8103   -0.8531   30.1028 C.ar    1  UNL1       -0.0043
      5 C         -27.9906   -0.8916   31.2257 C.ar    1  UNL1       -0.0004
      6 C         -26.6042   -0.8676   31.2652 C.ar    1  UNL1       -0.0005
      7 C         -24.3894   -0.8049   30.1638 C.2     1  UNL1       -0.0264
      8 C         -23.6350   -0.8621   29.1472 C.2     1  UNL1       -0.0300
      9 C         -22.1747   -0.6734   29.2132 C.3     1  UNL1        0.0320
     10 C         -23.9416   -1.6823   31.3530 C.3     1  UNL1        0.0260
     11 C         -23.3032   -0.9109   32.3304 C.3     1  UNL1        0.0050
     12 C         -30.0738   -0.6503   29.6464 C.3     1  UNL1        0.2619
     13 CL        -30.7463    0.0598   28.5940 Cl      1  UNL1       -0.0719
     14 F         -30.7956   -1.2712   30.6347 F       1  UNL1       -0.2143
     15 C         -21.6382    0.5993   28.6381 C.3     1  UNL1        0.0505
     16 C         -22.5501    1.6745   28.4746 C.ar    1  UNL1        0.0593
     17 N         -22.7097    2.2152   27.2498 N.ar    1  UNL1       -0.2481
     18 C         -23.9099    2.8201   26.8624 C.ar    1  UNL1        0.0984
     19 C         -24.7403    3.1990   27.8203 C.ar    1  UNL1        0.0207
     20 C         -24.7489    2.5072   29.0603 C.ar    1  UNL1        0.0028
     21 C         -23.6305    1.7369   29.4248 C.ar    1  UNL1        0.0147
@<TRIPOS>BOND
     1     4     7    1
     2     7     8    2
     3     8     9    1
     4     7    10    1
     5    10    11    1
     6     2    12    1
     7    12    13    1
     8    12    14    1
     9     9    15    1
    10    15    16    1
    11     1     2   ar
    12     2     5   ar
    13     5     6   ar
    14     6     4   ar
    15     4     3   ar
    16     3     1   ar
    17    16    17   ar
    18    17    18   ar
    19    18    19   ar
    20    19    20   ar
    21    20    21   ar
    22    21    16   ar
