@<TRIPOS>MOLECULE
outputs/IAG933/test6/raw/output_4105_IAG933_linker_design_.xyz
 44 47 0 0 0
SMALL
GASTEIGER

@<TRIPOS>ATOM
      1 C         -24.8550   -1.0120   30.1430 C.3     1  UNL1        0.0962
      2 C         -24.9730   -2.5050   29.7880 C.2     1  UNL1       -0.0064
      3 C         -23.9060   -3.1730   29.1460 C.2     1  UNL1       -0.0029
      4 C         -23.9890   -4.5490   28.8530 C.2     1  UNL1       -0.0003
      5 C         -25.1370   -5.2800   29.2050 C.2     1  UNL1       -0.0000
      6 C         -26.2320   -4.6110   29.7840 C.2     1  UNL1       -0.0003
      7 C         -26.1550   -3.2320   30.0650 C.2     1  UNL1       -0.0029
      8 C         -25.3870   -0.6790   31.5710 C.3     1  UNL1        0.0916
      9 C         -25.1890    0.7730   32.0280 C.3     1  UNL1        0.0206
     10 C         -25.3360    0.6840   33.5440 C.3     1  UNL1        0.0203
     11 C         -24.8290   -0.7150   33.9050 C.3     1  UNL1        0.0888
     12 N         -24.7580   -1.4810   32.6460 N.3     1  UNL1       -0.2178
     13 C         -25.6880    1.6140   26.4610 C.2     1  UNL1        0.0169
     14 C         -26.2500    2.9200   26.3950 C.2     1  UNL1        0.0726
     15 C         -25.6420    4.0930   27.1230 C.2     1  UNL1        0.2661
     16 N         -25.6140    5.2520   26.4490 N.am    1  UNL1       -0.1997
     17 C         -25.0260    6.4790   26.9630 C.3     1  UNL1        0.1388
     18 O         -25.1430    3.9660   28.2430 O.2     1  UNL1       -0.2683
     19 C         -27.4380    3.0910   25.6450 C.2     1  UNL1        0.1064
     20 N         -28.0750    2.0890   25.0030 N.2     1  UNL1       -0.2081
     21 C         -27.5430    0.8490   25.0790 C.2     1  UNL1        0.2530
     22 O         -28.1930   -0.2080   24.4770 O.2     1  UNL1       -0.4558
     23 C         -29.4600    0.0050   23.8660 C.3     1  UNL1        0.2426
     24 C         -30.0650   -1.3770   23.5730 C.3     1  UNL1        0.2292
     25 O         -30.7290   -1.8780   24.7210 O.3     1  UNL1       -0.2162
     26 C         -26.3540    0.5760   25.7770 C.2     1  UNL1        0.1891
     27 F         -25.8600   -0.6810   25.7950 F       1  UNL1       -0.1996
     28 N         -30.6195   -1.3586   29.4029 N.3     1  UNL1       -0.2217
     29 N         -25.3249   -0.0377   29.1433 N.3     1  UNL1       -0.2702
     30 O         -29.3258   -1.9406   31.4130 O.3     1  UNL1       -0.2005
     31 C         -24.4023    0.3681   28.1621 C.3     1  UNL1        0.0618
     32 O         -29.8588   -0.3710   27.0532 O.3     1  UNL1       -0.2090
     33 C         -31.9414   -1.8691   28.8823 C.3     1  UNL1        0.0940
     34 C         -23.1747    1.7798   26.5959 C.3     1  UNL1        0.0058
     35 C         -23.1608    0.8950   28.8523 C.3     1  UNL1        0.0163
     36 C         -24.5215    1.3708   27.2358 C.3     1  UNL1        0.0395
     37 C         -29.6663   -2.2010   30.0847 C.3     1  UNL1        0.2607
     38 C         -28.9031    0.3360   29.2277 C.3     1  UNL1        0.0476
     39 C         -27.6335   -0.4100   28.9283 C.3     1  UNL1        0.0213
     40 C         -20.8172    1.5699   27.6160 C.3     1  UNL1        0.0001
     41 C         -22.2921    1.2979   27.7521 C.3     1  UNL1        0.0017
     42 C         -30.1532   -0.1259   28.4675 C.3     1  UNL1        0.1759
     43 C         -26.5080    0.4348   28.9731 C.3     1  UNL1        0.0725
     44 C         -31.2968    0.8939   28.4891 C.3     1  UNL1        0.0501
@<TRIPOS>BOND
     1     1    29    1
     2     2     7    1
     3     2     1    1
     4     3     2    2
     5     4     3    1
     6     4     5    2
     7     5     6    1
     8     6     7    2
     9     8     1    1
    10     8     9    1
    11     8    12    1
    12     9    10    1
    13    10    11    1
    14    12    11    1
    15    14    13    1
    16    14    15    1
    17    15    18    2
    18    16    17    1
    19    16    15    1
    20    19    14    2
    21    20    21    2
    22    20    19    1
    23    21    26    1
    24    22    21    1
    25    23    22    1
    26    24    23    1
    27    24    25    1
    28    26    27    1
    29    26    13    2
    30    28    37    1
    31    31    35    1
    32    31    29    1
    33    32    42    1
    34    33    28    1
    35    34    36    1
    36    34    41    1
    37    36    13    1
    38    36    31    1
    39    37    30    1
    40    39    43    1
    41    39    38    1
    42    41    40    1
    43    41    35    1
    44    42    44    1
    45    42    38    1
    46    42    28    1
    47    43    29    1
