@<TRIPOS>MOLECULE
No_4106-gen_results/8p0m/2024-11-27-11-27-31/
 21 22 0 0 0
SMALL
GASTEIGER

@<TRIPOS>ATOM
      1 C         -28.0162   -0.8135   28.8779 C.3     1  UNL1        0.1312
      2 C         -27.0636   -0.1189   28.6079 C.3     1  UNL1        0.0793
      3 N         -25.8176   -0.3427   29.0488 N.3     1  UNL1       -0.2708
      4 C         -24.6757    0.3814   28.7496 C.3     1  UNL1        0.0765
      5 C         -24.5486    1.0165   27.6444 C.3     1  UNL1        0.0383
      6 C         -27.1297    0.9200   27.5782 C.3     1  UNL1        0.0181
      7 C         -25.8703    1.5315   27.1418 C.3     1  UNL1        0.0072
      8 N         -29.2154   -0.1809   29.1432 N.am    1  UNL1       -0.1983
      9 C         -30.2298   -0.8269   29.7514 C.2     1  UNL1        0.3182
     10 C         -23.3830    1.8053   27.3017 C.ar    1  UNL1       -0.0212
     11 C         -22.4915    2.4893   27.9032 C.ar    1  UNL1       -0.0042
     12 C         -23.3264    2.0133   25.7432 C.ar    1  UNL1       -0.0042
     13 C         -22.1428    2.4819   25.1632 C.ar    1  UNL1       -0.0003
     14 C         -21.3872    1.9737   27.7587 C.ar    1  UNL1       -0.0003
     15 C         -21.0562    2.3638   26.0622 C.ar    1  UNL1       -0.0000
     16 C         -25.6652   -1.3889   30.1173 C.3     1  UNL1        0.0897
     17 C         -31.4622   -0.6228   29.2413 C.3     1  UNL1        0.3994
     18 CL        -31.9303    0.5267   28.7240 Cl      1  UNL1       -0.0378
     19 F         -32.3839   -1.2451   30.1072 F       1  UNL1       -0.1773
     20 O         -29.8097   -2.0100   30.1986 O.2     1  UNL1       -0.2660
     21 F         -31.4620   -1.6753   28.2435 F       1  UNL1       -0.1773
@<TRIPOS>BOND
     1     1     2    1
     2     2     3    1
     3     3     4    1
     4     2     6    1
     5     5     7    1
     6     1     8    1
     7     8     9   am
     8     5    10    1
     9     3    16    1
    10     9    17    1
    11    17    18    1
    12    17    19    1
    13     9    20    2
    14    17    21    1
    15     6     7    1
    16     5     4    1
    17    10    11   ar
    18    11    14   ar
    19    14    15   ar
    20    15    13   ar
    21    13    12   ar
    22    12    10   ar
