@<TRIPOS>MOLECULE
outputs/IAG933/test6/raw/output_4111_IAG933_linker_design_.xyz
 45 49 0 0 0
SMALL
GASTEIGER

@<TRIPOS>ATOM
      1 C         -24.8550   -1.0120   30.1430 C.3     1  UNL1        0.0597
      2 C         -24.9730   -2.5050   29.7880 C.2     1  UNL1       -0.0194
      3 C         -23.9060   -3.1730   29.1460 C.2     1  UNL1       -0.0042
      4 C         -23.9890   -4.5490   28.8530 C.2     1  UNL1       -0.0003
      5 C         -25.1370   -5.2800   29.2050 C.2     1  UNL1       -0.0000
      6 C         -26.2320   -4.6110   29.7840 C.2     1  UNL1       -0.0003
      7 C         -26.1550   -3.2320   30.0650 C.2     1  UNL1       -0.0042
      8 C         -25.3870   -0.6790   31.5710 C.3     1  UNL1        0.0785
      9 C         -25.1890    0.7730   32.0280 C.3     1  UNL1        0.0192
     10 C         -25.3360    0.6840   33.5440 C.3     1  UNL1        0.0202
     11 C         -24.8290   -0.7150   33.9050 C.3     1  UNL1        0.0887
     12 N         -24.7580   -1.4810   32.6460 N.3     1  UNL1       -0.2191
     13 C         -25.6880    1.6140   26.4610 C.2     1  UNL1        0.0943
     14 C         -26.2500    2.9200   26.3950 C.2     1  UNL1        0.0905
     15 C         -25.6420    4.0930   27.1230 C.2     1  UNL1        0.2677
     16 N         -25.6140    5.2520   26.4490 N.am    1  UNL1       -0.1997
     17 C         -25.0260    6.4790   26.9630 C.3     1  UNL1        0.1388
     18 O         -25.1430    3.9660   28.2430 O.2     1  UNL1       -0.2683
     19 C         -27.4380    3.0910   25.6450 C.2     1  UNL1        0.1080
     20 N         -28.0750    2.0890   25.0030 N.2     1  UNL1       -0.2080
     21 C         -27.5430    0.8490   25.0790 C.2     1  UNL1        0.2546
     22 O         -28.1930   -0.2080   24.4770 O.2     1  UNL1       -0.4558
     23 C         -29.4600    0.0050   23.8660 C.3     1  UNL1        0.2426
     24 C         -30.0650   -1.3770   23.5730 C.3     1  UNL1        0.2292
     25 O         -30.7290   -1.8780   24.7210 O.3     1  UNL1       -0.2162
     26 C         -26.3540    0.5760   25.7770 C.2     1  UNL1        0.2069
     27 F         -25.8600   -0.6810   25.7950 F       1  UNL1       -0.1979
     28 C         -29.4195    3.8165   29.6144 C.3     1  UNL1        0.1154
     29 C         -29.6998    2.5124   30.3357 C.3     1  UNL1        0.0310
     30 N         -26.3850    1.0586   29.2305 N.3     1  UNL1       -0.2134
     31 C         -30.9737    4.8226   31.1143 C.3     1  UNL1        0.1740
     32 O         -29.7718    4.9841   30.3847 O.3     1  UNL1       -0.3536
     33 F         -20.9628    1.8061   27.8124 F       1  UNL1       -0.2019
     34 C         -23.2908    1.6979   26.9718 C.2     1  UNL1        0.1420
     35 C         -29.1436    3.7367   28.1130 C.3     1  UNL1        0.0296
     36 C         -29.7961    2.4161   27.5666 C.3     1  UNL1        0.0025
     37 C         -25.4356    0.0028   29.1606 C.3     1  UNL1        0.1142
     38 C         -29.1824    1.2033   28.3605 C.3     1  UNL1        0.0016
     39 C         -24.3376    0.7175   28.5710 C.2     1  UNL1        0.0523
     40 C         -22.2593    1.3939   27.9109 C.2     1  UNL1        0.1658
     41 N         -24.4885    1.3457   27.2603 N.pl3   1  UNL1       -0.2550
     42 C         -22.8959    0.7942   28.9565 C.2     1  UNL1        0.0440
     43 C         -27.2519    2.1269   29.6948 C.3     1  UNL1        0.0891
     44 CL        -22.8709    2.3576   25.4063 Cl      1  UNL1       -0.0630
     45 C         -28.6646    1.5318   29.7613 C.3     1  UNL1        0.0198
@<TRIPOS>BOND
     1     1    37    1
     2     2     7    1
     3     2     1    1
     4     3     2    2
     5     4     3    1
     6     4     5    2
     7     5     6    1
     8     6     7    2
     9     8     1    1
    10     8     9    1
    11     8    12    1
    12     9    10    1
    13    10    11    1
    14    12    11    1
    15    13    41    1
    16    14    13    1
    17    14    15    1
    18    15    18    2
    19    16    17    1
    20    16    15    1
    21    19    14    2
    22    20    21    2
    23    20    19    1
    24    21    26    1
    25    22    21    1
    26    23    22    1
    27    24    23    1
    28    24    25    1
    29    26    27    1
    30    26    13    2
    31    28    29    1
    32    28    32    1
    33    30    43    1
    34    32    31    1
    35    33    40    1
    36    34    41    1
    37    34    40    2
    38    35    28    1
    39    36    35    1
    40    36    38    1
    41    37    30    1
    42    38    45    1
    43    39    42    2
    44    39    37    1
    45    40    42    1
    46    41    39    1
    47    44    34    1
    48    45    43    1
    49    45    29    1
