@<TRIPOS>MOLECULE
outputs/IAG933/test6/raw/output_4112_IAG933_linker_design_.xyz
 44 47 0 0 0
SMALL
GASTEIGER

@<TRIPOS>ATOM
      1 C         -24.8550   -1.0120   30.1430 C.3     1  UNL1        0.1116
      2 C         -24.9730   -2.5050   29.7880 C.2     1  UNL1       -0.0030
      3 C         -23.9060   -3.1730   29.1460 C.2     1  UNL1       -0.0026
      4 C         -23.9890   -4.5490   28.8530 C.2     1  UNL1       -0.0003
      5 C         -25.1370   -5.2800   29.2050 C.2     1  UNL1       -0.0000
      6 C         -26.2320   -4.6110   29.7840 C.2     1  UNL1       -0.0003
      7 C         -26.1550   -3.2320   30.0650 C.2     1  UNL1       -0.0026
      8 C         -25.3870   -0.6790   31.5710 C.3     1  UNL1        0.0950
      9 C         -25.1890    0.7730   32.0280 C.3     1  UNL1        0.0209
     10 C         -25.3360    0.6840   33.5440 C.3     1  UNL1        0.0203
     11 C         -24.8290   -0.7150   33.9050 C.3     1  UNL1        0.0888
     12 N         -24.7580   -1.4810   32.6460 N.3     1  UNL1       -0.2174
     13 C         -25.6880    1.6140   26.4610 C.2     1  UNL1        0.0414
     14 C         -26.2500    2.9200   26.3950 C.2     1  UNL1        0.0767
     15 C         -25.6420    4.0930   27.1230 C.2     1  UNL1        0.2664
     16 N         -25.6140    5.2520   26.4490 N.am    1  UNL1       -0.1997
     17 C         -25.0260    6.4790   26.9630 C.3     1  UNL1        0.1388
     18 O         -25.1430    3.9660   28.2430 O.2     1  UNL1       -0.2683
     19 C         -27.4380    3.0910   25.6450 C.2     1  UNL1        0.1067
     20 N         -28.0750    2.0890   25.0030 N.2     1  UNL1       -0.2081
     21 C         -27.5430    0.8490   25.0790 C.2     1  UNL1        0.2533
     22 O         -28.1930   -0.2080   24.4770 O.2     1  UNL1       -0.4558
     23 C         -29.4600    0.0050   23.8660 C.3     1  UNL1        0.2426
     24 C         -30.0650   -1.3770   23.5730 C.3     1  UNL1        0.2292
     25 O         -30.7290   -1.8780   24.7210 O.3     1  UNL1       -0.2162
     26 C         -26.3540    0.5760   25.7770 C.2     1  UNL1        0.1932
     27 F         -25.8600   -0.6810   25.7950 F       1  UNL1       -0.1992
     28 C         -27.6555    3.1505   30.3270 C.3     1  UNL1        0.2091
     29 N         -27.1054    1.8104   30.0712 N.2     1  UNL1       -0.2460
     30 C         -24.1517    0.6281   28.2902 C.2     1  UNL1        0.0528
     31 C         -28.7702    2.9914   31.4275 C.3     1  UNL1        0.0538
     32 C         -22.7944    0.6331   28.6692 C.2     1  UNL1        0.0443
     33 O         -26.5446    3.7895   30.7992 O.3     1  UNL1       -0.2009
     34 C         -28.4786    1.7250   32.2387 C.3     1  UNL1        0.0047
     35 C         -22.3882    1.8579   26.6725 C.2     1  UNL1        0.0593
     36 C         -24.4523    1.3052   27.0916 C.2     1  UNL1        0.0435
     37 C         -21.9617    1.3500   27.8427 C.2     1  UNL1        0.1436
     38 C         -27.3508    0.8443   29.0630 C.2     1  UNL1        0.0910
     39 C         -28.3793    3.6858   29.0897 C.3     1  UNL1        0.0584
     40 F         -22.9015    1.6908   25.1937 F       1  UNL1       -0.2041
     41 N         -25.1557   -0.0593   29.0063 N.pl3   1  UNL1       -0.2987
     42 C         -23.2619    1.7216   26.3843 C.2     1  UNL1        0.1436
     43 C         -26.5784   -0.1984   28.7308 C.3     1  UNL1        0.1383
     44 F         -20.6548    1.6352   27.9614 F       1  UNL1       -0.2041
@<TRIPOS>BOND
     1     1    41    1
     2     2     7    1
     3     2     1    1
     4     3     2    2
     5     4     3    1
     6     4     5    2
     7     5     6    1
     8     6     7    2
     9     8     1    1
    10     8     9    1
    11     8    12    1
    12     9    10    1
    13    10    11    1
    14    12    11    1
    15    13    36    1
    16    14    13    1
    17    14    15    1
    18    15    18    2
    19    16    17    1
    20    16    15    1
    21    19    14    2
    22    20    21    2
    23    20    19    1
    24    21    26    1
    25    22    21    1
    26    23    22    1
    27    24    23    1
    28    24    25    1
    29    26    27    1
    30    26    13    2
    31    28    39    1
    32    28    33    1
    33    28    31    1
    34    29    28    1
    35    30    32    1
    36    30    41    1
    37    31    34    1
    38    35    37    1
    39    36    30    2
    40    37    44    1
    41    37    32    2
    42    38    29    2
    43    40    42    1
    44    42    35    2
    45    42    36    1
    46    43    41    1
    47    43    38    1
