@<TRIPOS>MOLECULE
No_4114-gen_results/8p0m/2024-11-27-11-27-31/
 6 5 0 0 0
SMALL
GASTEIGER

@<TRIPOS>ATOM
      1 O         -28.1229   -1.3353   28.4874 O.2     1  UNL1       -0.2541
      2 C         -27.4806   -0.4044   28.7094 C.2     1  UNL1        0.3333
      3 C         -27.1904    0.2460   29.5268 C.2     1  UNL1        0.0686
      4 F         -26.7282   -0.1238   27.4073 F       1  UNL1       -0.1586
      5 C         -26.2623    1.3699   29.6678 C.2     1  UNL1       -0.0201
      6 C         -25.6288    1.5981   28.3315 C.3     1  UNL1        0.0309
@<TRIPOS>BOND
     1     1     2    2
     2     2     3    1
     3     2     4    1
     4     3     5    2
     5     5     6    1
