@<TRIPOS>MOLECULE
outputs/IAG933/test6/raw/output_4117_IAG933_linker_design_.xyz
 42 46 0 0 0
SMALL
GASTEIGER

@<TRIPOS>ATOM
      1 C         -24.8550   -1.0120   30.1430 C.3     1  UNL1        0.1156
      2 C         -24.9730   -2.5050   29.7880 C.2     1  UNL1       -0.0027
      3 C         -23.9060   -3.1730   29.1460 C.2     1  UNL1       -0.0026
      4 C         -23.9890   -4.5490   28.8530 C.2     1  UNL1       -0.0003
      5 C         -25.1370   -5.2800   29.2050 C.2     1  UNL1       -0.0000
      6 C         -26.2320   -4.6110   29.7840 C.2     1  UNL1       -0.0003
      7 C         -26.1550   -3.2320   30.0650 C.2     1  UNL1       -0.0026
      8 C         -25.3870   -0.6790   31.5710 C.3     1  UNL1        0.0954
      9 C         -25.1890    0.7730   32.0280 C.3     1  UNL1        0.0209
     10 C         -25.3360    0.6840   33.5440 C.3     1  UNL1        0.0203
     11 C         -24.8290   -0.7150   33.9050 C.3     1  UNL1        0.0888
     12 N         -24.7580   -1.4810   32.6460 N.3     1  UNL1       -0.2174
     13 C         -25.6880    1.6140   26.4610 C.3     1  UNL1        0.0745
     14 C         -26.2500    2.9200   26.3950 C.2     1  UNL1        0.0551
     15 C         -25.6420    4.0930   27.1230 C.2     1  UNL1        0.2624
     16 N         -25.6140    5.2520   26.4490 N.am    1  UNL1       -0.2000
     17 C         -25.0260    6.4790   26.9630 C.3     1  UNL1        0.1388
     18 O         -25.1430    3.9660   28.2430 O.2     1  UNL1       -0.2687
     19 C         -27.4380    3.0910   25.6450 C.2     1  UNL1        0.1021
     20 N         -28.0750    2.0890   25.0030 N.2     1  UNL1       -0.2119
     21 C         -27.5430    0.8490   25.0790 C.2     1  UNL1        0.2341
     22 O         -28.1930   -0.2080   24.4770 O.2     1  UNL1       -0.4585
     23 C         -29.4600    0.0050   23.8660 C.3     1  UNL1        0.2423
     24 C         -30.0650   -1.3770   23.5730 C.3     1  UNL1        0.2292
     25 O         -30.7290   -1.8780   24.7210 O.3     1  UNL1       -0.2162
     26 C         -26.3540    0.5760   25.7770 C.3     1  UNL1        0.2403
     27 F         -25.8600   -0.6810   25.7950 F       1  UNL1       -0.2269
     28 C         -26.0517    1.2284   29.2639 C.2     1  UNL1        0.2977
     29 F         -21.6372    2.0512   24.3774 F       1  UNL1       -0.1886
     30 O         -26.7771    0.4073   28.7905 O.2     1  UNL1       -0.2653
     31 C         -23.7130    1.2576   27.8347 C.2     1  UNL1        0.0304
     32 O         -21.6459    2.0009   26.5907 O.2     1  UNL1       -0.4494
     33 C         -24.5884    0.9178   28.9947 C.2     1  UNL1        0.1081
     34 N         -26.3922    2.2926   29.9873 N.am    1  UNL1       -0.0826
     35 N         -24.1212   -0.1421   29.6085 N.pl3   1  UNL1       -0.2787
     36 C         -23.6652    1.6464   25.3891 C.3     1  UNL1        0.0865
     37 C         -21.7074   -0.2728   29.3612 C.2     1  UNL1        0.0192
     38 C         -21.2908    0.6693   28.3948 C.2     1  UNL1        0.0380
     39 C         -22.2465    1.3264   27.6390 C.2     1  UNL1        0.1389
     40 C         -22.8787   -0.2947   29.7679 C.2     1  UNL1        0.0658
     41 C         -24.3199    1.5035   26.7627 C.3     1  UNL1        0.0407
     42 C         -22.3700    1.8906   25.4870 C.3     1  UNL1        0.3275
@<TRIPOS>BOND
     1     1     2    1
     2     2     7    1
     3     3     2    2
     4     4     3    1
     5     4     5    2
     6     5     6    1
     7     6     7    2
     8     8     1    1
     9     8     9    1
    10     8    12    1
    11     9    10    1
    12    10    11    1
    13    12    11    1
    14    13    14    1
    15    13    41    1
    16    14    15    1
    17    15    18    2
    18    16    17    1
    19    16    15    1
    20    19    14    2
    21    20    21    2
    22    20    19    1
    23    21    26    1
    24    22    21    1
    25    23    22    1
    26    24    23    1
    27    24    25    1
    28    26    27    1
    29    26    13    1
    30    28    34    1
    31    30    28    2
    32    31    33    2
    33    32    39    1
    34    33    28    1
    35    33    35    1
    36    35    40    1
    37    35     1    1
    38    36    42    1
    39    37    40    2
    40    38    37    1
    41    39    31    1
    42    39    38    2
    43    41    36    1
    44    41    31    1
    45    42    29    1
    46    42    32    1
