@<TRIPOS>MOLECULE
No_4118-gen_results/8p0m/2024-11-27-11-27-31/
 9 9 0 0 0
SMALL
GASTEIGER

@<TRIPOS>ATOM
      1 C         -28.0162   -0.8135   28.8779 C.ar    1  UNL1        0.0114
      2 C         -27.0636   -0.1189   28.6079 C.ar    1  UNL1        0.0574
      3 C         -25.7923   -0.4302   29.0761 C.ar    1  UNL1        0.0071
      4 C         -25.5756   -1.5654   29.9363 C.ar    1  UNL1       -0.0213
      5 C         -24.3722   -1.9422   30.4466 C.3     1  UNL1        0.0264
      6 C         -27.9614   -1.9130   29.8182 C.ar    1  UNL1        0.0005
      7 C         -26.7388   -2.3048   30.3196 C.ar    1  UNL1       -0.0042
      8 C         -23.7063   -0.9669   31.3107 C.3     1  UNL1        0.0050
      9 CL        -27.1193    1.2837   27.6243 Cl      1  UNL1       -0.0823
@<TRIPOS>BOND
     1     4     5    1
     2     5     8    1
     3     2     9    1
     4     1     2   ar
     5     2     3   ar
     6     3     4   ar
     7     4     7   ar
     8     7     6   ar
     9     6     1   ar
