@<TRIPOS>MOLECULE
No_4119-gen_results/8p0m/2024-11-27-11-27-31/
 19 20 0 0 0
SMALL
GASTEIGER

@<TRIPOS>ATOM
      1 C         -28.0162   -0.8135   28.8779 C.ar    1  UNL1       -0.0016
      2 C         -27.0636   -0.1190   28.6079 C.ar    1  UNL1       -0.0074
      3 C         -26.9716    0.7139   27.5060 C.ar    1  UNL1        0.0555
      4 C         -28.1053    0.7744   26.6421 C.ar    1  UNL1        0.0302
      5 C         -29.2041    0.1179   27.0477 C.ar    1  UNL1        0.0818
      6 C         -29.2127   -0.6088   28.1281 C.ar    1  UNL1        0.0188
      7 CL        -25.7068    1.7119   26.9844 Cl      1  UNL1       -0.0825
      8 N         -30.3163    0.1969   26.2055 N.2     1  UNL1       -0.2485
      9 C         -25.6708   -0.1478   29.4023 C.3     1  UNL1        0.0516
     10 C         -25.0395   -1.3017   29.5073 C.2     1  UNL1       -0.0055
     11 C         -25.2297   -2.3319   29.2940 C.2     1  UNL1        0.0144
     12 C         -24.3142   -3.4875   29.3785 C.2     1  UNL1        0.0935
     13 N         -23.1954   -2.8382   29.8055 N.2     1  UNL1       -0.2552
     14 CA        -23.6385   -1.5027   29.8543 C.3     1  UNL1        0.2244
     15 C         -22.7340   -0.3922   30.1726 C.2     1  UNL1        0.3905
     16 O         -21.7738   -0.5473   30.7017 O.co2   1  UNL1       -0.2431
     17 OXT       -22.9851    0.8576   29.5232 O.co2   1  UNL1       -0.2431
     18 C         -31.4867   -0.1826   26.5512 C.2     1  UNL1        0.0728
     19 C         -32.4867   -0.2143   25.7278 C.3     1  UNL1        0.0534
@<TRIPOS>BOND
     1     3     7    1
     2     5     8    1
     3     2     9    1
     4     9    10    1
     5    10    11    2
     6    11    12    1
     7    12    13    2
     8    10    14    1
     9    13    14    1
    10    14    15    1
    11    15    16   ar
    12    15    17   ar
    13     8    18    2
    14    18    19    1
    15     1     2   ar
    16     2     3   ar
    17     3     4   ar
    18     4     5   ar
    19     5     6   ar
    20     6     1   ar
