@<TRIPOS>MOLECULE
No_4120-gen_results/8p0m/2024-11-27-11-27-31/
 9 9 0 0 0
SMALL
GASTEIGER

@<TRIPOS>ATOM
      1 C         -28.0162   -0.8135   28.8779 C.ar    1  UNL1        0.0165
      2 C         -27.0636   -0.1189   28.6079 C.ar    1  UNL1        0.0705
      3 N         -26.9849    0.5972   27.5218 N.pl3   1  UNL1       -0.2112
      4 C         -27.9606   -1.5421   30.1660 C.ar    1  UNL1        0.0013
      5 C         -26.7813   -1.6198   30.8836 C.ar    1  UNL1        0.0001
      6 C         -25.6460   -0.9697   30.4630 C.ar    1  UNL1        0.0013
      7 C         -25.7563   -0.1767   29.2863 C.ar    1  UNL1        0.0165
      8 C         -25.9019    0.8964   26.8088 C.2     1  UNL1        0.0857
      9 C         -24.6584    0.9713   27.4796 C.2     1  UNL1        0.0192
@<TRIPOS>BOND
     1     2     3    1
     2     3     8    1
     3     8     9    2
     4     1     2   ar
     5     2     7   ar
     6     7     6   ar
     7     6     5   ar
     8     5     4   ar
     9     4     1   ar
