@<TRIPOS>MOLECULE
No_4121-gen_results/8p0m/2024-11-27-11-27-31/
 7 7 0 0 0
SMALL
GASTEIGER

@<TRIPOS>ATOM
      1 I         -28.1955   -0.3709   29.2814 I       1  UNL1       -0.0425
      2 C         -26.9057    0.8346   28.7710 C.ar    1  UNL1        0.0301
      3 C         -26.2296    0.7675   27.4973 C.ar    1  UNL1        0.0058
      4 C         -25.1658    1.5612   27.0543 C.ar    1  UNL1        0.0004
      5 C         -24.6581    2.5429   27.9978 C.ar    1  UNL1        0.0000
      6 C         -25.2000    2.5963   29.2124 C.ar    1  UNL1        0.0004
      7 C         -26.1919    1.8068   29.6119 C.ar    1  UNL1        0.0058
@<TRIPOS>BOND
     1     1     2    1
     2     2     3   ar
     3     3     4   ar
     4     4     5   ar
     5     5     6   ar
     6     6     7   ar
     7     7     2   ar
