@<TRIPOS>MOLECULE
outputs/IAG933/test6/raw/output_4123_IAG933_linker_design_.xyz
 45 48 0 0 0
SMALL
GASTEIGER

@<TRIPOS>ATOM
      1 C         -24.8550   -1.0120   30.1430 C.3     1  UNL1        0.0966
      2 C         -24.9730   -2.5050   29.7880 C.2     1  UNL1       -0.0064
      3 C         -23.9060   -3.1730   29.1460 C.2     1  UNL1       -0.0029
      4 C         -23.9890   -4.5490   28.8530 C.2     1  UNL1       -0.0003
      5 C         -25.1370   -5.2800   29.2050 C.2     1  UNL1       -0.0000
      6 C         -26.2320   -4.6110   29.7840 C.2     1  UNL1       -0.0003
      7 C         -26.1550   -3.2320   30.0650 C.2     1  UNL1       -0.0029
      8 C         -25.3870   -0.6790   31.5710 C.3     1  UNL1        0.0916
      9 C         -25.1890    0.7730   32.0280 C.3     1  UNL1        0.0206
     10 C         -25.3360    0.6840   33.5440 C.3     1  UNL1        0.0203
     11 C         -24.8290   -0.7150   33.9050 C.3     1  UNL1        0.0888
     12 N         -24.7580   -1.4810   32.6460 N.3     1  UNL1       -0.2178
     13 C         -25.6880    1.6140   26.4610 C.2     1  UNL1        0.0169
     14 C         -26.2500    2.9200   26.3950 C.2     1  UNL1        0.0726
     15 C         -25.6420    4.0930   27.1230 C.2     1  UNL1        0.2661
     16 N         -25.6140    5.2520   26.4490 N.am    1  UNL1       -0.1997
     17 C         -25.0260    6.4790   26.9630 C.3     1  UNL1        0.1388
     18 O         -25.1430    3.9660   28.2430 O.2     1  UNL1       -0.2683
     19 C         -27.4380    3.0910   25.6450 C.2     1  UNL1        0.1064
     20 N         -28.0750    2.0890   25.0030 N.2     1  UNL1       -0.2081
     21 C         -27.5430    0.8490   25.0790 C.2     1  UNL1        0.2530
     22 O         -28.1930   -0.2080   24.4770 O.2     1  UNL1       -0.4558
     23 C         -29.4600    0.0050   23.8660 C.3     1  UNL1        0.2426
     24 C         -30.0650   -1.3770   23.5730 C.3     1  UNL1        0.2292
     25 O         -30.7290   -1.8780   24.7210 O.3     1  UNL1       -0.2162
     26 C         -26.3540    0.5760   25.7770 C.2     1  UNL1        0.1891
     27 F         -25.8600   -0.6810   25.7950 F       1  UNL1       -0.1996
     28 N         -29.1818   -1.0268   30.4482 N.am    1  UNL1       -0.2613
     29 C         -28.6045   -0.1221   29.6125 C.2     1  UNL1        0.0878
     30 C         -29.2589   -3.4622   30.9894 C.2     1  UNL1        0.0150
     31 C         -27.5387   -0.3378   28.6379 C.3     1  UNL1        0.1229
     32 N         -26.0323   -0.4435   29.2332 N.3     1  UNL1       -0.2635
     33 C         -29.7764   -4.7131   30.6266 C.2     1  UNL1        0.0013
     34 C         -31.2200   -2.4383   30.1394 C.2     1  UNL1       -0.0077
     35 C         -23.1746    0.9021   27.2147 C.3     1  UNL1        0.0055
     36 C         -31.6852   -3.6674   29.6069 C.2     1  UNL1       -0.0030
     37 C         -32.1973   -1.3081   30.4261 C.3     1  UNL1        0.0323
     38 C         -29.8949   -2.3263   30.5116 C.2     1  UNL1        0.0533
     39 O         -29.0506   -0.6700   31.7086 O.3     1  UNL1       -0.4158
     40 C         -22.4164    0.7465   28.5567 C.3     1  UNL1        0.0004
     41 C         -22.4366    1.9455   26.3604 C.3     1  UNL1        0.0004
     42 C         -30.9347   -4.8126   29.8507 C.2     1  UNL1       -0.0002
     43 C         -24.7013    1.0898   27.3676 C.3     1  UNL1        0.0409
     44 C         -25.2868    0.7792   28.7861 C.3     1  UNL1        0.0771
     45 O         -29.0367    1.1334   29.6532 O.2     1  UNL1       -0.5395
@<TRIPOS>BOND
     1     1    32    1
     2     2     7    1
     3     2     1    1
     4     3     2    2
     5     4     3    1
     6     4     5    2
     7     5     6    1
     8     6     7    2
     9     8     1    1
    10     8     9    1
    11     8    12    1
    12     9    10    1
    13    10    11    1
    14    12    11    1
    15    13    43    1
    16    14    13    1
    17    14    15    1
    18    15    18    2
    19    16    17    1
    20    16    15    1
    21    19    14    2
    22    20    21    2
    23    20    19    1
    24    21    26    1
    25    22    21    1
    26    23    22    1
    27    24    23    1
    28    24    25    1
    29    26    27    1
    30    26    13    2
    31    28    38    1
    32    28    39    1
    33    29    45    2
    34    29    28   am
    35    31    32    1
    36    31    29    1
    37    33    30    1
    38    34    37    1
    39    34    38    1
    40    35    43    1
    41    35    40    1
    42    36    42    1
    43    36    34    2
    44    38    30    2
    45    41    35    1
    46    42    33    2
    47    43    44    1
    48    44    32    1
