@<TRIPOS>MOLECULE
No_4124-gen_results/8p0m/2024-11-27-11-27-31/
 25 27 0 0 0
SMALL
GASTEIGER

@<TRIPOS>ATOM
      1 C         -28.0162   -0.8135   28.8779 C.ar    1  UNL1        0.0111
      2 C         -27.0636   -0.1190   28.6079 C.ar    1  UNL1       -0.0030
      3 C         -26.8756    1.1325   28.9134 C.ar    1  UNL1       -0.0170
      4 C         -27.9014    1.8066   29.6436 C.ar    1  UNL1       -0.0030
      5 C         -29.0458   -0.2316   29.7181 C.ar    1  UNL1        0.0577
      6 C         -28.9402    1.0517   30.0597 C.ar    1  UNL1        0.0111
      7 CL        -30.3294   -1.2509   30.1909 Cl      1  UNL1       -0.0822
      8 C         -25.6528    1.9343   28.4399 C.3     1  UNL1        0.0619
      9 C         -24.9134    1.6968   27.6747 C.ar    1  UNL1       -0.0170
     10 C         -23.6884    2.4502   27.3176 C.ar    1  UNL1       -0.0039
     11 C         -24.9152    2.7596   29.4633 C.3     1  UNL1        0.0974
     12 N         -25.6610    3.1303   30.6822 N.3     1  UNL1       -0.2173
     13 C         -22.8752    2.0654   26.2449 C.ar    1  UNL1       -0.0003
     14 C         -25.0476    0.7347   26.5142 C.ar    1  UNL1       -0.0039
     15 C         -24.4570    0.6021   25.3531 C.ar    1  UNL1       -0.0003
     16 C         -23.2795    1.3659   25.1926 C.ar    1  UNL1       -0.0000
     17 C         -24.9044    3.6191   31.7406 C.3     1  UNL1        0.0891
     18 C         -25.6076    4.6465   32.5193 C.3     1  UNL1        0.0235
     19 C         -25.8104    5.8560   31.9272 C.3     1  UNL1        0.0278
     20 C         -25.4834    6.1750   30.8810 C.ar    1  UNL1       -0.0221
     21 C         -25.6840    7.5409   30.2686 C.ar    1  UNL1       -0.0043
     22 C         -25.2697    7.8308   28.9669 C.ar    1  UNL1       -0.0003
     23 C         -24.9235    6.7575   28.0951 C.ar    1  UNL1       -0.0000
     24 C         -25.0291    5.4369   28.5814 C.ar    1  UNL1       -0.0003
     25 C         -25.2646    5.2051   29.8427 C.ar    1  UNL1       -0.0043
@<TRIPOS>BOND
     1     5     7    1
     2     3     8    1
     3     8    11    1
     4    11    12    1
     5    12    17    1
     6    17    18    1
     7    18    19    1
     8     8     9    1
     9    19    20    1
    10    20    21   ar
    11    21    22   ar
    12    22    23   ar
    13    23    24   ar
    14    24    25   ar
    15    25    20   ar
    16     1     2   ar
    17     2     3   ar
    18     3     4   ar
    19     4     6   ar
    20     6     5   ar
    21     5     1   ar
    22     9    10   ar
    23    10    13   ar
    24    13    16   ar
    25    16    15   ar
    26    15    14   ar
    27    14     9   ar
