@<TRIPOS>MOLECULE
outputs/IAG933/test6/raw/output_4125_IAG933_linker_design_.xyz
 41 44 0 0 0
SMALL
GASTEIGER

@<TRIPOS>ATOM
      1 C         -24.8550   -1.0120   30.1430 C.3     1  UNL1        0.1038
      2 C         -24.9730   -2.5050   29.7880 C.2     1  UNL1       -0.0062
      3 C         -23.9060   -3.1730   29.1460 C.2     1  UNL1       -0.0029
      4 C         -23.9890   -4.5490   28.8530 C.2     1  UNL1       -0.0003
      5 C         -25.1370   -5.2800   29.2050 C.2     1  UNL1       -0.0000
      6 C         -26.2320   -4.6110   29.7840 C.2     1  UNL1       -0.0003
      7 C         -26.1550   -3.2320   30.0650 C.2     1  UNL1       -0.0029
      8 C         -25.3870   -0.6790   31.5710 C.3     1  UNL1        0.0918
      9 C         -25.1890    0.7730   32.0280 C.3     1  UNL1        0.0206
     10 C         -25.3360    0.6840   33.5440 C.3     1  UNL1        0.0203
     11 C         -24.8290   -0.7150   33.9050 C.3     1  UNL1        0.0888
     12 N         -24.7580   -1.4810   32.6460 N.3     1  UNL1       -0.2177
     13 C         -25.6880    1.6140   26.4610 C.3     1  UNL1        0.1335
     14 C         -26.2500    2.9200   26.3950 C.2     1  UNL1        0.0698
     15 C         -25.6420    4.0930   27.1230 C.2     1  UNL1        0.2637
     16 N         -25.6140    5.2520   26.4490 N.am    1  UNL1       -0.2000
     17 C         -25.0260    6.4790   26.9630 C.3     1  UNL1        0.1388
     18 O         -25.1430    3.9660   28.2430 O.2     1  UNL1       -0.2686
     19 C         -27.4380    3.0910   25.6450 C.2     1  UNL1        0.1035
     20 N         -28.0750    2.0890   25.0030 N.2     1  UNL1       -0.2118
     21 C         -27.5430    0.8490   25.0790 C.2     1  UNL1        0.2355
     22 O         -28.1930   -0.2080   24.4770 O.2     1  UNL1       -0.4585
     23 C         -29.4600    0.0050   23.8660 C.3     1  UNL1        0.2423
     24 C         -30.0650   -1.3770   23.5730 C.3     1  UNL1        0.2292
     25 O         -30.7290   -1.8780   24.7210 O.3     1  UNL1       -0.2162
     26 C         -26.3540    0.5760   25.7770 C.3     1  UNL1        0.2548
     27 F         -25.8600   -0.6810   25.7950 F       1  UNL1       -0.2254
     28 C         -23.4105    0.7876   27.0152 C.3     1  UNL1        0.1742
     29 F         -21.5573    1.7320   26.3733 F       1  UNL1       -0.1994
     30 C         -22.8208   -0.0049   28.2841 C.3     1  UNL1        0.2377
     31 N         -24.0519   -0.3006   29.1633 N.3     1  UNL1       -0.1840
     32 C         -24.8717    0.9177   28.7542 C.3     1  UNL1        0.3450
     33 C         -24.4362    4.4824   32.7031 C.3     1  UNL1        0.0924
     34 C         -24.5171    3.7096   31.6083 C.1     1  UNL1       -0.0606
     35 N         -24.6706    1.2985   27.4600 N.3     1  UNL1       -0.2012
     36 O         -21.8370    0.5919   29.1293 O.3     1  UNL1       -0.2031
     37 O         -23.3463    2.7818   25.5977 O.3     1  UNL1       -0.1826
     38 C         -22.8201    1.5163   25.8162 C.3     1  UNL1        0.3281
     39 O         -24.1874    1.8402   29.6574 O.3     1  UNL1       -0.2321
     40 C         -24.5237    2.9081   30.6607 C.1     1  UNL1        0.0602
     41 O         -26.2542    0.7160   28.9041 O.3     1  UNL1       -0.1601
@<TRIPOS>BOND
     1     1     2    1
     2     2     7    1
     3     3     2    2
     4     4     3    1
     5     4     5    2
     6     5     6    1
     7     6     7    2
     8     8     1    1
     9     8     9    1
    10     8    12    1
    11     9    10    1
    12    10    11    1
    13    12    11    1
    14    13    14    1
    15    14    15    1
    16    15    18    2
    17    16    17    1
    18    16    15    1
    19    19    14    2
    20    20    21    2
    21    20    19    1
    22    21    26    1
    23    22    21    1
    24    23    22    1
    25    24    23    1
    26    24    25    1
    27    26    27    1
    28    26    13    1
    29    28    38    1
    30    28    35    1
    31    28    30    1
    32    30    36    1
    33    30    31    1
    34    31     1    1
    35    32    41    1
    36    32    31    1
    37    32    39    1
    38    34    33    1
    39    35    13    1
    40    35    32    1
    41    38    37    1
    42    38    29    1
    43    39    40    1
    44    40    34    3
