@<TRIPOS>MOLECULE
No_4126-gen_results/8p0m/2024-11-27-11-27-31/
 18 20 0 0 0
SMALL
GASTEIGER

@<TRIPOS>ATOM
      1 C         -28.0162   -0.8135   28.8779 C.ar    1  UNL1        0.0169
      2 C         -27.0636   -0.1189   28.6079 C.ar    1  UNL1       -0.0105
      3 C         -26.9716    0.7139   27.5060 C.3     1  UNL1        0.1048
      4 C         -25.8205    1.4910   27.1160 C.3     1  UNL1        0.0399
      5 C         -24.6562    1.4242   27.9180 C.ar    1  UNL1       -0.0213
      6 C         -23.4598    2.1165   27.6160 C.ar    1  UNL1       -0.0042
      7 C         -22.3627    1.9155   28.4482 C.ar    1  UNL1       -0.0003
      8 C         -22.4137    0.9215   29.4583 C.ar    1  UNL1       -0.0000
      9 C         -23.5531    0.2322   29.7679 C.ar    1  UNL1       -0.0003
     10 C         -24.6758    0.4356   28.9850 C.ar    1  UNL1       -0.0027
     11 C         -25.7809   -0.2644   29.3119 C.ar    1  UNL1        0.0154
     12 C         -28.0384   -1.6122   30.1539 C.ar    1  UNL1        0.0986
     13 N         -26.8852   -1.8459   30.7884 N.ar    1  UNL1       -0.2423
     14 C         -25.8341   -1.1679   30.4552 C.ar    1  UNL1        0.0985
     15 C         -28.1628    0.8655   26.6257 C.2     1  UNL1        0.2454
     16 O         -29.1401    0.9811   26.9126 O.2     1  UNL1       -0.2730
     17 N         -27.8515    0.5935   25.2833 N.am    1  UNL1       -0.2033
     18 C         -28.8250    0.4867   24.2706 C.3     1  UNL1        0.1385
@<TRIPOS>BOND
     1     2     3    1
     2     3     4    1
     3     4     5    1
     4    10    11    1
     5     3    15    1
     6    15    16    2
     7    15    17   am
     8    17    18    1
     9     5     6   ar
    10     6     7   ar
    11     7     8   ar
    12     8     9   ar
    13     9    10   ar
    14    10     5   ar
    15     1     2   ar
    16     2    11   ar
    17    11    14   ar
    18    14    13   ar
    19    13    12   ar
    20    12     1   ar
