@<TRIPOS>MOLECULE
No_4128-gen_results/8p0m/2024-11-27-11-27-31/
 25 26 0 0 0
SMALL
GASTEIGER

@<TRIPOS>ATOM
      1 C         -28.0162   -0.8135   28.8779 C.3     1  UNL1        0.1299
      2 C         -27.0636   -0.1190   28.6079 C.ar    1  UNL1       -0.0075
      3 C         -26.9716    0.7139   27.5060 C.ar    1  UNL1        0.0723
      4 C         -25.8205    1.4909   27.1160 C.ar    1  UNL1        0.0100
      5 C         -24.6562    1.4242   27.9180 C.ar    1  UNL1        0.0716
      6 C         -24.7114    0.5419   29.0507 C.ar    1  UNL1        0.0035
      7 C         -25.8042   -0.2058   29.3881 C.ar    1  UNL1       -0.0038
      8 C         -28.7426   -0.4419   30.1405 C.3     1  UNL1        0.4017
      9 F         -28.7850    0.5987   30.5334 F       1  UNL1       -0.1697
     10 F         -30.0566   -1.0748   30.1442 F       1  UNL1       -0.1697
     11 F         -28.1607   -1.3424   31.1601 F       1  UNL1       -0.1697
     12 C         -23.4816    2.2198   27.6423 C.3     1  UNL1        0.4186
     13 F         -23.6541    3.2977   27.0947 F       1  UNL1       -0.1659
     14 F         -22.4951    1.5627   26.9242 F       1  UNL1       -0.1659
     15 F         -22.8234    2.5228   28.8019 F       1  UNL1       -0.1659
     16 C         -28.1321    0.8733   26.6032 C.2     1  UNL1        0.3454
     17 O         -29.1775    1.3404   26.9156 O.2     1  UNL1       -0.2445
     18 O         -27.9152    0.7440   25.3514 O.3     1  UNL1       -0.4214
     19 C         -28.9141    0.3673   24.5059 C.ar    1  UNL1        0.1447
     20 C         -29.1435   -1.0162   24.4466 C.ar    1  UNL1        0.0373
     21 C         -30.3553   -1.4695   23.7473 C.ar    1  UNL1        0.0031
     22 C         -31.5088   -0.8359   24.2775 C.ar    1  UNL1       -0.0001
     23 C         -31.3990    0.6346   24.2393 C.ar    1  UNL1       -0.0012
     24 C         -30.1776    1.0817   24.9991 C.ar    1  UNL1        0.0128
     25 C         -30.0780    2.2919   25.3789 C.3     1  UNL1        0.0342
@<TRIPOS>BOND
     1     1     8    1
     2     8     9    1
     3     8    10    1
     4     8    11    1
     5     5    12    1
     6    12    13    1
     7    12    14    1
     8    12    15    1
     9     3    16    1
    10    16    17    2
    11    16    18    1
    12    18    19    1
    13    24    25    1
    14     1     2    1
    15     2     3   ar
    16     3     4   ar
    17     4     5   ar
    18     5     6   ar
    19     6     7   ar
    20     7     2   ar
    21    19    20   ar
    22    20    21   ar
    23    21    22   ar
    24    22    23   ar
    25    23    24   ar
    26    24    19   ar
