@<TRIPOS>MOLECULE
outputs/IAG933/test6/raw/output_4131_IAG933_linker_design_.xyz
 45 49 0 0 0
SMALL
GASTEIGER

@<TRIPOS>ATOM
      1 C         -24.8550   -1.0120   30.1430 C.3     1  UNL1        0.1287
      2 C         -24.9730   -2.5050   29.7880 C.2     1  UNL1       -0.0015
      3 C         -23.9060   -3.1730   29.1460 C.2     1  UNL1       -0.0026
      4 C         -23.9890   -4.5490   28.8530 C.2     1  UNL1       -0.0003
      5 C         -25.1370   -5.2800   29.2050 C.2     1  UNL1       -0.0000
      6 C         -26.2320   -4.6110   29.7840 C.2     1  UNL1       -0.0003
      7 C         -26.1550   -3.2320   30.0650 C.2     1  UNL1       -0.0026
      8 C         -25.3870   -0.6790   31.5710 C.3     1  UNL1        0.0965
      9 C         -25.1890    0.7730   32.0280 C.3     1  UNL1        0.0210
     10 C         -25.3360    0.6840   33.5440 C.3     1  UNL1        0.0203
     11 C         -24.8290   -0.7150   33.9050 C.3     1  UNL1        0.0888
     12 N         -24.7580   -1.4810   32.6460 N.3     1  UNL1       -0.2174
     13 C         -25.6880    1.6140   26.4610 C.2     1  UNL1        0.0394
     14 C         -26.2500    2.9200   26.3950 C.2     1  UNL1        0.0766
     15 C         -25.6420    4.0930   27.1230 C.2     1  UNL1        0.2664
     16 N         -25.6140    5.2520   26.4490 N.am    1  UNL1       -0.1997
     17 C         -25.0260    6.4790   26.9630 C.3     1  UNL1        0.1388
     18 O         -25.1430    3.9660   28.2430 O.2     1  UNL1       -0.2683
     19 C         -27.4380    3.0910   25.6450 C.2     1  UNL1        0.1067
     20 N         -28.0750    2.0890   25.0030 N.2     1  UNL1       -0.2081
     21 C         -27.5430    0.8490   25.0790 C.2     1  UNL1        0.2533
     22 O         -28.1930   -0.2080   24.4770 O.2     1  UNL1       -0.4558
     23 C         -29.4600    0.0050   23.8660 C.3     1  UNL1        0.2426
     24 C         -30.0650   -1.3770   23.5730 C.3     1  UNL1        0.2292
     25 O         -30.7290   -1.8780   24.7210 O.3     1  UNL1       -0.2162
     26 C         -26.3540    0.5760   25.7770 C.2     1  UNL1        0.1931
     27 F         -25.8600   -0.6810   25.7950 F       1  UNL1       -0.1992
     28 C         -29.5351   -1.9560   29.7360 C.3     1  UNL1        0.1613
     29 C         -24.2725    0.5370   28.2881 C.2     1  UNL1        0.0654
     30 C         -23.4338    1.8959   26.3435 C.2     1  UNL1        0.0324
     31 C         -24.5062    1.3402   27.1047 C.2     1  UNL1        0.0195
     32 C         -22.9477    0.4160   28.6941 C.2     1  UNL1        0.0362
     33 N         -31.5968   -0.5458   30.7505 N.3     1  UNL1       -0.1318
     34 C         -27.7471   -0.1838   29.3080 C.3     1  UNL1        0.2083
     35 N         -26.5015    0.5350   29.0402 N.3     1  UNL1       -0.1009
     36 N         -25.3033   -0.0891   29.1005 N.pl3   1  UNL1       -0.2308
     37 F         -21.1317    2.1013   25.9988 F       1  UNL1       -0.2027
     38 C         -21.9161    1.0276   27.9581 C.2     1  UNL1        0.1177
     39 C         -28.7495    0.9688   29.3482 C.3     1  UNL1        0.0513
     40 C         -29.3743   -0.5156   31.6598 C.3     1  UNL1        0.0216
     41 C         -22.1496    1.7053   26.7731 C.2     1  UNL1        0.1568
     42 N         -20.4594    1.0138   28.3038 N.pl3   1  UNL1       -0.1257
     43 O         -28.2895   -1.5619   29.1152 O.3     1  UNL1       -0.3366
     44 C         -29.9425    0.1767   29.0714 C.3     1  UNL1        0.0242
     45 C         -30.1607   -0.6794   30.3224 C.3     1  UNL1        0.1044
@<TRIPOS>BOND
     1     1    36    1
     2     2     7    1
     3     2     1    1
     4     3     2    2
     5     4     3    1
     6     4     5    2
     7     5     6    1
     8     6     7    2
     9     8     1    1
    10     8     9    1
    11     8    12    1
    12     9    10    1
    13    10    11    1
    14    12    11    1
    15    13    31    1
    16    14    13    1
    17    14    15    1
    18    15    18    2
    19    16    17    1
    20    16    15    1
    21    19    14    2
    22    20    21    2
    23    20    19    1
    24    21    26    1
    25    22    21    1
    26    23    22    1
    27    24    23    1
    28    24    25    1
    29    26    27    1
    30    26    13    2
    31    28    45    1
    32    29    32    1
    33    29    36    1
    34    30    41    2
    35    30    31    1
    36    31    29    2
    37    34    35    1
    38    34    39    1
    39    35    36    1
    40    37    41    1
    41    38    42    1
    42    38    32    2
    43    41    38    1
    44    43    34    1
    45    43    28    1
    46    44    39    1
    47    44    45    1
    48    45    33    1
    49    45    40    1
