@<TRIPOS>MOLECULE
outputs/IAG933/test6/raw/output_4134_IAG933_linker_design_.xyz
 43 47 0 0 0
SMALL
GASTEIGER

@<TRIPOS>ATOM
      1 C         -24.8550   -1.0120   30.1430 C.3     1  UNL1        0.0401
      2 C         -24.9730   -2.5050   29.7880 C.2     1  UNL1       -0.0211
      3 C         -23.9060   -3.1730   29.1460 C.2     1  UNL1       -0.0042
      4 C         -23.9890   -4.5490   28.8530 C.2     1  UNL1       -0.0003
      5 C         -25.1370   -5.2800   29.2050 C.2     1  UNL1       -0.0000
      6 C         -26.2320   -4.6110   29.7840 C.2     1  UNL1       -0.0003
      7 C         -26.1550   -3.2320   30.0650 C.2     1  UNL1       -0.0042
      8 C         -25.3870   -0.6790   31.5710 C.3     1  UNL1        0.0792
      9 C         -25.1890    0.7730   32.0280 C.3     1  UNL1        0.0454
     10 C         -25.3360    0.6840   33.5440 C.3     1  UNL1        0.0226
     11 C         -24.8290   -0.7150   33.9050 C.3     1  UNL1        0.0888
     12 N         -24.7580   -1.4810   32.6460 N.3     1  UNL1       -0.2190
     13 C         -25.6880    1.6140   26.4610 C.2     1  UNL1        0.0863
     14 C         -26.2500    2.9200   26.3950 C.2     1  UNL1        0.0899
     15 C         -25.6420    4.0930   27.1230 C.2     1  UNL1        0.2676
     16 N         -25.6140    5.2520   26.4490 N.am    1  UNL1       -0.1997
     17 C         -25.0260    6.4790   26.9630 C.3     1  UNL1        0.1388
     18 O         -25.1430    3.9660   28.2430 O.2     1  UNL1       -0.2683
     19 C         -27.4380    3.0910   25.6450 C.2     1  UNL1        0.1080
     20 N         -28.0750    2.0890   25.0030 N.2     1  UNL1       -0.2080
     21 C         -27.5430    0.8490   25.0790 C.2     1  UNL1        0.2546
     22 O         -28.1930   -0.2080   24.4770 O.2     1  UNL1       -0.4558
     23 C         -29.4600    0.0050   23.8660 C.3     1  UNL1        0.2426
     24 C         -30.0650   -1.3770   23.5730 C.3     1  UNL1        0.2292
     25 O         -30.7290   -1.8780   24.7210 O.3     1  UNL1       -0.2162
     26 C         -26.3540    0.5760   25.7770 C.2     1  UNL1        0.2062
     27 F         -25.8600   -0.6810   25.7950 F       1  UNL1       -0.1979
     28 C         -26.1625    4.5169   31.5098 C.3     1  UNL1        0.0985
     29 C         -23.2562    1.4288   29.3261 C.3     1  UNL1        0.1437
     30 O         -24.4413    1.9227   29.8794 O.3     1  UNL1       -0.3558
     31 C         -25.3805    3.3080   31.7324 C.3     1  UNL1        0.0665
     32 C         -24.6321    3.6110   32.8334 C.2     1  UNL1       -0.0271
     33 N         -27.4908    4.6159   31.9711 N.3     1  UNL1       -0.1325
     34 C         -23.3275    1.6760   26.6747 C.3     1  UNL1        0.0933
     35 C         -25.4810    5.7022   31.2704 C.3     1  UNL1        0.0241
     36 C         -24.9726    1.9517   31.1496 C.3     1  UNL1        0.1219
     37 C         -22.3983    1.3024   27.9555 C.3     1  UNL1        0.0494
     38 C         -24.4099    5.8686   32.1446 C.3     1  UNL1        0.0272
     39 C         -24.6369   -0.1776   27.8041 C.3     1  UNL1        0.0912
     40 C         -25.5295   -0.2160   29.0186 C.3     1  UNL1        0.0272
     41 C         -21.0898    1.4937   27.1674 C.3     1  UNL1        0.0043
     42 C         -24.0792    4.8651   33.0169 C.2     1  UNL1       -0.0305
     43 N         -24.6285    1.1026   27.1046 N.pl3   1  UNL1       -0.3054
@<TRIPOS>BOND
     1     1     2    1
     2     1     8    1
     3     2     7    1
     4     3     2    2
     5     4     3    1
     6     4     5    2
     7     5     6    1
     8     6     7    2
     9     8     9    1
    10     8    12    1
    11     9    10    1
    12    10    11    1
    13    12    11    1
    14    13    43    1
    15    14    13    1
    16    14    15    1
    17    15    18    2
    18    16    17    1
    19    16    15    1
    20    19    14    2
    21    20    21    2
    22    20    19    1
    23    21    26    1
    24    22    21    1
    25    23    22    1
    26    24    23    1
    27    24    25    1
    28    26    27    1
    29    26    13    2
    30    28    31    1
    31    28    33    1
    32    29    30    1
    33    31    32    1
    34    32    42    2
    35    34    43    1
    36    34    37    1
    37    35    28    1
    38    35    38    1
    39    36    30    1
    40    36    31    1
    41    36     9    1
    42    37    41    1
    43    37    29    1
    44    38    42    1
    45    39    40    1
    46    40     1    1
    47    43    39    1
