@<TRIPOS>MOLECULE
No_4135-gen_results/8p0m/2024-11-27-11-27-31/
 17 18 0 0 0
SMALL
GASTEIGER

@<TRIPOS>ATOM
      1 C         -28.0162   -0.8135   28.8779 C.2     1  UNL1       -0.0085
      2 C         -27.0636   -0.1189   28.6079 C.2     1  UNL1       -0.0442
      3 C         -26.9716    0.7139   27.5060 C.3     1  UNL1        0.0226
      4 C         -25.8205    1.4909   27.1160 C.3     1  UNL1        0.0156
      5 C         -24.6562    1.4242   27.9180 C.3     1  UNL1        0.1041
      6 C         -24.6847    0.5901   29.0659 C.3     1  UNL1        0.0156
      7 C         -25.8099   -0.1265   29.3338 C.3     1  UNL1        0.0226
      8 C         -29.2185   -0.0422   29.3127 C.ar    1  UNL1       -0.0004
      9 C         -29.4896    0.0331   30.5462 C.ar    1  UNL1        0.0033
     10 C         -30.0798    0.2849   28.2315 C.ar    1  UNL1        0.0033
     11 C         -31.3284    0.8719   28.5509 C.ar    1  UNL1        0.0420
     12 C         -30.7482    0.7427   30.8954 C.ar    1  UNL1        0.0420
     13 C         -31.6192    1.1341   29.8887 C.ar    1  UNL1        0.1957
     14 C         -23.4644    2.1756   27.5952 C.2     1  UNL1        0.3643
     15 O         -23.4422    3.0503   26.7850 O.co2   1  UNL1       -0.2457
     16 O         -22.2798    1.7682   28.0987 O.co2   1  UNL1       -0.2457
     17 O         -32.7853    1.7460   30.1725 O.3     1  UNL1       -0.2866
@<TRIPOS>BOND
     1     1     2    2
     2     2     3    1
     3     3     4    1
     4     4     5    1
     5     5     6    1
     6     2     7    1
     7     6     7    1
     8     1     8    1
     9     5    14    1
    10    14    15   ar
    11    14    16   ar
    12    13    17    1
    13     8     9   ar
    14     9    12   ar
    15    12    13   ar
    16    13    11   ar
    17    11    10   ar
    18    10     8   ar
