@<TRIPOS>MOLECULE
No_4138-gen_results/8p0m/2024-11-27-11-27-31/
 28 31 0 0 0
SMALL
GASTEIGER

@<TRIPOS>ATOM
      1 C         -28.0162   -0.8135   28.8779 C.ar    1  UNL1        0.0146
      2 C         -28.4690   -0.7850   29.8287 C.ar    1  UNL1        0.0944
      3 C         -28.1816    0.4277   28.1134 C.ar    1  UNL1        0.0033
      4 C         -27.4498    0.6435   26.8500 C.ar    1  UNL1        0.0001
      5 C         -27.8596    1.4573   25.9076 C.ar    1  UNL1        0.0000
      6 C         -29.4263    0.1097   30.4178 C.ar    1  UNL1        0.1829
      7 C         -29.6233    1.2198   29.7351 C.ar    1  UNL1        0.1752
      8 C         -28.9609    1.4529   28.5513 C.ar    1  UNL1        0.0329
      9 C         -27.1733    1.5743   24.7028 C.ar    1  UNL1        0.0000
     10 C         -26.0892    0.7468   24.4126 C.ar    1  UNL1        0.0000
     11 C         -25.6364   -0.1191   25.3972 C.ar    1  UNL1        0.0000
     12 C         -26.2807   -0.2063   26.5817 C.ar    1  UNL1        0.0000
     13 F         -30.4416    2.1903   30.2157 F       1  UNL1       -0.2009
     14 CL        -28.2483   -2.3449   30.8175 Cl      1  UNL1       -0.0790
     15 O         -29.9723   -0.1957   31.6801 O.3     1  UNL1       -0.4503
     16 C         -29.2772   -0.0905   32.7264 C.ar    1  UNL1        0.1462
     17 C         -29.6665   -1.0438   33.7410 C.ar    1  UNL1        0.0346
     18 C         -28.7676   -1.1970   34.7991 C.ar    1  UNL1        0.0039
     19 C         -27.5545   -0.4578   34.9124 C.ar    1  UNL1        0.0116
     20 C         -27.2545    0.4067   33.8127 C.ar    1  UNL1        0.0607
     21 C         -28.0997    0.4754   32.7846 C.ar    1  UNL1        0.0489
     22 CL        -25.7713    1.3102   33.9690 Cl      1  UNL1       -0.0821
     23 C         -30.8448   -1.8180   33.6870 C.ar    1  UNL1        0.0029
     24 C         -30.8449   -3.0800   33.8930 C.ar    1  UNL1        0.0001
     25 C         -32.0208   -3.8921   33.8142 C.ar    1  UNL1        0.0000
     26 C         -33.1536   -3.2551   33.3217 C.ar    1  UNL1        0.0000
     27 C         -33.1573   -1.9011   33.0078 C.ar    1  UNL1        0.0000
     28 C         -32.0259   -1.1680   33.2072 C.ar    1  UNL1        0.0001
@<TRIPOS>BOND
     1     3     4    1
     2     7    13    1
     3     2    14    1
     4     6    15    1
     5    15    16    1
     6    20    22    1
     7    17    23    1
     8    23    24   ar
     9    24    25   ar
    10    25    26   ar
    11    26    27   ar
    12    27    28   ar
    13    28    23   ar
    14     4     5   ar
    15     5     9   ar
    16     9    10   ar
    17    10    11   ar
    18    11    12   ar
    19    12     4   ar
    20     1     2   ar
    21     2     6   ar
    22     6     7   ar
    23     7     8   ar
    24     8     3   ar
    25     3     1   ar
    26    16    17   ar
    27    17    18   ar
    28    18    19   ar
    29    19    20   ar
    30    20    21   ar
    31    21    16   ar
