@<TRIPOS>MOLECULE
outputs/IAG933/test6/raw/output_4139_IAG933_linker_design_.xyz
 42 46 0 0 0
SMALL
GASTEIGER

@<TRIPOS>ATOM
      1 C         -24.8550   -1.0120   30.1430 C.3     1  UNL1        0.0603
      2 C         -24.9730   -2.5050   29.7880 C.2     1  UNL1       -0.0171
      3 C         -23.9060   -3.1730   29.1460 C.2     1  UNL1       -0.0039
      4 C         -23.9890   -4.5490   28.8530 C.2     1  UNL1       -0.0003
      5 C         -25.1370   -5.2800   29.2050 C.2     1  UNL1       -0.0000
      6 C         -26.2320   -4.6110   29.7840 C.2     1  UNL1       -0.0003
      7 C         -26.1550   -3.2320   30.0650 C.2     1  UNL1       -0.0039
      8 C         -25.3870   -0.6790   31.5710 C.3     1  UNL1        0.0808
      9 C         -25.1890    0.7730   32.0280 C.3     1  UNL1        0.0195
     10 C         -25.3360    0.6840   33.5440 C.3     1  UNL1        0.0203
     11 C         -24.8290   -0.7150   33.9050 C.3     1  UNL1        0.0887
     12 N         -24.7580   -1.4810   32.6460 N.3     1  UNL1       -0.2188
     13 C         -25.6880    1.6140   26.4610 C.2     1  UNL1        0.0408
     14 C         -26.2500    2.9200   26.3950 C.2     1  UNL1        0.0766
     15 C         -25.6420    4.0930   27.1230 C.2     1  UNL1        0.2664
     16 N         -25.6140    5.2520   26.4490 N.am    1  UNL1       -0.1997
     17 C         -25.0260    6.4790   26.9630 C.3     1  UNL1        0.1388
     18 O         -25.1430    3.9660   28.2430 O.2     1  UNL1       -0.2683
     19 C         -27.4380    3.0910   25.6450 C.2     1  UNL1        0.1067
     20 N         -28.0750    2.0890   25.0030 N.2     1  UNL1       -0.2081
     21 C         -27.5430    0.8490   25.0790 C.2     1  UNL1        0.2533
     22 O         -28.1930   -0.2080   24.4770 O.2     1  UNL1       -0.4558
     23 C         -29.4600    0.0050   23.8660 C.3     1  UNL1        0.2426
     24 C         -30.0650   -1.3770   23.5730 C.3     1  UNL1        0.2292
     25 O         -30.7290   -1.8780   24.7210 O.3     1  UNL1       -0.2162
     26 C         -26.3540    0.5760   25.7770 C.2     1  UNL1        0.1931
     27 F         -25.8600   -0.6810   25.7950 F       1  UNL1       -0.1992
     28 C         -22.8280    0.1700   29.3025 C.2     1  UNL1        0.0286
     29 C         -23.1184    1.6318   27.4833 C.2     1  UNL1        0.1656
     30 C         -22.8703    2.7453   25.4641 C.3     1  UNL1        0.2526
     31 C         -26.6865    1.3512   28.6713 C.3     1  UNL1        0.0094
     32 O         -22.7088    2.7143   26.8471 O.2     1  UNL1       -0.4692
     33 C         -27.6108   -0.8757   28.3787 C.3     1  UNL1        0.1464
     34 C         -24.1938   -0.0941   29.3367 C.2     1  UNL1       -0.0185
     35 F         -20.9041    1.1131   28.2322 F       1  UNL1       -0.2010
     36 C         -22.2831    0.9790   28.3259 C.2     1  UNL1        0.1735
     37 C         -25.0436    0.6339   28.4289 C.2     1  UNL1       -0.0205
     38 C         -26.5073    0.2120   28.8449 C.3     1  UNL1        0.0518
     39 O         -28.8283   -0.2498   27.9746 O.3     1  UNL1       -0.3534
     40 C         -28.0885    1.9868   28.5447 C.3     1  UNL1        0.0325
     41 C         -29.0732    0.8583   28.8346 C.3     1  UNL1        0.1422
     42 C         -24.5386    1.2609   27.3910 C.2     1  UNL1        0.0346
@<TRIPOS>BOND
     1     1    34    1
     2     2     7    1
     3     2     1    1
     4     3     2    2
     5     4     3    1
     6     4     5    2
     7     5     6    1
     8     6     7    2
     9     8     1    1
    10     8     9    1
    11     8    12    1
    12     9    10    1
    13    10    11    1
    14    12    11    1
    15    13    42    1
    16    14    13    1
    17    14    15    1
    18    15    18    2
    19    16    17    1
    20    16    15    1
    21    19    14    2
    22    20    21    2
    23    20    19    1
    24    21    26    1
    25    22    21    1
    26    23    22    1
    27    24    23    1
    28    24    25    1
    29    26    27    1
    30    26    13    2
    31    28    34    1
    32    29    36    1
    33    30    32    1
    34    31    38    1
    35    32    29    1
    36    33    38    1
    37    35    36    1
    38    36    28    2
    39    37    34    2
    40    38    37    1
    41    39    33    1
    42    39    41    1
    43    40    31    1
    44    40    41    1
    45    42    29    2
    46    42    37    1
