@<TRIPOS>MOLECULE
No_4146-gen_results/8p0m/2024-11-27-11-27-31/
 15 16 0 0 0
SMALL
GASTEIGER

@<TRIPOS>ATOM
      1 C         -28.0162   -0.8135   28.8779 C.ar    1  UNL1        0.1068
      2 N         -27.1876   -0.3590   28.4524 N.ar    1  UNL1       -0.2290
      3 C         -28.1059   -1.6261   30.0720 C.ar    1  UNL1        0.0990
      4 C         -26.7940   -1.9729   30.6057 C.ar    1  UNL1        0.0110
      5 C         -25.6390   -1.4719   30.0298 C.ar    1  UNL1        0.0345
      6 C         -25.8378   -0.6143   28.9259 C.ar    1  UNL1        0.1317
      7 C         -29.2565   -2.2365   30.6531 C.2     1  UNL1        0.3893
      8 O         -29.4758   -2.0964   31.9457 O.co2   1  UNL1       -0.2405
      9 O         -29.7918   -3.2833   30.0594 O.co2   1  UNL1       -0.2405
     10 N         -24.8679    0.1029   28.2283 N.pl3   1  UNL1       -0.2932
     11 C         -23.5878    0.0594   28.7746 C.3     1  UNL1        0.0922
     12 C         -22.6373    1.0700   28.2347 C.3     1  UNL1        0.0215
     13 C         -23.0446    1.8026   27.1095 C.3     1  UNL1        0.0035
     14 C         -24.9248    1.0576   27.2307 C.3     1  UNL1        0.0922
     15 C         -24.1495    1.8539   26.7045 C.3     1  UNL1        0.0215
@<TRIPOS>BOND
     1     3     7    1
     2     7     8   ar
     3     7     9   ar
     4     6    10    1
     5    10    11    1
     6    12    13    1
     7    10    14    1
     8    11    12    1
     9    13    15    1
    10    15    14    1
    11     1     2   ar
    12     2     6   ar
    13     6     5   ar
    14     5     4   ar
    15     4     3   ar
    16     3     1   ar
