@<TRIPOS>MOLECULE
outputs/IAG933/test6/raw/output_4147_IAG933_linker_design_.xyz
 38 41 0 0 0
SMALL
GASTEIGER

@<TRIPOS>ATOM
      1 C         -24.8550   -1.0120   30.1430 C.3     1  UNL1        0.1607
      2 C         -24.9730   -2.5050   29.7880 C.2     1  UNL1        0.0010
      3 C         -23.9060   -3.1730   29.1460 C.2     1  UNL1       -0.0025
      4 C         -23.9890   -4.5490   28.8530 C.2     1  UNL1       -0.0003
      5 C         -25.1370   -5.2800   29.2050 C.2     1  UNL1       -0.0000
      6 C         -26.2320   -4.6110   29.7840 C.2     1  UNL1       -0.0003
      7 C         -26.1550   -3.2320   30.0650 C.2     1  UNL1       -0.0025
      8 C         -25.3870   -0.6790   31.5710 C.3     1  UNL1        0.0992
      9 C         -25.1890    0.7730   32.0280 C.3     1  UNL1        0.0210
     10 C         -25.3360    0.6840   33.5440 C.3     1  UNL1        0.0203
     11 C         -24.8290   -0.7150   33.9050 C.3     1  UNL1        0.0888
     12 N         -24.7580   -1.4810   32.6460 N.3     1  UNL1       -0.2173
     13 C         -25.6880    1.6140   26.4610 C.3     1  UNL1        0.2326
     14 C         -26.2500    2.9200   26.3950 C.2     1  UNL1        0.0974
     15 C         -25.6420    4.0930   27.1230 C.2     1  UNL1        0.2662
     16 N         -25.6140    5.2520   26.4490 N.am    1  UNL1       -0.1999
     17 C         -25.0260    6.4790   26.9630 C.3     1  UNL1        0.1388
     18 O         -25.1430    3.9660   28.2430 O.2     1  UNL1       -0.2685
     19 C         -27.4380    3.0910   25.6450 C.2     1  UNL1        0.1060
     20 N         -28.0750    2.0890   25.0030 N.2     1  UNL1       -0.2116
     21 C         -27.5430    0.8490   25.0790 C.2     1  UNL1        0.2384
     22 O         -28.1930   -0.2080   24.4770 O.2     1  UNL1       -0.4584
     23 C         -29.4600    0.0050   23.8660 C.3     1  UNL1        0.2423
     24 C         -30.0650   -1.3770   23.5730 C.3     1  UNL1        0.2292
     25 O         -30.7290   -1.8780   24.7210 O.3     1  UNL1       -0.2162
     26 C         -26.3540    0.5760   25.7770 C.3     1  UNL1        0.2825
     27 F         -25.8600   -0.6810   25.7950 F       1  UNL1       -0.2225
     28 O         -22.0064    2.0281   25.5751 O.3     1  UNL1       -0.1637
     29 C         -23.3338    2.3472   25.9373 C.3     1  UNL1        0.3886
     30 C         -22.6563   -0.3150   29.6925 C.2     1  UNL1        0.2897
     31 C         -22.1354    1.2902   27.9859 C.2     1  UNL1        0.2838
     32 N         -24.2945    1.6075   26.7336 N.pl3   1  UNL1       -0.1542
     33 O         -20.9694    2.1253   27.5346 O.2     1  UNL1       -0.2784
     34 O         -22.2127   -1.1473   30.5384 O.2     1  UNL1       -0.2664
     35 C         -21.7315    0.5011   29.0119 C.2     1  UNL1        0.1111
     36 C         -23.6157    1.1194   27.6414 C.2     1  UNL1        0.3875
     37 N         -24.4344    0.3743   28.3281 N.2     1  UNL1        0.0551
     38 N         -23.9406   -0.2337   29.4446 N.am    1  UNL1       -0.0776
@<TRIPOS>BOND
     1     1     2    1
     2     2     7    1
     3     3     2    2
     4     4     3    1
     5     4     5    2
     6     5     6    1
     7     6     7    2
     8     8     1    1
     9     8     9    1
    10     8    12    1
    11     9    10    1
    12    10    11    1
    13    12    11    1
    14    13    32    1
    15    14    13    1
    16    14    15    1
    17    15    18    2
    18    16    17    1
    19    16    15    1
    20    19    14    2
    21    20    21    2
    22    20    19    1
    23    21    26    1
    24    22    21    1
    25    23    22    1
    26    24    23    1
    27    24    25    1
    28    26    27    1
    29    26    13    1
    30    28    29    1
    31    29    32    1
    32    30    34    2
    33    31    35    2
    34    32    36    1
    35    33    31    1
    36    35    30    1
    37    36    31    1
    38    36    37    2
    39    37    38    1
    40    38    30   am
    41    38     1    1
