@<TRIPOS>MOLECULE
No_4149-gen_results/8p0m/2024-11-27-11-27-31/
 15 16 0 0 0
SMALL
GASTEIGER

@<TRIPOS>ATOM
      1 C         -28.0162   -0.8135   28.8779 C.ar    1  UNL1        0.0638
      2 C         -27.0636   -0.1190   28.6079 C.ar    1  UNL1        0.0119
      3 C         -25.7647   -0.3897   29.0360 C.ar    1  UNL1        0.0009
      4 C         -25.5296   -1.5302   29.9014 C.ar    1  UNL1        0.0006
      5 C         -26.6888   -2.2893   30.1810 C.ar    1  UNL1        0.0075
      6 C         -27.8727   -1.9508   29.7373 C.ar    1  UNL1        0.0451
      7 C         -24.5491    0.4100   28.7341 C.ar    1  UNL1        0.0009
      8 C         -24.4789    1.1871   27.6843 C.ar    1  UNL1        0.0114
      9 C         -23.2830    1.8356   27.3522 C.ar    1  UNL1        0.0577
     10 C         -22.1028    1.6619   28.0350 C.ar    1  UNL1        0.0114
     11 C         -23.3238    0.1535   29.4730 C.ar    1  UNL1        0.0001
     12 C         -22.1169    0.8126   29.1066 C.ar    1  UNL1        0.0009
     13 BR        -29.3633   -2.9919   30.2464 Br      1  UNL1       -0.0481
     14 CL        -23.3040    2.9405   26.0010 Cl      1  UNL1       -0.0822
     15 CL        -29.6098   -0.4004   28.3481 Cl      1  UNL1       -0.0817
@<TRIPOS>BOND
     1     3     7    1
     2     6    13    1
     3     9    14    1
     4     1    15    1
     5     7     8   ar
     6     8     9   ar
     7     9    10   ar
     8    10    12   ar
     9    12    11   ar
    10    11     7   ar
    11     1     2   ar
    12     2     3   ar
    13     3     4   ar
    14     4     5   ar
    15     5     6   ar
    16     6     1   ar
