@<TRIPOS>MOLECULE
No_415-gen_results/8p0m/2024-11-27-11-27-31/
 21 22 0 0 0
SMALL
GASTEIGER

@<TRIPOS>ATOM
      1 C         -28.0162   -0.8135   28.8779 C.ar    1  UNL1        0.0420
      2 C         -27.0636   -0.1189   28.6079 C.ar    1  UNL1        0.0033
      3 C         -26.8756    1.1325   28.9134 C.ar    1  UNL1        0.0012
      4 C         -27.9014    1.8066   29.6436 C.ar    1  UNL1        0.0033
      5 C         -28.9449    1.0388   30.0360 C.ar    1  UNL1        0.0420
      6 C         -29.0273   -0.2890   29.7051 C.ar    1  UNL1        0.1957
      7 C         -25.6959    1.9505   28.4764 C.ar    1  UNL1        0.0114
      8 C         -24.9391    2.5396   29.0692 C.ar    1  UNL1        0.0719
      9 C         -25.5215    1.9951   27.0017 C.ar    1  UNL1       -0.0206
     10 C         -26.3228    1.3026   26.0810 C.3     1  UNL1        0.0311
     11 N         -24.9099    2.4927   30.4484 N.pl3   1  UNL1       -0.1918
     12 C         -24.3918    2.7315   26.4718 C.ar    1  UNL1       -0.0042
     13 C         -23.4517    3.3478   27.1925 C.ar    1  UNL1        0.0010
     14 C         -23.7109    3.2714   28.6004 C.ar    1  UNL1        0.0165
     15 O         -30.0377   -1.0978   30.1061 O.3     1  UNL1       -0.2866
     16 C         -24.7435    2.4599   31.5551 C.2     1  UNL1        0.1856
     17 N         -25.6845    2.6695   32.3201 N.2     1  UNL1       -0.2247
     18 C         -26.3152    1.6801   33.1356 C.2     1  UNL1        0.1005
     19 C         -27.3742    2.1019   33.9991 C.2     1  UNL1        0.0207
     20 C         -27.6995    3.4582   33.9897 C.2     1  UNL1        0.0016
     21 C         -27.0189    4.4307   33.3344 C.2     1  UNL1        0.0001
@<TRIPOS>BOND
     1     3     7    1
     2     9    10    1
     3     8    11    1
     4     6    15    1
     5    11    16    1
     6    16    17    2
     7    17    18    1
     8    18    19    2
     9    19    20    1
    10    20    21    2
    11     1     2   ar
    12     2     3   ar
    13     3     4   ar
    14     4     5   ar
    15     5     6   ar
    16     6     1   ar
    17     7     8   ar
    18     8    14   ar
    19    14    13   ar
    20    13    12   ar
    21    12     9   ar
    22     9     7   ar
