@<TRIPOS>MOLECULE
No_4151-gen_results/8p0m/2024-11-27-11-27-31/
 14 15 0 0 0
SMALL
GASTEIGER

@<TRIPOS>ATOM
      1 C         -28.0162   -0.8135   28.8779 C.ar    1  UNL1        0.0372
      2 C         -27.0636   -0.1190   28.6079 C.ar    1  UNL1        0.1417
      3 C         -26.9287    1.1713   29.0083 C.ar    1  UNL1        0.0168
      4 C         -27.9560    1.7411   29.7840 C.ar    1  UNL1       -0.0009
      5 C         -29.0569   -0.3271   29.7466 C.ar    1  UNL1        0.0031
      6 C         -28.9828    0.9722   30.1516 C.ar    1  UNL1       -0.0001
      7 O         -25.9911   -0.6119   27.8566 O.3     1  UNL1       -0.4511
      8 C         -25.0310    0.1531   27.2539 C.2     1  UNL1        0.1794
      9 C         -24.8348    1.3807   27.4783 C.2     1  UNL1        0.0911
     10 C         -25.9055    1.9830   28.3929 C.3     1  UNL1        0.0629
     11 C         -23.7828    2.1196   26.9380 C.3     1  UNL1        0.4181
     12 F         -23.2761    1.9612   26.0620 F       1  UNL1       -0.1660
     13 F         -24.1275    3.5364   27.0292 F       1  UNL1       -0.1660
     14 F         -22.7262    2.2418   27.9110 F       1  UNL1       -0.1660
@<TRIPOS>BOND
     1     2     7    1
     2     7     8    1
     3     8     9    2
     4     3    10    1
     5     9    10    1
     6     9    11    1
     7    11    12    1
     8    11    13    1
     9    11    14    1
    10     1     2   ar
    11     2     3   ar
    12     3     4   ar
    13     4     6   ar
    14     6     5   ar
    15     5     1   ar
