@<TRIPOS>MOLECULE
outputs/IAG933/test6/raw/output_4152_IAG933_linker_design_.xyz
 39 43 0 0 0
SMALL
GASTEIGER

@<TRIPOS>ATOM
      1 C         -24.8550   -1.0120   30.1430 C.3     1  UNL1        0.1137
      2 C         -24.9730   -2.5050   29.7880 C.2     1  UNL1       -0.0029
      3 C         -23.9060   -3.1730   29.1460 C.2     1  UNL1       -0.0026
      4 C         -23.9890   -4.5490   28.8530 C.2     1  UNL1       -0.0003
      5 C         -25.1370   -5.2800   29.2050 C.2     1  UNL1       -0.0000
      6 C         -26.2320   -4.6110   29.7840 C.2     1  UNL1       -0.0003
      7 C         -26.1550   -3.2320   30.0650 C.2     1  UNL1       -0.0026
      8 C         -25.3870   -0.6790   31.5710 C.3     1  UNL1        0.0951
      9 C         -25.1890    0.7730   32.0280 C.3     1  UNL1        0.0209
     10 C         -25.3360    0.6840   33.5440 C.3     1  UNL1        0.0203
     11 C         -24.8290   -0.7150   33.9050 C.3     1  UNL1        0.0888
     12 N         -24.7580   -1.4810   32.6460 N.3     1  UNL1       -0.2174
     13 C         -25.6880    1.6140   26.4610 C.2     1  UNL1        0.0291
     14 C         -26.2500    2.9200   26.3950 C.2     1  UNL1        0.0732
     15 C         -25.6420    4.0930   27.1230 C.2     1  UNL1        0.2661
     16 N         -25.6140    5.2520   26.4490 N.am    1  UNL1       -0.1997
     17 C         -25.0260    6.4790   26.9630 C.3     1  UNL1        0.1388
     18 O         -25.1430    3.9660   28.2430 O.2     1  UNL1       -0.2683
     19 C         -27.4380    3.0910   25.6450 C.2     1  UNL1        0.1064
     20 N         -28.0750    2.0890   25.0030 N.2     1  UNL1       -0.2081
     21 C         -27.5430    0.8490   25.0790 C.2     1  UNL1        0.2530
     22 O         -28.1930   -0.2080   24.4770 O.2     1  UNL1       -0.4558
     23 C         -29.4600    0.0050   23.8660 C.3     1  UNL1        0.2426
     24 C         -30.0650   -1.3770   23.5730 C.3     1  UNL1        0.2292
     25 O         -30.7290   -1.8780   24.7210 O.3     1  UNL1       -0.2162
     26 C         -26.3540    0.5760   25.7770 C.2     1  UNL1        0.1897
     27 F         -25.8600   -0.6810   25.7950 F       1  UNL1       -0.1996
     28 C         -22.0944    0.4336   28.4773 C.3     1  UNL1        0.0496
     29 O         -26.4896   -0.0497   28.3392 O.2     1  UNL1       -0.2743
     30 C         -22.6089    2.9448   24.6583 C.3     1  UNL1        0.1769
     31 O         -23.6023    2.2016   25.2065 O.3     1  UNL1       -0.3272
     32 C         -25.3396    0.2832   28.1942 C.2     1  UNL1        0.2345
     33 C         -24.6707    1.3211   27.2870 C.3     1  UNL1        0.1576
     34 C         -23.0337    0.0820   29.0250 C.3     1  UNL1        0.0782
     35 O         -21.8334    1.8453   26.5921 O.3     1  UNL1       -0.3299
     36 N         -24.3518   -0.2367   29.2036 N.am    1  UNL1       -0.2772
     37 C         -23.3164    1.9011   26.5718 C.3     1  UNL1        0.2483
     38 C         -22.1535   -0.0717   29.3957 C.3     1  UNL1        0.0241
     39 C         -21.2267    1.2954   27.7288 C.3     1  UNL1        0.1464
@<TRIPOS>BOND
     1     1     2    1
     2     2     7    1
     3     3     2    2
     4     4     3    1
     5     4     5    2
     6     5     6    1
     7     6     7    2
     8     8     1    1
     9     8     9    1
    10     8    12    1
    11     9    10    1
    12    10    11    1
    13    12    11    1
    14    14    13    1
    15    14    15    1
    16    15    18    2
    17    16    17    1
    18    16    15    1
    19    19    14    2
    20    20    21    2
    21    20    19    1
    22    21    26    1
    23    22    21    1
    24    23    22    1
    25    24    23    1
    26    24    25    1
    27    26    27    1
    28    26    13    2
    29    28    39    1
    30    28    34    1
    31    28    38    1
    32    30    31    1
    33    32    29    2
    34    32    36   am
    35    33    13    1
    36    33    32    1
    37    34    36    1
    38    34    38    1
    39    35    39    1
    40    36     1    1
    41    37    31    1
    42    37    35    1
    43    37    33    1
