@<TRIPOS>MOLECULE
outputs/IAG933/test6/raw/output_4153_IAG933_linker_design_.xyz
 47 52 0 0 0
SMALL
GASTEIGER

@<TRIPOS>ATOM
      1 C         -24.8550   -1.0120   30.1430 C.3     1  UNL1        0.0637
      2 C         -24.9730   -2.5050   29.7880 C.2     1  UNL1       -0.0170
      3 C         -23.9060   -3.1730   29.1460 C.2     1  UNL1       -0.0039
      4 C         -23.9890   -4.5490   28.8530 C.2     1  UNL1       -0.0003
      5 C         -25.1370   -5.2800   29.2050 C.2     1  UNL1       -0.0000
      6 C         -26.2320   -4.6110   29.7840 C.2     1  UNL1       -0.0003
      7 C         -26.1550   -3.2320   30.0650 C.2     1  UNL1       -0.0039
      8 C         -25.3870   -0.6790   31.5710 C.3     1  UNL1        0.0810
      9 C         -25.1890    0.7730   32.0280 C.3     1  UNL1        0.0195
     10 C         -25.3360    0.6840   33.5440 C.3     1  UNL1        0.0203
     11 C         -24.8290   -0.7150   33.9050 C.3     1  UNL1        0.0887
     12 N         -24.7580   -1.4810   32.6460 N.3     1  UNL1       -0.2188
     13 C         -25.6880    1.6140   26.4610 C.2     1  UNL1        0.0420
     14 C         -26.2500    2.9200   26.3950 C.2     1  UNL1        0.0767
     15 C         -25.6420    4.0930   27.1230 C.2     1  UNL1        0.2664
     16 N         -25.6140    5.2520   26.4490 N.am    1  UNL1       -0.1997
     17 C         -25.0260    6.4790   26.9630 C.3     1  UNL1        0.1388
     18 O         -25.1430    3.9660   28.2430 O.2     1  UNL1       -0.2683
     19 C         -27.4380    3.0910   25.6450 C.2     1  UNL1        0.1067
     20 N         -28.0750    2.0890   25.0030 N.2     1  UNL1       -0.2081
     21 C         -27.5430    0.8490   25.0790 C.2     1  UNL1        0.2533
     22 O         -28.1930   -0.2080   24.4770 O.2     1  UNL1       -0.4558
     23 C         -29.4600    0.0050   23.8660 C.3     1  UNL1        0.2426
     24 C         -30.0650   -1.3770   23.5730 C.3     1  UNL1        0.2292
     25 O         -30.7290   -1.8780   24.7210 O.3     1  UNL1       -0.2162
     26 C         -26.3540    0.5760   25.7770 C.2     1  UNL1        0.1932
     27 F         -25.8600   -0.6810   25.7950 F       1  UNL1       -0.1992
     28 CL        -22.8042    2.3385   25.6289 Cl      1  UNL1       -0.0798
     29 F         -21.1202    1.5000   28.0084 F       1  UNL1       -0.2033
     30 N         -27.6116    4.5775   32.0983 N.pl3   1  UNL1       -0.2787
     31 C         -28.1046    4.1677   30.7764 C.3     1  UNL1        0.1236
     32 C         -25.0857    2.9902   31.0114 C.2     1  UNL1        0.1131
     33 C         -26.2653    4.4300   32.6708 C.2     1  UNL1        0.0915
     34 C         -25.0456    0.8532   28.6114 C.2     1  UNL1        0.1702
     35 C         -27.5643    2.7847   30.3755 C.3     1  UNL1        0.1662
     36 O         -27.2006    4.6447   34.9045 O.2     1  UNL1       -0.4447
     37 C         -24.6479    1.3460   27.4106 C.2     1  UNL1        0.0521
     38 C         -28.3028    5.2468   34.3035 C.2     1  UNL1        0.1958
     39 C         -28.5889    5.1220   32.8921 C.2     1  UNL1        0.1068
     40 C         -22.7952    0.1191   28.9840 C.2     1  UNL1        0.0297
     41 N         -26.1651    2.3387   30.3829 N.3     1  UNL1       -0.1921
     42 C         -25.0309    4.0177   31.9726 C.2     1  UNL1        0.0397
     43 C         -23.2975    1.5774   27.1080 C.2     1  UNL1        0.0881
     44 C         -26.0972    4.4576   34.1118 C.2     1  UNL1        0.1944
     45 C         -22.3984    1.0632   28.0401 C.2     1  UNL1        0.1505
     46 C         -24.1843   -0.0381   29.2426 C.2     1  UNL1        0.0223
     47 O         -26.2167    1.1917   29.3935 O.2     1  UNL1       -0.3756
@<TRIPOS>BOND
     1     1    46    1
     2     2     7    1
     3     2     1    1
     4     3     2    2
     5     4     3    1
     6     4     5    2
     7     5     6    1
     8     6     7    2
     9     8     1    1
    10     8     9    1
    11     8    12    1
    12     9    10    1
    13    10    11    1
    14    12    11    1
    15    13    37    1
    16    14    13    1
    17    14    15    1
    18    15    18    2
    19    16    17    1
    20    16    15    1
    21    19    14    2
    22    20    21    2
    23    20    19    1
    24    21    26    1
    25    22    21    1
    26    23    22    1
    27    24    23    1
    28    24    25    1
    29    26    27    1
    30    26    13    2
    31    28    43    1
    32    29    45    1
    33    30    33    1
    34    30    39    1
    35    31    30    1
    36    32    42    2
    37    33    44    2
    38    34    46    1
    39    34    47    1
    40    35    41    1
    41    35    31    1
    42    37    34    2
    43    38    36    1
    44    39    38    2
    45    40    46    2
    46    41    32    1
    47    42    33    1
    48    43    37    1
    49    43    45    2
    50    44    36    1
    51    45    40    1
    52    47    41    1
