@<TRIPOS>MOLECULE
outputs/IAG933/test6/raw/output_4154_IAG933_linker_design_.xyz
 44 49 0 0 0
SMALL
GASTEIGER

@<TRIPOS>ATOM
      1 C         -24.8550   -1.0120   30.1430 C.3     1  UNL1        0.0438
      2 C         -24.9730   -2.5050   29.7880 C.2     1  UNL1       -0.0208
      3 C         -23.9060   -3.1730   29.1460 C.2     1  UNL1       -0.0042
      4 C         -23.9890   -4.5490   28.8530 C.2     1  UNL1       -0.0003
      5 C         -25.1370   -5.2800   29.2050 C.2     1  UNL1       -0.0000
      6 C         -26.2320   -4.6110   29.7840 C.2     1  UNL1       -0.0003
      7 C         -26.1550   -3.2320   30.0650 C.2     1  UNL1       -0.0042
      8 C         -25.3870   -0.6790   31.5710 C.3     1  UNL1        0.0788
      9 C         -25.1890    0.7730   32.0280 C.3     1  UNL1        0.0379
     10 C         -25.3360    0.6840   33.5440 C.3     1  UNL1        0.0219
     11 C         -24.8290   -0.7150   33.9050 C.3     1  UNL1        0.0888
     12 N         -24.7580   -1.4810   32.6460 N.3     1  UNL1       -0.2191
     13 C         -25.6880    1.6140   26.4610 C.3     1  UNL1        0.1020
     14 C         -26.2500    2.9200   26.3950 C.2     1  UNL1        0.0573
     15 C         -25.6420    4.0930   27.1230 C.2     1  UNL1        0.2625
     16 N         -25.6140    5.2520   26.4490 N.am    1  UNL1       -0.2000
     17 C         -25.0260    6.4790   26.9630 C.3     1  UNL1        0.1388
     18 O         -25.1430    3.9660   28.2430 O.2     1  UNL1       -0.2687
     19 C         -27.4380    3.0910   25.6450 C.2     1  UNL1        0.1022
     20 N         -28.0750    2.0890   25.0030 N.2     1  UNL1       -0.2119
     21 C         -27.5430    0.8490   25.0790 C.2     1  UNL1        0.2342
     22 O         -28.1930   -0.2080   24.4770 O.2     1  UNL1       -0.4585
     23 C         -29.4600    0.0050   23.8660 C.3     1  UNL1        0.2423
     24 C         -30.0650   -1.3770   23.5730 C.3     1  UNL1        0.2292
     25 O         -30.7290   -1.8780   24.7210 O.3     1  UNL1       -0.2162
     26 C         -26.3540    0.5760   25.7770 C.3     1  UNL1        0.2425
     27 F         -25.8600   -0.6810   25.7950 F       1  UNL1       -0.2268
     28 C         -24.8251    5.1245   33.9453 C.3     1  UNL1        0.1513
     29 C         -24.2338    1.5564   26.6639 C.3     1  UNL1        0.1806
     30 C         -22.9409    0.5505   29.8903 C.3     1  UNL1        0.1307
     31 O         -25.5127    6.3302   33.9977 O.3     1  UNL1       -0.3532
     32 N         -24.9217    2.9985   30.7938 N.am    1  UNL1       -0.2070
     33 C         -22.2179    1.3523   27.7740 C.2     1  UNL1        0.2404
     34 O         -23.0790    1.7760   25.6860 O.3     1  UNL1       -0.1732
     35 C         -25.3494    3.7535   31.9253 C.2     1  UNL1        0.2434
     36 C         -25.0706    1.5147   30.5947 C.3     1  UNL1        0.0991
     37 O         -26.4407    3.5089   32.4605 O.2     1  UNL1       -0.2733
     38 N         -21.7592    0.6585   29.1015 N.2     1  UNL1       -0.2386
     39 O         -21.7931    1.6246   26.4996 O.2     1  UNL1       -0.3187
     40 C         -24.3868    4.9301   32.4168 C.3     1  UNL1        0.1102
     41 C         -25.4984    7.0725   32.7685 C.3     1  UNL1        0.1428
     42 C         -23.6030    1.5148   27.9295 C.3     1  UNL1        0.1149
     43 C         -25.1063    6.0304   31.6889 C.3     1  UNL1        0.0437
     44 C         -24.1104    1.1708   29.2405 C.3     1  UNL1        0.0559
@<TRIPOS>BOND
     1     2     7    1
     2     2     1    1
     3     3     2    2
     4     4     3    1
     5     4     5    2
     6     5     6    1
     7     6     7    2
     8     8     1    1
     9     8     9    1
    10     8    12    1
    11     9    36    1
    12     9    10    1
    13    10    11    1
    14    12    11    1
    15    13    14    1
    16    13    29    1
    17    14    15    1
    18    15    18    2
    19    16    17    1
    20    16    15    1
    21    19    14    2
    22    20    21    2
    23    20    19    1
    24    21    26    1
    25    22    21    1
    26    23    22    1
    27    24    23    1
    28    24    25    1
    29    26    27    1
    30    26    13    1
    31    28    31    1
    32    29    34    1
    33    29    42    1
    34    32    35    1
    35    33    38    2
    36    34    39    1
    37    35    37    2
    38    36    32    1
    39    38    30    1
    40    39    33    1
    41    40    35    1
    42    40    28    1
    43    41    31    1
    44    42    33    1
    45    42    44    1
    46    43    40    1
    47    43    41    1
    48    44    30    1
    49    44    36    1
