@<TRIPOS>MOLECULE
No_4157-gen_results/8p0m/2024-11-27-11-27-31/
 15 16 0 0 0
SMALL
GASTEIGER

@<TRIPOS>ATOM
      1 C         -28.0162   -0.8135   28.8779 C.3     1  UNL1        0.0323
      2 C         -28.4690   -0.7850   29.8287 C.3     1  UNL1        0.0446
      3 C         -27.0871    0.2903   28.6377 C.ar    1  UNL1       -0.0218
      4 C         -26.0239    0.3644   29.2526 C.ar    1  UNL1       -0.0043
      5 C         -24.9536    1.2658   28.9526 C.ar    1  UNL1       -0.0003
      6 C         -29.4201   -1.9635   30.1650 C.ar    1  UNL1        0.0590
      7 C         -25.0087    2.0124   27.7636 C.ar    1  UNL1       -0.0000
      8 C         -26.1211    1.8564   26.9530 C.ar    1  UNL1       -0.0003
      9 C         -27.0881    0.9401   27.3008 C.ar    1  UNL1       -0.0043
     10 C         -29.5446   -2.3933   31.3972 C.ar    1  UNL1        0.0147
     11 C         -30.3239   -3.6001   31.6673 C.ar    1  UNL1        0.0028
     12 C         -30.8782   -4.2613   30.5953 C.ar    1  UNL1        0.0207
     13 C         -30.7115   -3.7711   29.3393 C.ar    1  UNL1        0.0984
     14 N         -29.9650   -2.6867   29.2087 N.ar    1  UNL1       -0.2482
     15 C         -27.9642   -0.4184   31.1815 C.3     1  UNL1        0.0066
@<TRIPOS>BOND
     1     1     2    1
     2     1     3    1
     3     2     6    1
     4     2    15    1
     5     3     4   ar
     6     4     5   ar
     7     5     7   ar
     8     7     8   ar
     9     8     9   ar
    10     9     3   ar
    11     6    10   ar
    12    10    11   ar
    13    11    12   ar
    14    12    13   ar
    15    13    14   ar
    16    14     6   ar
