@<TRIPOS>MOLECULE
outputs/IAG933/test6/raw/output_4158_IAG933_linker_design_.xyz
 46 50 0 0 0
SMALL
GASTEIGER

@<TRIPOS>ATOM
      1 C         -24.8550   -1.0120   30.1430 C.3     1  UNL1        0.1350
      2 C         -24.9730   -2.5050   29.7880 C.2     1  UNL1       -0.0010
      3 C         -23.9060   -3.1730   29.1460 C.2     1  UNL1       -0.0026
      4 C         -23.9890   -4.5490   28.8530 C.2     1  UNL1       -0.0003
      5 C         -25.1370   -5.2800   29.2050 C.2     1  UNL1       -0.0000
      6 C         -26.2320   -4.6110   29.7840 C.2     1  UNL1       -0.0003
      7 C         -26.1550   -3.2320   30.0650 C.2     1  UNL1       -0.0026
      8 C         -25.3870   -0.6790   31.5710 C.3     1  UNL1        0.1219
      9 C         -25.1890    0.7730   32.0280 C.2     1  UNL1        0.0089
     10 C         -25.3360    0.6840   33.5440 C.3     1  UNL1        0.0500
     11 C         -24.8290   -0.7150   33.9050 C.3     1  UNL1        0.0941
     12 N         -24.7580   -1.4810   32.6460 N.3     1  UNL1       -0.2123
     13 C         -25.6880    1.6140   26.4610 C.3     1  UNL1        0.1621
     14 C         -26.2500    2.9200   26.3950 C.2     1  UNL1        0.0747
     15 C         -25.6420    4.0930   27.1230 C.2     1  UNL1        0.2641
     16 N         -25.6140    5.2520   26.4490 N.am    1  UNL1       -0.1999
     17 C         -25.0260    6.4790   26.9630 C.3     1  UNL1        0.1388
     18 O         -25.1430    3.9660   28.2430 O.2     1  UNL1       -0.2686
     19 C         -27.4380    3.0910   25.6450 C.2     1  UNL1        0.1038
     20 N         -28.0750    2.0890   25.0030 N.2     1  UNL1       -0.2118
     21 C         -27.5430    0.8490   25.0790 C.2     1  UNL1        0.2359
     22 O         -28.1930   -0.2080   24.4770 O.2     1  UNL1       -0.4585
     23 C         -29.4600    0.0050   23.8660 C.3     1  UNL1        0.2423
     24 C         -30.0650   -1.3770   23.5730 C.3     1  UNL1        0.2292
     25 O         -30.7290   -1.8780   24.7210 O.3     1  UNL1       -0.2162
     26 C         -26.3540    0.5760   25.7770 C.3     1  UNL1        0.2598
     27 F         -25.8600   -0.6810   25.7950 F       1  UNL1       -0.2250
     28 O         -25.2723    8.1517   32.4704 O.2     1  UNL1       -0.3670
     29 C         -25.0009    2.3558   31.9851 C.1     1  UNL1       -0.1129
     30 N         -24.8124    0.1451   29.4013 N.pl3   1  UNL1       -0.2318
     31 C         -23.5923    0.4902   28.7638 C.2     1  UNL1        0.0801
     32 C         -22.8444    1.6033   26.8503 C.2     1  UNL1       -0.0057
     33 C         -25.2417    3.9014   32.1273 C.2     1  UNL1        0.0161
     34 C         -25.5423    6.1171   31.1542 C.2     1  UNL1        0.0395
     35 C         -22.2749    0.2182   29.1405 C.2     1  UNL1        0.0174
     36 C         -21.2362    0.6973   28.3566 C.2     1  UNL1        0.0011
     37 C         -21.5206    1.4141   27.1939 C.2     1  UNL1       -0.0029
     38 C         -25.6424    4.7100   31.0779 C.2     1  UNL1        0.0068
     39 C         -23.8023    1.1883   27.6502 C.2     1  UNL1        0.0765
     40 C         -24.9416    4.5366   33.3556 C.3     1  UNL1        0.0633
     41 C         -25.2100    6.7382   32.3585 C.2     1  UNL1        0.1650
     42 N         -25.9677    8.7603   31.5457 N.3     1  UNL1        0.0898
     43 N         -26.9991    8.2196   30.8769 N.3     1  UNL1        0.0223
     44 C         -23.0766    2.2988   25.4922 C.3     1  UNL1        0.0324
     45 N         -24.9018    1.3938   27.2990 N.pl3   1  UNL1       -0.2304
     46 C         -24.8952    5.9331   33.4823 C.2     1  UNL1        0.0187
@<TRIPOS>BOND
     1     1    30    1
     2     2     7    1
     3     2     1    1
     4     3     2    2
     5     4     3    1
     6     4     5    2
     7     5     6    1
     8     6     7    2
     9     8     1    1
    10     8     9    1
    11     8    12    1
    12     9    10    1
    13    10    11    1
    14    12    11    1
    15    13    45    1
    16    14    13    1
    17    14    15    1
    18    15    18    2
    19    16    17    1
    20    16    15    1
    21    19    14    2
    22    20    21    2
    23    20    19    1
    24    21    26    1
    25    22    21    1
    26    23    22    1
    27    24    23    1
    28    24    25    1
    29    26    27    1
    30    26    13    1
    31    29     9    2
    32    29    33    2
    33    31    35    1
    34    31    30    1
    35    32    37    2
    36    32    39    1
    37    33    40    1
    38    34    41    1
    39    36    35    2
    40    37    36    1
    41    38    34    2
    42    38    33    1
    43    39    31    2
    44    40    46    1
    45    41    28    1
    46    41    46    2
    47    42    28    1
    48    43    42    1
    49    44    32    1
    50    45    39    1
