@<TRIPOS>MOLECULE
outputs/IAG933/test6/raw/output_4159_IAG933_linker_design_.xyz
 44 47 0 0 0
SMALL
GASTEIGER

@<TRIPOS>ATOM
      1 C         -24.8550   -1.0120   30.1430 C.3     1  UNL1        0.1153
      2 C         -24.9730   -2.5050   29.7880 C.2     1  UNL1       -0.0029
      3 C         -23.9060   -3.1730   29.1460 C.2     1  UNL1       -0.0026
      4 C         -23.9890   -4.5490   28.8530 C.2     1  UNL1       -0.0003
      5 C         -25.1370   -5.2800   29.2050 C.2     1  UNL1       -0.0000
      6 C         -26.2320   -4.6110   29.7840 C.2     1  UNL1       -0.0003
      7 C         -26.1550   -3.2320   30.0650 C.2     1  UNL1       -0.0026
      8 C         -25.3870   -0.6790   31.5710 C.3     1  UNL1        0.0952
      9 C         -25.1890    0.7730   32.0280 C.3     1  UNL1        0.0209
     10 C         -25.3360    0.6840   33.5440 C.3     1  UNL1        0.0203
     11 C         -24.8290   -0.7150   33.9050 C.3     1  UNL1        0.0888
     12 N         -24.7580   -1.4810   32.6460 N.3     1  UNL1       -0.2174
     13 C         -25.6880    1.6140   26.4610 C.2     1  UNL1        0.0884
     14 C         -26.2500    2.9200   26.3950 C.2     1  UNL1        0.0899
     15 C         -25.6420    4.0930   27.1230 C.2     1  UNL1        0.2676
     16 N         -25.6140    5.2520   26.4490 N.am    1  UNL1       -0.1997
     17 C         -25.0260    6.4790   26.9630 C.3     1  UNL1        0.1388
     18 O         -25.1430    3.9660   28.2430 O.2     1  UNL1       -0.2683
     19 C         -27.4380    3.0910   25.6450 C.2     1  UNL1        0.1080
     20 N         -28.0750    2.0890   25.0030 N.2     1  UNL1       -0.2080
     21 C         -27.5430    0.8490   25.0790 C.2     1  UNL1        0.2546
     22 O         -28.1930   -0.2080   24.4770 O.2     1  UNL1       -0.4558
     23 C         -29.4600    0.0050   23.8660 C.3     1  UNL1        0.2426
     24 C         -30.0650   -1.3770   23.5730 C.3     1  UNL1        0.2292
     25 O         -30.7290   -1.8780   24.7210 O.3     1  UNL1       -0.2162
     26 C         -26.3540    0.5760   25.7770 C.2     1  UNL1        0.2063
     27 F         -25.8600   -0.6810   25.7950 F       1  UNL1       -0.1979
     28 C         -22.4536    0.9849   27.7335 C.3     1  UNL1        0.2279
     29 N         -25.4020   -0.0156   29.1300 N.am    1  UNL1       -0.2592
     30 C         -29.9859    4.5634   30.2770 C.3     1  UNL1        0.1423
     31 C         -31.3537    6.3894   31.0045 C.3     1  UNL1        0.1741
     32 C         -28.5723    2.3785   30.2418 C.3     1  UNL1        0.0121
     33 C         -26.8748    0.4254   29.2115 C.2     1  UNL1        0.2270
     34 O         -30.0581    5.8426   30.8277 O.3     1  UNL1       -0.3511
     35 C         -28.5979    3.9312   30.2603 C.3     1  UNL1        0.0326
     36 O         -22.4268   -0.4378   29.2634 O.3     1  UNL1       -0.2164
     37 C         -23.2979    2.1597   27.1135 C.3     1  UNL1        0.1906
     38 N         -24.4460    1.3316   27.0999 N.pl3   1  UNL1       -0.2751
     39 O         -27.6476   -0.3996   28.8767 O.2     1  UNL1       -0.2748
     40 C         -22.9213    0.6390   28.5590 C.3     1  UNL1        0.2243
     41 C         -27.2709    1.9194   29.6164 C.3     1  UNL1        0.0854
     42 C         -24.4383    0.1645   28.1467 C.3     1  UNL1        0.1874
     43 CL        -22.7115    2.6497   25.6034 Cl      1  UNL1       -0.0897
     44 F         -21.0808    1.5162   27.5646 F       1  UNL1       -0.2312
@<TRIPOS>BOND
     1     1    29    1
     2     2     7    1
     3     2     1    1
     4     3     2    2
     5     4     3    1
     6     4     5    2
     7     5     6    1
     8     6     7    2
     9     8     1    1
    10     8     9    1
    11     8    12    1
    12     9    10    1
    13    10    11    1
    14    12    11    1
    15    13    38    1
    16    14    13    1
    17    14    15    1
    18    15    18    2
    19    16    17    1
    20    16    15    1
    21    19    14    2
    22    20    21    2
    23    20    19    1
    24    21    26    1
    25    22    21    1
    26    23    22    1
    27    24    23    1
    28    24    25    1
    29    26    27    1
    30    26    13    2
    31    28    44    1
    32    28    40    1
    33    29    33   am
    34    30    34    1
    35    32    35    1
    36    33    41    1
    37    34    31    1
    38    35    30    1
    39    37    43    1
    40    37    28    1
    41    38    37    1
    42    38    42    1
    43    39    33    2
    44    40    36    1
    45    41    32    1
    46    42    40    1
    47    42    29    1
