@<TRIPOS>MOLECULE
No_4161-gen_results/8p0m/2024-11-27-11-27-31/
 21 21 0 0 0
SMALL
GASTEIGER

@<TRIPOS>ATOM
      1 C         -28.0162   -0.8135   28.8779 C.3     1  UNL1        0.3410
      2 C         -27.0636   -0.1189   28.6079 C.ar    1  UNL1        0.0433
      3 C         -26.8756    1.1325   28.9134 C.ar    1  UNL1       -0.0012
      4 C         -25.6883    1.9515   28.5672 C.ar    1  UNL1        0.0056
      5 C         -24.6394    1.2834   27.8753 C.ar    1  UNL1        0.0775
      6 C         -24.8068   -0.0513   27.6040 C.ar    1  UNL1        0.0062
      7 C         -25.9019   -0.7670   27.9511 C.ar    1  UNL1        0.0013
      8 F         -29.0651   -0.4171   28.3436 F       1  UNL1       -0.1933
      9 F         -28.2631   -0.8466   30.2895 F       1  UNL1       -0.1933
     10 C         -23.4268    1.9693   27.5073 C.2     1  UNL1        0.3875
     11 O         -22.3284    1.6876   27.9259 O.co2   1  UNL1       -0.2406
     12 O         -23.4906    2.6521   26.2913 O.co2   1  UNL1       -0.2406
     13 C         -25.5458    3.3748   28.9057 C.3     1  UNL1        0.1388
     14 N         -26.6953    3.9717   28.9615 N.pl3   1  UNL1       -0.2315
     15 C         -26.8827    5.2079   28.8152 C.2     1  UNL1        0.0805
     16 C         -25.7943    5.9421   28.7002 C.2     1  UNL1        0.0174
     17 C         -25.8373    7.3889   28.8233 C.2     1  UNL1        0.0014
     18 C         -24.6227    8.0840   29.1354 C.2     1  UNL1       -0.0003
     19 C         -24.5256    9.0692   30.0444 C.2     1  UNL1       -0.0046
     20 C         -25.7055    9.7335   30.4554 C.2     1  UNL1       -0.0258
     21 C         -26.8916    9.0981   30.1295 C.3     1  UNL1        0.0307
@<TRIPOS>BOND
     1     1     8    1
     2     1     9    1
     3     5    10    1
     4    10    11   ar
     5    10    12   ar
     6     4    13    1
     7    13    14    1
     8    14    15    1
     9    15    16    2
    10    16    17    1
    11    17    18    2
    12    18    19    1
    13    19    20    2
    14    20    21    1
    15     1     2    1
    16     2     3   ar
    17     3     4   ar
    18     4     5   ar
    19     5     6   ar
    20     6     7   ar
    21     7     2   ar
