@<TRIPOS>MOLECULE
outputs/IAG933/test6/raw/output_4162_IAG933_linker_design_.xyz
 45 49 0 0 0
SMALL
GASTEIGER

@<TRIPOS>ATOM
      1 C         -24.8550   -1.0120   30.1430 C.3     1  UNL1        0.0441
      2 C         -24.9730   -2.5050   29.7880 C.2     1  UNL1       -0.0208
      3 C         -23.9060   -3.1730   29.1460 C.2     1  UNL1       -0.0042
      4 C         -23.9890   -4.5490   28.8530 C.2     1  UNL1       -0.0003
      5 C         -25.1370   -5.2800   29.2050 C.2     1  UNL1       -0.0000
      6 C         -26.2320   -4.6110   29.7840 C.2     1  UNL1       -0.0003
      7 C         -26.1550   -3.2320   30.0650 C.2     1  UNL1       -0.0042
      8 C         -25.3870   -0.6790   31.5710 C.3     1  UNL1        0.0842
      9 C         -25.1890    0.7730   32.0280 C.3     1  UNL1        0.0748
     10 C         -25.3360    0.6840   33.5440 C.3     1  UNL1        0.0277
     11 C         -24.8290   -0.7150   33.9050 C.3     1  UNL1        0.0892
     12 N         -24.7580   -1.4810   32.6460 N.3     1  UNL1       -0.2187
     13 C         -25.6880    1.6140   26.4610 C.3     1  UNL1        0.0792
     14 C         -26.2500    2.9200   26.3950 C.2     1  UNL1        0.0553
     15 C         -25.6420    4.0930   27.1230 C.2     1  UNL1        0.2625
     16 N         -25.6140    5.2520   26.4490 N.am    1  UNL1       -0.2000
     17 C         -25.0260    6.4790   26.9630 C.3     1  UNL1        0.1388
     18 O         -25.1430    3.9660   28.2430 O.2     1  UNL1       -0.2687
     19 C         -27.4380    3.0910   25.6450 C.2     1  UNL1        0.1022
     20 N         -28.0750    2.0890   25.0030 N.2     1  UNL1       -0.2119
     21 C         -27.5430    0.8490   25.0790 C.2     1  UNL1        0.2341
     22 O         -28.1930   -0.2080   24.4770 O.2     1  UNL1       -0.4585
     23 C         -29.4600    0.0050   23.8660 C.3     1  UNL1        0.2423
     24 C         -30.0650   -1.3770   23.5730 C.3     1  UNL1        0.2292
     25 O         -30.7290   -1.8780   24.7210 O.3     1  UNL1       -0.2162
     26 C         -26.3540    0.5760   25.7770 C.3     1  UNL1        0.2405
     27 F         -25.8600   -0.6810   25.7950 F       1  UNL1       -0.2269
     28 C         -30.1043    6.5130   32.0508 C.3     1  UNL1        0.2087
     29 C         -28.6324    4.4019   31.8247 C.2     1  UNL1        0.0357
     30 C         -25.5444    0.9311   28.9525 C.3     1  UNL1        0.0385
     31 C         -26.0378    1.7847   31.2729 C.2     1  UNL1        0.1195
     32 C         -23.3374    1.4221   27.5129 C.2     1  UNL1        0.1961
     33 C         -27.8418    5.4182   29.3230 C.2     1  UNL1        0.0029
     34 C         -27.4589    4.1396   29.7856 C.2     1  UNL1        0.0375
     35 C         -21.2261    1.0946   27.8829 C.3     1  UNL1        0.1755
     36 O         -26.7511    2.8290   31.8922 O.2     1  UNL1       -0.4581
     37 C         -26.1408    1.6501   29.9639 C.2     1  UNL1        0.0073
     38 C         -28.6637    6.1717   30.1468 C.2     1  UNL1       -0.0015
     39 C         -29.0947    5.6484   31.3556 C.2     1  UNL1        0.0136
     40 C         -24.7027    1.2163   27.5513 C.3     1  UNL1        0.0876
     41 O         -22.6998    2.5893   26.9739 O.2     1  UNL1       -0.4614
     42 C         -27.6525    3.6978   31.1387 C.2     1  UNL1        0.1446
     43 C         -21.3490    2.1614   27.0042 C.3     1  UNL1        0.2330
     44 O         -30.9906    7.0038   31.0705 O.3     1  UNL1       -0.2152
     45 N         -22.4358    0.5088   28.1167 N.2     1  UNL1       -0.2377
@<TRIPOS>BOND
     1     2     7    1
     2     2     1    1
     3     3     2    2
     4     4     3    1
     5     4     5    2
     6     5     6    1
     7     6     7    2
     8     8     1    1
     9     8     9    1
    10     8    12    1
    11     9    31    1
    12     9    10    1
    13    10    11    1
    14    12    11    1
    15    13    40    1
    16    14    13    1
    17    14    15    1
    18    15    18    2
    19    16    17    1
    20    16    15    1
    21    19    14    2
    22    20    21    2
    23    20    19    1
    24    21    26    1
    25    22    21    1
    26    23    22    1
    27    24    23    1
    28    24    25    1
    29    26    27    1
    30    26    13    1
    31    30    37    1
    32    31    36    1
    33    32    40    1
    34    32    45    2
    35    33    34    2
    36    33    38    1
    37    34    42    1
    38    35    45    1
    39    37    31    2
    40    38    39    2
    41    39    29    1
    42    39    28    1
    43    40    30    1
    44    41    43    1
    45    41    32    1
    46    42    29    2
    47    42    36    1
    48    43    35    1
    49    44    28    1
