@<TRIPOS>MOLECULE
No_4164-gen_results/8p0m/2024-11-27-11-27-31/
 19 21 0 0 0
SMALL
GASTEIGER

@<TRIPOS>ATOM
      1 C         -28.0162   -0.8135   28.8779 C.3     1  UNL1        0.0720
      2 C         -27.0636   -0.1189   28.6079 C.ar    1  UNL1        0.0634
      3 N         -25.8176   -0.3427   29.0487 N.ar    1  UNL1       -0.2478
      4 C         -24.6757    0.3814   28.7496 C.ar    1  UNL1        0.0991
      5 C         -24.7608    1.3095   27.7159 C.ar    1  UNL1        0.0288
      6 C         -27.1776    0.9693   27.6449 C.ar    1  UNL1        0.0151
      7 C         -26.0057    1.6898   27.2484 C.ar    1  UNL1        0.0033
      8 C         -29.2617   -0.1657   29.3386 C.ar    1  UNL1       -0.0162
      9 C         -29.5447   -0.1692   30.5700 C.ar    1  UNL1       -0.0039
     10 C         -30.1411    0.1992   28.2897 C.ar    1  UNL1       -0.0039
     11 C         -31.4496    0.5903   28.6043 C.ar    1  UNL1       -0.0003
     12 C         -30.8681    0.3740   30.9698 C.ar    1  UNL1       -0.0003
     13 C         -31.7625    0.7400   29.9778 C.ar    1  UNL1       -0.0000
     14 C         -23.5645    2.0863   27.3978 C.ar    1  UNL1        0.0699
     15 C         -23.6198    3.2197   26.7298 C.ar    1  UNL1        0.0103
     16 C         -22.2539    1.5711   27.7634 C.1     1  UNL1        0.1005
     17 N         -21.3177    1.4195   28.1246 N.1     1  UNL1       -0.1908
     18 C         -26.0966    2.8193   26.3645 C.ar    1  UNL1        0.0001
     19 C         -24.8901    3.5719   26.0992 C.ar    1  UNL1        0.0007
@<TRIPOS>BOND
     1     1     2    1
     2     1     8    1
     3    14    16    1
     4    16    17    3
     5     2     3   ar
     6     3     4   ar
     7     4     5   ar
     8     7     6   ar
     9     6     2   ar
    10     8     9   ar
    11     9    12   ar
    12    12    13   ar
    13    13    11   ar
    14    11    10   ar
    15    10     8   ar
    16     5     7   ar
    17     7    18   ar
    18    18    19   ar
    19    19    15   ar
    20    15    14   ar
    21    14     5   ar
