@<TRIPOS>MOLECULE
No_4165-gen_results/8p0m/2024-11-27-11-27-31/
 13 14 0 0 0
SMALL
GASTEIGER

@<TRIPOS>ATOM
      1 C         -28.0162   -0.8135   28.8779 C.ar    1  UNL1       -0.0039
      2 C         -27.0636   -0.1189   28.6079 C.ar    1  UNL1       -0.0178
      3 C         -25.7647   -0.3897   29.0360 C.3     1  UNL1        0.0526
      4 C         -24.5516    0.4058   28.7646 C.ar    1  UNL1       -0.0178
      5 C         -23.2300    0.1178   29.2575 C.ar    1  UNL1       -0.0039
      6 C         -22.1393    0.9427   28.9224 C.ar    1  UNL1       -0.0003
      7 C         -29.3532   -0.3722   28.7487 C.ar    1  UNL1       -0.0003
      8 C         -29.5437    0.7689   27.9641 C.ar    1  UNL1       -0.0000
      9 C         -28.4686    1.4912   27.5169 C.ar    1  UNL1       -0.0003
     10 C         -27.1339    1.1511   27.8983 C.ar    1  UNL1       -0.0039
     11 C         -22.2782    1.9611   27.9367 C.ar    1  UNL1       -0.0000
     12 C         -23.5577    2.2272   27.4246 C.ar    1  UNL1       -0.0003
     13 C         -24.6453    1.4496   27.7654 C.ar    1  UNL1       -0.0039
@<TRIPOS>BOND
     1     2     3    1
     2     3     4    1
     3     1     2   ar
     4     2    10   ar
     5    10     9   ar
     6     9     8   ar
     7     8     7   ar
     8     7     1   ar
     9     4     5   ar
    10     5     6   ar
    11     6    11   ar
    12    11    12   ar
    13    12    13   ar
    14    13     4   ar
