@<TRIPOS>MOLECULE
No_4166-gen_results/8p0m/2024-11-27-11-27-31/
 10 10 0 0 0
SMALL
GASTEIGER

@<TRIPOS>ATOM
      1 C         -28.0162   -0.8135   28.8779 C.2     1  UNL1        0.0972
      2 C         -27.0636   -0.1189   28.6079 C.2     1  UNL1       -0.0262
      3 C         -25.7647   -0.3897   29.0360 C.3     1  UNL1        0.0235
      4 C         -24.5517    0.4058   28.7646 C.3     1  UNL1        0.0059
      5 C         -24.6957    1.4480   27.7988 C.3     1  UNL1        0.0197
      6 C         -25.9755    1.7250   27.3077 C.3     1  UNL1        0.0059
      7 C         -27.0718    1.0134   27.6535 C.3     1  UNL1        0.0235
      8 N         -28.6077   -0.5909   30.1098 N.pl3   1  UNL1       -0.1273
      9 C         -23.4939    2.1690   27.4794 C.3     1  UNL1        0.1093
     10 N         -23.5402    3.1706   26.7290 N.3     1  UNL1       -0.1314
@<TRIPOS>BOND
     1     1     2    2
     2     2     3    1
     3     3     4    1
     4     4     5    1
     5     5     6    1
     6     2     7    1
     7     6     7    1
     8     1     8    1
     9     5     9    1
    10     9    10    1
