@<TRIPOS>MOLECULE
No_4169-gen_results/8p0m/2024-11-27-11-27-31/
 11 11 0 0 0
SMALL
GASTEIGER

@<TRIPOS>ATOM
      1 C         -28.0162   -0.8135   28.8779 C.ar    1  UNL1        0.0066
      2 C         -28.4690   -0.7850   29.8287 C.ar    1  UNL1        0.0346
      3 C         -26.5042   -0.7777   28.8766 C.ar    1  UNL1        0.0044
      4 C         -25.8103   -0.8531   30.1028 C.ar    1  UNL1        0.0715
      5 C         -27.9906   -0.8916   31.2257 C.ar    1  UNL1        0.0066
      6 C         -26.6042   -0.8676   31.2652 C.ar    1  UNL1        0.0044
      7 BR        -30.4265   -0.7535   29.6347 Br      1  UNL1       -0.0490
      8 C         -24.3620   -0.8380   30.1522 C.3     1  UNL1        0.4186
      9 F         -23.9209    0.3793   30.4424 F       1  UNL1       -0.1659
     10 F         -23.8767   -1.6496   31.1020 F       1  UNL1       -0.1659
     11 F         -23.7848   -1.1865   28.9978 F       1  UNL1       -0.1659
@<TRIPOS>BOND
     1     2     7    1
     2     4     8    1
     3     8     9    1
     4     8    10    1
     5     8    11    1
     6     1     2   ar
     7     2     5   ar
     8     5     6   ar
     9     6     4   ar
    10     4     3   ar
    11     3     1   ar
