@<TRIPOS>MOLECULE
outputs/IAG933/test6/raw/output_4170_IAG933_linker_design_.xyz
 39 42 0 0 0
SMALL
GASTEIGER

@<TRIPOS>ATOM
      1 C         -24.8550   -1.0120   30.1430 C.3     1  UNL1        0.1464
      2 C         -24.9730   -2.5050   29.7880 C.2     1  UNL1        0.0013
      3 C         -23.9060   -3.1730   29.1460 C.2     1  UNL1       -0.0024
      4 C         -23.9890   -4.5490   28.8530 C.2     1  UNL1       -0.0003
      5 C         -25.1370   -5.2800   29.2050 C.2     1  UNL1       -0.0000
      6 C         -26.2320   -4.6110   29.7840 C.2     1  UNL1       -0.0003
      7 C         -26.1550   -3.2320   30.0650 C.2     1  UNL1       -0.0024
      8 C         -25.3870   -0.6790   31.5710 C.3     1  UNL1        0.0995
      9 C         -25.1890    0.7730   32.0280 C.3     1  UNL1        0.0212
     10 C         -25.3360    0.6840   33.5440 C.3     1  UNL1        0.0203
     11 C         -24.8290   -0.7150   33.9050 C.3     1  UNL1        0.0888
     12 N         -24.7580   -1.4810   32.6460 N.3     1  UNL1       -0.2171
     13 C         -25.6880    1.6140   26.4610 C.2     1  UNL1        0.0427
     14 C         -26.2500    2.9200   26.3950 C.2     1  UNL1        0.0767
     15 C         -25.6420    4.0930   27.1230 C.2     1  UNL1        0.2664
     16 N         -25.6140    5.2520   26.4490 N.am    1  UNL1       -0.1997
     17 C         -25.0260    6.4790   26.9630 C.3     1  UNL1        0.1388
     18 O         -25.1430    3.9660   28.2430 O.2     1  UNL1       -0.2683
     19 C         -27.4380    3.0910   25.6450 C.2     1  UNL1        0.1067
     20 N         -28.0750    2.0890   25.0030 N.2     1  UNL1       -0.2081
     21 C         -27.5430    0.8490   25.0790 C.2     1  UNL1        0.2533
     22 O         -28.1930   -0.2080   24.4770 O.2     1  UNL1       -0.4558
     23 C         -29.4600    0.0050   23.8660 C.3     1  UNL1        0.2426
     24 C         -30.0650   -1.3770   23.5730 C.3     1  UNL1        0.2292
     25 O         -30.7290   -1.8780   24.7210 O.3     1  UNL1       -0.2162
     26 C         -26.3540    0.5760   25.7770 C.2     1  UNL1        0.1932
     27 F         -25.8600   -0.6810   25.7950 F       1  UNL1       -0.1992
     28 N         -24.2163   -0.0782   29.2893 N.ar    1  UNL1       -0.2115
     29 O         -26.2070    0.9095   29.0651 O.2     1  UNL1       -0.2655
     30 C         -25.0819    0.7088   28.5758 C.ar    1  UNL1        0.2766
     31 F         -23.3924    3.1572   25.4699 F       1  UNL1       -0.1931
     32 C         -22.7514    2.2076   26.0258 C.3     1  UNL1        0.3443
     33 N         -21.1705    0.9875   28.0550 N.2     1  UNL1       -0.0083
     34 O         -20.3305    1.6848   27.5247 O.2     1  UNL1       -0.1416
     35 N         -22.9623    0.0404   29.1573 N.ar    1  UNL1       -0.1437
     36 C         -22.4420    0.7996   28.1624 C.ar    1  UNL1        0.2252
     37 C         -24.6738    1.2898   27.3706 C.ar    1  UNL1        0.0645
     38 F         -21.5689    2.2168   25.5248 F       1  UNL1       -0.1931
     39 C         -23.3000    1.4468   27.1779 C.ar    1  UNL1        0.0890
@<TRIPOS>BOND
     1     1     2    1
     2     2     7    1
     3     3     2    2
     4     4     3    1
     5     4     5    2
     6     5     6    1
     7     6     7    2
     8     8     1    1
     9     8     9    1
    10     8    12    1
    11     9    10    1
    12    10    11    1
    13    12    11    1
    14    13    37    1
    15    14    13    1
    16    14    15    1
    17    15    18    2
    18    16    17    1
    19    16    15    1
    20    19    14    2
    21    20    21    2
    22    20    19    1
    23    21    26    1
    24    22    21    1
    25    23    22    1
    26    24    23    1
    27    24    25    1
    28    26    27    1
    29    26    13    2
    30    28     1    1
    31    30    29    2
    32    30    28   ar
    33    31    32    1
    34    32    39    1
    35    33    36    1
    36    34    33    2
    37    35    28   ar
    38    36    35   ar
    39    37    30   ar
    40    38    32    1
    41    39    37   ar
    42    39    36   ar
