@<TRIPOS>MOLECULE
outputs/IAG933/test6/raw/output_4171_IAG933_linker_design_.xyz
 46 50 0 0 0
SMALL
GASTEIGER

@<TRIPOS>ATOM
      1 C         -24.8550   -1.0120   30.1430 C.3     1  UNL1        0.0511
      2 C         -24.9730   -2.5050   29.7880 C.2     1  UNL1       -0.0204
      3 C         -23.9060   -3.1730   29.1460 C.2     1  UNL1       -0.0042
      4 C         -23.9890   -4.5490   28.8530 C.2     1  UNL1       -0.0003
      5 C         -25.1370   -5.2800   29.2050 C.2     1  UNL1       -0.0000
      6 C         -26.2320   -4.6110   29.7840 C.2     1  UNL1       -0.0003
      7 C         -26.1550   -3.2320   30.0650 C.2     1  UNL1       -0.0042
      8 C         -25.3870   -0.6790   31.5710 C.3     1  UNL1        0.0776
      9 C         -25.1890    0.7730   32.0280 C.3     1  UNL1        0.0192
     10 C         -25.3360    0.6840   33.5440 C.3     1  UNL1        0.0202
     11 C         -24.8290   -0.7150   33.9050 C.3     1  UNL1        0.0887
     12 N         -24.7580   -1.4810   32.6460 N.3     1  UNL1       -0.2191
     13 C         -25.6880    1.6140   26.4610 C.2     1  UNL1        0.0415
     14 C         -26.2500    2.9200   26.3950 C.2     1  UNL1        0.0767
     15 C         -25.6420    4.0930   27.1230 C.2     1  UNL1        0.2664
     16 N         -25.6140    5.2520   26.4490 N.am    1  UNL1       -0.1997
     17 C         -25.0260    6.4790   26.9630 C.3     1  UNL1        0.1388
     18 O         -25.1430    3.9660   28.2430 O.2     1  UNL1       -0.2683
     19 C         -27.4380    3.0910   25.6450 C.2     1  UNL1        0.1067
     20 N         -28.0750    2.0890   25.0030 N.2     1  UNL1       -0.2081
     21 C         -27.5430    0.8490   25.0790 C.2     1  UNL1        0.2533
     22 O         -28.1930   -0.2080   24.4770 O.2     1  UNL1       -0.4558
     23 C         -29.4600    0.0050   23.8660 C.3     1  UNL1        0.2426
     24 C         -30.0650   -1.3770   23.5730 C.3     1  UNL1        0.2292
     25 O         -30.7290   -1.8780   24.7210 O.3     1  UNL1       -0.2162
     26 C         -26.3540    0.5760   25.7770 C.2     1  UNL1        0.1932
     27 F         -25.8600   -0.6810   25.7950 F       1  UNL1       -0.1992
     28 C         -27.6780    3.3137   30.4935 C.2     1  UNL1       -0.0046
     29 C         -29.4019    3.4721   28.3041 C.2     1  UNL1       -0.0240
     30 O         -27.6243   -0.4555   28.4938 O.2     1  UNL1       -0.2730
     31 C         -28.0168    4.5422   29.9793 C.2     1  UNL1       -0.0032
     32 C         -24.4754    1.3641   27.0985 C.ar    1  UNL1        0.0464
     33 C         -23.3377    1.9825   26.2866 C.ar    1  UNL1        0.2239
     34 C         -25.2868   -0.0401   29.0738 C.3     1  UNL1        0.1073
     35 C         -29.1507    2.2693   28.9274 C.3     1  UNL1        0.0522
     36 C         -28.8072    4.6056   28.8354 C.2     1  UNL1       -0.0048
     37 C         -27.9817    2.2532   29.7143 C.3     1  UNL1        0.1215
     38 C         -24.2392    0.6383   28.2698 C.ar    1  UNL1        0.0109
     39 F         -20.6399    1.0345   28.1142 F       1  UNL1       -0.1817
     40 C         -21.9405    1.0824   27.8234 C.ar    1  UNL1        0.2407
     41 C         -26.7459    0.3435   28.9197 C.2     1  UNL1        0.2457
     42 N         -22.1762    1.7259   26.7249 N.ar    1  UNL1       -0.1885
     43 N         -26.9667    1.5915   29.1879 N.am    1  UNL1       -0.2021
     44 C         -22.8690    0.5097   28.5989 C.ar    1  UNL1        0.1315
     45 N         -22.3998   -0.1684   29.7311 N.pl3   1  UNL1       -0.1244
     46 F         -23.3910    2.7912   25.0615 F       1  UNL1       -0.1832
@<TRIPOS>BOND
     1     1    34    1
     2     2     7    1
     3     2     1    1
     4     3     2    2
     5     4     3    1
     6     4     5    2
     7     5     6    1
     8     6     7    2
     9     8     1    1
    10     8     9    1
    11     8    12    1
    12     9    10    1
    13    10    11    1
    14    12    11    1
    15    13    32    1
    16    14    13    1
    17    14    15    1
    18    15    18    2
    19    16    17    1
    20    16    15    1
    21    19    14    2
    22    20    21    2
    23    20    19    1
    24    21    26    1
    25    22    21    1
    26    23    22    1
    27    24    23    1
    28    24    25    1
    29    26    27    1
    30    26    13    2
    31    29    36    2
    32    29    35    1
    33    30    41    2
    34    31    28    2
    35    32    38   ar
    36    33    42   ar
    37    33    32   ar
    38    34    41    1
    39    35    37    1
    40    36    31    1
    41    37    43    1
    42    37    28    1
    43    38    44   ar
    44    38    34    1
    45    40    39    1
    46    40    44   ar
    47    41    43    1
    48    42    40   ar
    49    44    45    1
    50    46    33    1
