@<TRIPOS>MOLECULE
No_4174-gen_results/8p0m/2024-11-27-11-27-31/
 16 16 0 0 0
SMALL
GASTEIGER

@<TRIPOS>ATOM
      1 CL        -28.1493   -0.8198   28.9079 Cl      1  UNL1       -0.0826
      2 C         -26.9116   -0.0797   28.9452 C.ar    1  UNL1        0.0543
      3 C         -26.0490   -0.0718   27.8591 C.ar    1  UNL1        0.0112
      4 C         -24.7194    0.4034   27.9174 C.ar    1  UNL1        0.0055
      5 C         -24.2099    0.9302   29.0839 C.ar    1  UNL1        0.0564
      6 C         -25.0231    0.9078   30.1875 C.ar    1  UNL1        0.0018
      7 C         -26.2531    0.3904   30.1401 C.ar    1  UNL1       -0.0036
      8 C         -22.8500    1.4479   29.0593 C.2     1  UNL1        0.2842
      9 N         -21.8477    1.2001   28.3123 N.am    1  UNL1       -0.0837
     10 O         -22.4162    1.8643   30.1938 O.2     1  UNL1       -0.2667
     11 C         -27.0837    0.3556   31.4285 C.3     1  UNL1        0.0683
     12 C         -28.3997    0.6208   31.4289 C.2     1  UNL1       -0.0176
     13 C         -26.3468    0.1055   32.6455 C.2     1  UNL1        0.0018
     14 C         -25.4508   -0.4051   32.8747 C.2     1  UNL1        0.1018
     15 N         -25.0402   -0.5198   34.2481 N.pl3   1  UNL1       -0.1270
     16 C         -29.0450    0.9698   32.6034 C.2     1  UNL1       -0.0042
@<TRIPOS>BOND
     1     1     2    1
     2     5     8    1
     3     8     9   am
     4     8    10    2
     5     7    11    1
     6    11    12    1
     7    11    13    1
     8    13    14    2
     9    14    15    1
    10    12    16    2
    11     2     3   ar
    12     3     4   ar
    13     4     5   ar
    14     5     6   ar
    15     6     7   ar
    16     7     2   ar
