@<TRIPOS>MOLECULE
outputs/IAG933/test6/raw/output_4175_IAG933_linker_design_.xyz
 43 46 0 0 0
SMALL
GASTEIGER

@<TRIPOS>ATOM
      1 C         -24.8550   -1.0120   30.1430 C.3     1  UNL1        0.1123
      2 C         -24.9730   -2.5050   29.7880 C.2     1  UNL1       -0.0051
      3 C         -23.9060   -3.1730   29.1460 C.2     1  UNL1       -0.0029
      4 C         -23.9890   -4.5490   28.8530 C.2     1  UNL1       -0.0003
      5 C         -25.1370   -5.2800   29.2050 C.2     1  UNL1       -0.0000
      6 C         -26.2320   -4.6110   29.7840 C.2     1  UNL1       -0.0003
      7 C         -26.1550   -3.2320   30.0650 C.2     1  UNL1       -0.0029
      8 C         -25.3870   -0.6790   31.5710 C.3     1  UNL1        0.0929
      9 C         -25.1890    0.7730   32.0280 C.3     1  UNL1        0.0206
     10 C         -25.3360    0.6840   33.5440 C.3     1  UNL1        0.0203
     11 C         -24.8290   -0.7150   33.9050 C.3     1  UNL1        0.0888
     12 N         -24.7580   -1.4810   32.6460 N.3     1  UNL1       -0.2177
     13 C         -25.6880    1.6140   26.4610 C.2     1  UNL1        0.0407
     14 C         -26.2500    2.9200   26.3950 C.2     1  UNL1        0.0745
     15 C         -25.6420    4.0930   27.1230 C.2     1  UNL1        0.2236
     16 N         -25.6140    5.2520   26.4490 N.2     1  UNL1       -0.2356
     17 C         -25.0260    6.4790   26.9630 C.3     1  UNL1        0.1550
     18 O         -25.1430    3.9660   28.2430 O.2     1  UNL1       -0.4380
     19 C         -27.4380    3.0910   25.6450 C.2     1  UNL1        0.1068
     20 N         -28.0750    2.0890   25.0030 N.2     1  UNL1       -0.2081
     21 C         -27.5430    0.8490   25.0790 C.2     1  UNL1        0.2533
     22 O         -28.1930   -0.2080   24.4770 O.2     1  UNL1       -0.4558
     23 C         -29.4600    0.0050   23.8660 C.3     1  UNL1        0.2426
     24 C         -30.0650   -1.3770   23.5730 C.3     1  UNL1        0.2292
     25 O         -30.7290   -1.8780   24.7210 O.3     1  UNL1       -0.2162
     26 C         -26.3540    0.5760   25.7770 C.2     1  UNL1        0.1931
     27 F         -25.8600   -0.6810   25.7950 F       1  UNL1       -0.1992
     28 C         -27.9602   -0.4592   28.7810 C.2     1  UNL1       -0.0003
     29 C         -29.1082   -0.3163   28.0138 C.2     1  UNL1       -0.0000
     30 C         -21.9972    0.5605   28.5224 C.3     1  UNL1        0.0355
     31 C         -23.4644    0.9334   28.8860 C.3     1  UNL1        0.1494
     32 C         -28.0267    2.9795   30.2789 C.3     1  UNL1        0.1416
     33 C         -21.2788    1.6440   27.7135 C.3     1  UNL1        0.0030
     34 C         -29.7368    0.9316   27.9090 C.2     1  UNL1       -0.0003
     35 C         -27.4513    0.6657   29.4660 C.2     1  UNL1       -0.0026
     36 N         -24.2440   -0.2240   29.0605 N.3     1  UNL1       -0.1977
     37 C         -29.2902    2.0301   28.6146 C.2     1  UNL1       -0.0026
     38 N         -27.0691    3.9327   30.1256 N.am    1  UNL1       -0.1962
     39 O         -25.2336    3.7795   31.4165 O.2     1  UNL1       -0.2677
     40 N         -23.9645    2.1557   28.7196 N.3     1  UNL1       -0.1559
     41 C         -25.1961    2.8957   29.1097 C.3     1  UNL1        0.3227
     42 C         -28.1860    1.8710   29.4510 C.2     1  UNL1       -0.0006
     43 C         -25.8367    3.5713   30.3552 C.2     1  UNL1        0.3001
@<TRIPOS>BOND
     1     1    36    1
     2     2     7    1
     3     2     1    1
     4     3     2    2
     5     4     3    1
     6     4     5    2
     7     5     6    1
     8     6     7    2
     9     8     1    1
    10     8     9    1
    11     8    12    1
    12     9    10    1
    13    10    11    1
    14    12    11    1
    15    14    13    1
    16    14    15    1
    17    15    18    1
    18    16    17    1
    19    16    15    2
    20    19    14    2
    21    20    21    2
    22    20    19    1
    23    21    26    1
    24    22    21    1
    25    23    22    1
    26    24    23    1
    27    24    25    1
    28    26    27    1
    29    26    13    2
    30    28    35    1
    31    29    28    2
    32    31    30    1
    33    31    36    1
    34    33    30    1
    35    34    29    1
    36    34    37    2
    37    37    42    1
    38    38    32    1
    39    38    43    1
    40    40    31    1
    41    40    41    1
    42    41    18    1
    43    41    43    1
    44    42    35    2
    45    42    32    1
    46    43    39    2
