@<TRIPOS>MOLECULE
outputs/IAG933/test6/raw/output_4177_IAG933_linker_design_.xyz
 42 47 0 0 0
SMALL
GASTEIGER

@<TRIPOS>ATOM
      1 C         -24.8550   -1.0120   30.1430 C.3     1  UNL1        0.0682
      2 C         -24.9730   -2.5050   29.7880 C.2     1  UNL1       -0.0187
      3 C         -23.9060   -3.1730   29.1460 C.2     1  UNL1       -0.0042
      4 C         -23.9890   -4.5490   28.8530 C.2     1  UNL1       -0.0003
      5 C         -25.1370   -5.2800   29.2050 C.2     1  UNL1       -0.0000
      6 C         -26.2320   -4.6110   29.7840 C.2     1  UNL1       -0.0003
      7 C         -26.1550   -3.2320   30.0650 C.2     1  UNL1       -0.0042
      8 C         -25.3870   -0.6790   31.5710 C.3     1  UNL1        0.0795
      9 C         -25.1890    0.7730   32.0280 C.3     1  UNL1        0.0221
     10 C         -25.3360    0.6840   33.5440 C.3     1  UNL1        0.0205
     11 C         -24.8290   -0.7150   33.9050 C.3     1  UNL1        0.0887
     12 N         -24.7580   -1.4810   32.6460 N.3     1  UNL1       -0.2190
     13 C         -25.6880    1.6140   26.4610 C.2     1  UNL1        0.1201
     14 C         -26.2500    2.9200   26.3950 C.2     1  UNL1        0.0942
     15 C         -25.6420    4.0930   27.1230 C.2     1  UNL1        0.2679
     16 N         -25.6140    5.2520   26.4490 N.am    1  UNL1       -0.1997
     17 C         -25.0260    6.4790   26.9630 C.3     1  UNL1        0.1388
     18 O         -25.1430    3.9660   28.2430 O.2     1  UNL1       -0.2683
     19 C         -27.4380    3.0910   25.6450 C.2     1  UNL1        0.1083
     20 N         -28.0750    2.0890   25.0030 N.2     1  UNL1       -0.2080
     21 C         -27.5430    0.8490   25.0790 C.2     1  UNL1        0.2548
     22 O         -28.1930   -0.2080   24.4770 O.2     1  UNL1       -0.4558
     23 C         -29.4600    0.0050   23.8660 C.3     1  UNL1        0.2426
     24 C         -30.0650   -1.3770   23.5730 C.3     1  UNL1        0.2292
     25 O         -30.7290   -1.8780   24.7210 O.3     1  UNL1       -0.2162
     26 C         -26.3540    0.5760   25.7770 C.2     1  UNL1        0.2106
     27 F         -25.8600   -0.6810   25.7950 F       1  UNL1       -0.1976
     28 C         -23.0497    1.9026   29.4553 C.3     1  UNL1        0.1450
     29 C         -28.0992    4.4296   30.7166 C.2     1  UNL1       -0.0003
     30 C         -25.0491   -0.0481   29.0699 C.3     1  UNL1        0.1523
     31 C         -26.2312    2.9060   31.1828 C.2     1  UNL1       -0.0223
     32 C         -23.1489    1.6947   26.6486 C.3     1  UNL1        0.1642
     33 C         -25.8520    3.6968   32.2767 C.2     1  UNL1       -0.0043
     34 C         -25.4383    1.6851   30.8669 C.3     1  UNL1        0.0286
     35 C         -26.7360    4.7185   32.7294 C.2     1  UNL1       -0.0003
     36 O         -22.1811    1.0319   28.7331 O.3     1  UNL1       -0.3515
     37 O         -24.6963   -0.0630   27.8445 O.3     1  UNL1       -0.2592
     38 C         -24.5874    1.5763   29.5521 C.3     1  UNL1        0.0639
     39 C         -27.3202    3.3240   30.3307 C.2     1  UNL1       -0.0043
     40 N         -24.4647    1.1010   27.0949 N.3     1  UNL1       -0.2340
     41 C         -21.8677    1.4750   27.4243 C.3     1  UNL1        0.1689
     42 C         -27.8818    5.0518   31.9766 C.2     1  UNL1       -0.0000
@<TRIPOS>BOND
     1     1     2    1
     2     1     8    1
     3     2     7    1
     4     3     2    2
     5     4     3    1
     6     4     5    2
     7     5     6    1
     8     6     7    2
     9     8     9    1
    10     8    12    1
    11     9    10    1
    12    10    11    1
    13    12    11    1
    14    13    40    1
    15    14    13    1
    16    14    15    1
    17    15    18    2
    18    16    17    1
    19    16    15    1
    20    19    14    2
    21    20    21    2
    22    20    19    1
    23    21    26    1
    24    22    21    1
    25    23    22    1
    26    24    23    1
    27    24    25    1
    28    26    27    1
    29    26    13    2
    30    29    42    1
    31    30    37    1
    32    30    38    1
    33    30     1    1
    34    31    33    2
    35    32    40    1
    36    32    41    1
    37    33    35    1
    38    34    31    1
    39    34     9    1
    40    36    28    1
    41    38    28    1
    42    38    34    1
    43    39    29    2
    44    39    31    1
    45    40    37    1
    46    41    36    1
    47    42    35    2
