@<TRIPOS>MOLECULE
outputs/IAG933/test6/raw/output_4178_IAG933_linker_design_.xyz
 42 46 0 0 0
SMALL
GASTEIGER

@<TRIPOS>ATOM
      1 C         -24.8550   -1.0120   30.1430 C.3     1  UNL1        0.1163
      2 C         -24.9730   -2.5050   29.7880 C.2     1  UNL1       -0.0125
      3 C         -23.9060   -3.1730   29.1460 C.2     1  UNL1       -0.0038
      4 C         -23.9890   -4.5490   28.8530 C.2     1  UNL1       -0.0003
      5 C         -25.1370   -5.2800   29.2050 C.2     1  UNL1       -0.0000
      6 C         -26.2320   -4.6110   29.7840 C.2     1  UNL1       -0.0003
      7 C         -26.1550   -3.2320   30.0650 C.2     1  UNL1       -0.0038
      8 C         -25.3870   -0.6790   31.5710 C.3     1  UNL1        0.0855
      9 C         -25.1890    0.7730   32.0280 C.3     1  UNL1        0.0197
     10 C         -25.3360    0.6840   33.5440 C.3     1  UNL1        0.0203
     11 C         -24.8290   -0.7150   33.9050 C.3     1  UNL1        0.0887
     12 N         -24.7580   -1.4810   32.6460 N.3     1  UNL1       -0.2186
     13 C         -25.6880    1.6140   26.4610 C.3     1  UNL1        0.0770
     14 C         -26.2500    2.9200   26.3950 C.2     1  UNL1        0.0550
     15 C         -25.6420    4.0930   27.1230 C.2     1  UNL1        0.2624
     16 N         -25.6140    5.2520   26.4490 N.am    1  UNL1       -0.2000
     17 C         -25.0260    6.4790   26.9630 C.3     1  UNL1        0.1388
     18 O         -25.1430    3.9660   28.2430 O.2     1  UNL1       -0.2687
     19 C         -27.4380    3.0910   25.6450 C.2     1  UNL1        0.1021
     20 N         -28.0750    2.0890   25.0030 N.2     1  UNL1       -0.2119
     21 C         -27.5430    0.8490   25.0790 C.2     1  UNL1        0.2341
     22 O         -28.1930   -0.2080   24.4770 O.2     1  UNL1       -0.4585
     23 C         -29.4600    0.0050   23.8660 C.3     1  UNL1        0.2423
     24 C         -30.0650   -1.3770   23.5730 C.3     1  UNL1        0.2292
     25 O         -30.7290   -1.8780   24.7210 O.3     1  UNL1       -0.2162
     26 C         -26.3540    0.5760   25.7770 C.3     1  UNL1        0.2402
     27 F         -25.8600   -0.6810   25.7950 F       1  UNL1       -0.2269
     28 C         -22.0063    1.8088   27.7626 C.3     1  UNL1        0.2413
     29 O         -21.9528    2.1044   26.4337 O.3     1  UNL1       -0.3017
     30 N         -24.9213    1.0967   28.8143 N.am    1  UNL1       -0.2064
     31 O         -20.5598    1.6691   28.1459 O.3     1  UNL1       -0.3302
     32 C         -20.5344    0.2706   28.6702 C.3     1  UNL1        0.1483
     33 C         -19.9905   -0.4391   27.7797 C.3     1  UNL1        0.0349
     34 O         -26.6347   -0.5086   28.5235 O.2     1  UNL1       -0.2730
     35 C         -24.2310    1.5128   26.6885 C.3     1  UNL1        0.0894
     36 C         -25.6082   -0.1089   29.0815 C.2     1  UNL1        0.2463
     37 C         -22.7831    0.7608   28.2024 C.3     1  UNL1        0.1094
     38 O         -22.0725   -0.4225   30.2000 O.3     1  UNL1       -0.2203
     39 F         -23.0471    2.4731   24.7133 F       1  UNL1       -0.2039
     40 C         -22.0153    0.0137   28.9506 C.3     1  UNL1        0.1854
     41 C         -23.9455    0.8413   27.7957 C.3     1  UNL1        0.1082
     42 C         -23.0967    2.0274   25.9872 C.3     1  UNL1        0.2821
@<TRIPOS>BOND
     1     1    36    1
     2     2     7    1
     3     2     1    1
     4     3     2    2
     5     4     3    1
     6     4     5    2
     7     5     6    1
     8     6     7    2
     9     8     1    1
    10     8     9    1
    11     8    12    1
    12     9    10    1
    13    10    11    1
    14    12    11    1
    15    13    14    1
    16    14    15    1
    17    15    18    2
    18    16    17    1
    19    16    15    1
    20    19    14    2
    21    20    21    2
    22    20    19    1
    23    21    26    1
    24    22    21    1
    25    23    22    1
    26    24    23    1
    27    24    25    1
    28    26    27    1
    29    26    13    1
    30    28    29    1
    31    28    31    1
    32    28    37    1
    33    30    36    1
    34    31    32    1
    35    32    33    1
    36    32    40    1
    37    34    36    2
    38    35    13    1
    39    35    41    1
    40    37    40    1
    41    39    42    1
    42    40    38    1
    43    41    37    1
    44    41    30    1
    45    42    29    1
    46    42    35    1
