@<TRIPOS>MOLECULE
outputs/IAG933/test6/raw/output_418_IAG933_linker_design_.xyz
 42 46 0 0 0
SMALL
GASTEIGER

@<TRIPOS>ATOM
      1 C         -24.8550   -1.0120   30.1430 C.3     1  UNL1        0.0560
      2 C         -24.9730   -2.5050   29.7880 C.2     1  UNL1       -0.0197
      3 C         -23.9060   -3.1730   29.1460 C.2     1  UNL1       -0.0042
      4 C         -23.9890   -4.5490   28.8530 C.2     1  UNL1       -0.0003
      5 C         -25.1370   -5.2800   29.2050 C.2     1  UNL1       -0.0000
      6 C         -26.2320   -4.6110   29.7840 C.2     1  UNL1       -0.0003
      7 C         -26.1550   -3.2320   30.0650 C.2     1  UNL1       -0.0042
      8 C         -25.3870   -0.6790   31.5710 C.3     1  UNL1        0.0782
      9 C         -25.1890    0.7730   32.0280 C.3     1  UNL1        0.0192
     10 C         -25.3360    0.6840   33.5440 C.3     1  UNL1        0.0202
     11 C         -24.8290   -0.7150   33.9050 C.3     1  UNL1        0.0887
     12 N         -24.7580   -1.4810   32.6460 N.3     1  UNL1       -0.2191
     13 C         -25.6880    1.6140   26.4610 C.3     1  UNL1        0.0721
     14 C         -26.2500    2.9200   26.3950 C.2     1  UNL1        0.0549
     15 C         -25.6420    4.0930   27.1230 C.2     1  UNL1        0.2624
     16 N         -25.6140    5.2520   26.4490 N.am    1  UNL1       -0.2000
     17 C         -25.0260    6.4790   26.9630 C.3     1  UNL1        0.1388
     18 O         -25.1430    3.9660   28.2430 O.2     1  UNL1       -0.2687
     19 C         -27.4380    3.0910   25.6450 C.2     1  UNL1        0.1021
     20 N         -28.0750    2.0890   25.0030 N.2     1  UNL1       -0.2119
     21 C         -27.5430    0.8490   25.0790 C.2     1  UNL1        0.2341
     22 O         -28.1930   -0.2080   24.4770 O.2     1  UNL1       -0.4585
     23 C         -29.4600    0.0050   23.8660 C.3     1  UNL1        0.2423
     24 C         -30.0650   -1.3770   23.5730 C.3     1  UNL1        0.2292
     25 O         -30.7290   -1.8780   24.7210 O.3     1  UNL1       -0.2162
     26 C         -26.3540    0.5760   25.7770 C.3     1  UNL1        0.2400
     27 F         -25.8600   -0.6810   25.7950 F       1  UNL1       -0.2269
     28 C         -28.5369    2.4352   29.6178 C.3     1  UNL1        0.0964
     29 C         -24.7796    1.1199   27.4052 C.3     1  UNL1        0.0366
     30 O         -21.3278    1.9508   26.9948 O.3     1  UNL1       -0.2188
     31 C         -24.3869    0.0860   29.5104 C.3     1  UNL1        0.0981
     32 N         -22.9891    0.3615   29.7505 N.3     1  UNL1       -0.2147
     33 O         -28.6217    0.1714   28.7361 O.2     1  UNL1       -0.2733
     34 C         -22.3802    1.4166   27.6998 C.3     1  UNL1        0.1746
     35 C         -22.5461    0.9674   28.8240 C.3     1  UNL1        0.1217
     36 F         -23.9573    1.3528   24.8396 F       1  UNL1       -0.2010
     37 C         -23.6097    1.3892   26.6644 C.3     1  UNL1        0.0985
     38 C         -27.9378    1.0634   29.2044 C.2     1  UNL1        0.2419
     39 C         -23.0585    2.4299   25.6926 C.3     1  UNL1        0.3120
     40 O         -21.7277    2.2080   25.5748 O.3     1  UNL1       -0.1867
     41 N         -26.5481    1.0196   29.3572 N.am    1  UNL1       -0.2057
     42 C         -25.3312    0.8272   28.6577 C.3     1  UNL1        0.1122
@<TRIPOS>BOND
     1     1     2    1
     2     2     7    1
     3     3     2    2
     4     4     3    1
     5     4     5    2
     6     5     6    1
     7     6     7    2
     8     8     1    1
     9     8     9    1
    10     8    12    1
    11     9    10    1
    12    10    11    1
    13    12    11    1
    14    13    14    1
    15    14    15    1
    16    15    18    2
    17    16    17    1
    18    16    15    1
    19    19    14    2
    20    20    21    2
    21    20    19    1
    22    21    26    1
    23    22    21    1
    24    23    22    1
    25    24    23    1
    26    24    25    1
    27    26    27    1
    28    26    13    1
    29    29    13    1
    30    29    42    1
    31    30    34    1
    32    31    32    1
    33    31     1    1
    34    33    38    2
    35    34    35    1
    36    35    32    1
    37    36    39    1
    38    37    29    1
    39    37    34    1
    40    38    41    1
    41    38    28    1
    42    39    37    1
    43    40    39    1
    44    40    30    1
    45    42    41    1
    46    42    31    1
