@<TRIPOS>MOLECULE
outputs/IAG933/test6/raw/output_4182_IAG933_linker_design_.xyz
 43 47 0 0 0
SMALL
GASTEIGER

@<TRIPOS>ATOM
      1 C         -24.8550   -1.0120   30.1430 C.3     1  UNL1        0.1986
      2 C         -24.9730   -2.5050   29.7880 C.2     1  UNL1        0.0213
      3 C         -23.9060   -3.1730   29.1460 C.2     1  UNL1       -0.0004
      4 C         -23.9890   -4.5490   28.8530 C.2     1  UNL1       -0.0002
      5 C         -25.1370   -5.2800   29.2050 C.2     1  UNL1       -0.0000
      6 C         -26.2320   -4.6110   29.7840 C.2     1  UNL1       -0.0002
      7 C         -26.1550   -3.2320   30.0650 C.2     1  UNL1       -0.0004
      8 C         -25.3870   -0.6790   31.5710 C.3     1  UNL1        0.1197
      9 C         -25.1890    0.7730   32.0280 C.3     1  UNL1        0.0233
     10 C         -25.3360    0.6840   33.5440 C.3     1  UNL1        0.0204
     11 C         -24.8290   -0.7150   33.9050 C.3     1  UNL1        0.0889
     12 N         -24.7580   -1.4810   32.6460 N.3     1  UNL1       -0.2150
     13 C         -25.6880    1.6140   26.4610 C.2     1  UNL1        0.0408
     14 C         -26.2500    2.9200   26.3950 C.2     1  UNL1        0.0765
     15 C         -25.6420    4.0930   27.1230 C.2     1  UNL1        0.2664
     16 N         -25.6140    5.2520   26.4490 N.am    1  UNL1       -0.1997
     17 C         -25.0260    6.4790   26.9630 C.3     1  UNL1        0.1388
     18 O         -25.1430    3.9660   28.2430 O.2     1  UNL1       -0.2683
     19 C         -27.4380    3.0910   25.6450 C.2     1  UNL1        0.1067
     20 N         -28.0750    2.0890   25.0030 N.2     1  UNL1       -0.2081
     21 C         -27.5430    0.8490   25.0790 C.2     1  UNL1        0.2533
     22 O         -28.1930   -0.2080   24.4770 O.2     1  UNL1       -0.4558
     23 C         -29.4600    0.0050   23.8660 C.3     1  UNL1        0.2426
     24 C         -30.0650   -1.3770   23.5730 C.3     1  UNL1        0.2292
     25 O         -30.7290   -1.8780   24.7210 O.3     1  UNL1       -0.2162
     26 C         -26.3540    0.5760   25.7770 C.2     1  UNL1        0.1930
     27 F         -25.8600   -0.6810   25.7950 F       1  UNL1       -0.1992
     28 C         -28.1783    0.9856   29.0417 C.3     1  UNL1        0.0071
     29 C         -27.9331    3.4802   29.5861 C.3     1  UNL1        0.1522
     30 C         -27.1017    1.9580   29.3804 C.3     1  UNL1        0.0348
     31 C         -23.3969    1.6700   27.2281 C.2     1  UNL1        0.1731
     32 C         -26.6769    0.5225   28.7820 C.3     1  UNL1        0.0498
     33 O         -23.1350    2.6962   26.2743 O.2     1  UNL1       -0.4691
     34 C         -25.0662    0.4742   28.4416 C.3     1  UNL1        0.1859
     35 O         -29.2686    3.2947   30.0419 O.3     1  UNL1       -0.2231
     36 F         -21.1992    1.5291   28.0563 F       1  UNL1       -0.1931
     37 C         -27.1525    4.4184   30.5012 C.3     1  UNL1        0.0355
     38 C         -21.9370    2.5124   25.4082 C.3     1  UNL1        0.2526
     39 N         -22.1865   -0.1112   30.1426 N.pl3   1  UNL1        0.2123
     40 C         -22.4967    1.1733   28.1617 C.2     1  UNL1        0.2574
     41 C         -24.6675    1.2061   27.3487 C.2     1  UNL1        0.0589
     42 N         -24.2965   -0.0697   29.2635 N.pl3   1  UNL1       -0.1852
     43 C         -22.9997    0.3078   29.1944 C.2     1  UNL1        0.3952
@<TRIPOS>BOND
     1     1     2    1
     2     2     7    1
     3     3     2    2
     4     4     3    1
     5     4     5    2
     6     5     6    1
     7     6     7    2
     8     8     1    1
     9     8     9    1
    10     8    12    1
    11     9    10    1
    12    10    11    1
    13    12    11    1
    14    13    41    1
    15    14    13    1
    16    14    15    1
    17    15    18    2
    18    16    17    1
    19    16    15    1
    20    19    14    2
    21    20    21    2
    22    20    19    1
    23    21    26    1
    24    22    21    1
    25    23    22    1
    26    24    23    1
    27    24    25    1
    28    26    27    1
    29    26    13    2
    30    28    30    1
    31    29    35    1
    32    29    37    1
    33    30    29    1
    34    31    41    2
    35    31    40    1
    36    32    28    1
    37    32    30    1
    38    33    31    1
    39    34    41    1
    40    34    32    1
    41    34    42    1
    42    36    40    1
    43    38    33    1
    44    40    43    2
    45    42     1    1
    46    43    42    1
    47    43    39    1
