@<TRIPOS>MOLECULE
No_4183-gen_results/8p0m/2024-11-27-11-27-31/
 24 24 0 0 0
SMALL
GASTEIGER

@<TRIPOS>ATOM
      1 C         -28.0162   -0.8135   28.8779 C.ar    1  UNL1        0.0035
      2 C         -28.4690   -0.7850   29.8287 C.ar    1  UNL1        0.0795
      3 C         -26.5042   -0.7777   28.8766 C.ar    1  UNL1       -0.0070
      4 C         -25.8103   -0.8531   30.1028 C.ar    1  UNL1        0.0540
      5 C         -27.9906   -0.8916   31.2257 C.ar    1  UNL1        0.0074
      6 C         -26.6042   -0.8676   31.2652 C.ar    1  UNL1        0.0113
      7 CL        -24.1648   -0.7915   30.1717 Cl      1  UNL1       -0.0826
      8 C         -30.0988   -0.8363   29.8511 C.2     1  UNL1        0.3877
      9 O         -30.7434   -1.6668   30.1991 O.co2   1  UNL1       -0.2406
     10 O         -30.6228    0.2267   29.2815 O.co2   1  UNL1       -0.2406
     11 C         -25.6446   -0.6996   27.6535 C.3     1  UNL1        0.0531
     12 C         -25.9699    0.2399   26.6466 C.2     1  UNL1       -0.0220
     13 C         -25.0539    0.6578   25.7772 C.2     1  UNL1       -0.0301
     14 C         -27.2776    0.1567   26.0193 C.2     1  UNL1       -0.0043
     15 C         -27.5769    0.7903   24.8485 C.2     1  UNL1       -0.0003
     16 C         -23.6033    0.7850   26.2539 C.3     1  UNL1        0.0257
     17 C         -28.9357    0.8616   24.5422 C.2     1  UNL1       -0.0000
     18 C         -29.8143    0.3861   25.3227 C.2     1  UNL1       -0.0000
     19 C         -31.1844    0.4174   24.8576 C.2     1  UNL1       -0.0000
     20 C         -23.2651    0.7256   27.5891 C.3     1  UNL1        0.0050
     21 C         -32.2580   -0.1568   25.6446 C.2     1  UNL1       -0.0003
     22 C         -33.5186   -0.0995   25.2628 C.2     1  UNL1       -0.0046
     23 C         -33.8030    0.5094   24.0080 C.2     1  UNL1       -0.0258
     24 C         -32.8282    1.0658   23.2215 C.3     1  UNL1        0.0307
@<TRIPOS>BOND
     1     4     7    1
     2     2     8    1
     3     8     9   ar
     4     8    10   ar
     5     3    11    1
     6    11    12    1
     7    12    13    2
     8    12    14    1
     9    14    15    2
    10    13    16    1
    11    15    17    1
    12    17    18    2
    13    18    19    1
    14    16    20    1
    15    19    21    2
    16    21    22    1
    17    22    23    2
    18    23    24    1
    19     1     2   ar
    20     2     5   ar
    21     5     6   ar
    22     6     4   ar
    23     4     3   ar
    24     3     1   ar
