@<TRIPOS>MOLECULE
No_4184-gen_results/8p0m/2024-11-27-11-27-31/
 26 28 0 0 0
SMALL
GASTEIGER

@<TRIPOS>ATOM
      1 CL        -28.1493   -0.8198   28.9079 Cl      1  UNL1       -0.0791
      2 C         -27.8339    0.4961   29.0598 C.ar    1  UNL1        0.0921
      3 C         -27.6022    1.0128   30.2974 C.ar    1  UNL1        0.0146
      4 C         -27.1699    2.3964   30.5338 C.ar    1  UNL1        0.0056
      5 C         -26.9133    3.1827   29.3680 C.ar    1  UNL1        0.0567
      6 C         -27.0551    2.6221   28.1384 C.ar    1  UNL1        0.0429
      7 C         -27.4622    1.3345   27.9669 C.ar    1  UNL1        0.1559
      8 C         -26.4513    4.5680   29.5808 C.2     1  UNL1        0.2491
      9 N         -27.1086    5.5538   29.3691 N.am    1  UNL1       -0.2761
     10 O         -25.2057    4.7125   30.0396 O.2     1  UNL1       -0.2699
     11 C         -26.5829    6.9807   29.5273 C.3     1  UNL1        0.0937
     12 C         -28.4426    5.5023   28.7807 C.3     1  UNL1        0.0937
     13 C         -26.6317    7.7573   28.7302 C.3     1  UNL1        0.0216
     14 C         -27.9957    8.0526   28.1426 C.3     1  UNL1        0.0035
     15 C         -28.6514    6.6943   27.7887 C.3     1  UNL1        0.0216
     16 O         -27.5925    0.8564   26.7374 O.3     1  UNL1       -0.4526
     17 C         -27.4589    1.6114   25.7180 C.ar    1  UNL1        0.1453
     18 C         -27.7151    0.9020   24.5468 C.ar    1  UNL1        0.0375
     19 C         -28.9775    1.1955   23.9275 C.ar    1  UNL1        0.0047
     20 C         -29.7246    2.2351   24.3345 C.ar    1  UNL1        0.0193
     21 C         -29.1807    3.2368   25.2375 C.ar    1  UNL1        0.0047
     22 C         -27.7802    2.9751   25.6550 C.ar    1  UNL1        0.0375
     23 C         -30.8145    2.7013   23.4386 C.2     1  UNL1        0.0988
     24 N         -31.4655    1.8268   22.7455 N.2     1  UNL1       -0.2423
     25 C         -32.5769    2.2243   22.0360 C.2     1  UNL1        0.0989
     26 C         -33.2188    1.4152   21.1824 C.2     1  UNL1        0.0222
@<TRIPOS>BOND
     1     1     2    1
     2     5     8    1
     3     8     9   am
     4     8    10    2
     5     9    11    1
     6     9    12    1
     7    11    13    1
     8    13    14    1
     9    12    15    1
    10    14    15    1
    11     7    16    1
    12    16    17    1
    13    20    23    1
    14    23    24    2
    15    24    25    1
    16    25    26    2
    17    17    18   ar
    18    18    19   ar
    19    19    20   ar
    20    20    21   ar
    21    21    22   ar
    22    22    17   ar
    23     2     3   ar
    24     3     4   ar
    25     4     5   ar
    26     5     6   ar
    27     6     7   ar
    28     7     2   ar
