@<TRIPOS>MOLECULE
No_4185-gen_results/8p0m/2024-11-27-11-27-31/
 9 9 0 0 0
SMALL
GASTEIGER

@<TRIPOS>ATOM
      1 C         -28.0162   -0.8135   28.8779 C.ar    1  UNL1       -0.0000
      2 C         -27.0636   -0.1189   28.6079 C.ar    1  UNL1       -0.0000
      3 C         -26.8756    1.1325   28.9134 C.ar    1  UNL1       -0.0003
      4 C         -25.6883    1.9515   28.5672 C.2     1  UNL1       -0.0046
      5 C         -24.6394    1.2834   27.8753 C.2     1  UNL1       -0.0258
      6 C         -23.4486    1.9589   27.5372 C.3     1  UNL1        0.0307
      7 C         -29.0929   -0.1958   29.6763 C.ar    1  UNL1       -0.0000
      8 C         -29.0425    1.0855   30.0171 C.ar    1  UNL1       -0.0000
      9 C         -27.9077    1.8155   29.6664 C.ar    1  UNL1       -0.0000
@<TRIPOS>BOND
     1     3     4    1
     2     4     5    2
     3     5     6    1
     4     1     2   ar
     5     2     3   ar
     6     3     9   ar
     7     9     8   ar
     8     8     7   ar
     9     7     1   ar
