@<TRIPOS>MOLECULE
No_4186-gen_results/8p0m/2024-11-27-11-27-31/
 21 22 0 0 0
SMALL
GASTEIGER

@<TRIPOS>ATOM
      1 O         -28.1229   -1.3353   28.4874 O.2     1  UNL1       -0.2541
      2 C         -27.4806   -0.4044   28.7094 C.2     1  UNL1        0.3334
      3 C         -26.3804   -0.0867   27.9394 C.ar    1  UNL1        0.0678
      4 F         -27.3894   -0.0361   30.0376 F       1  UNL1       -0.1586
      5 C         -25.9212    1.2221   28.0015 C.ar    1  UNL1        0.0055
      6 C         -24.4840    1.3612   28.4327 C.ar    1  UNL1        0.0048
      7 C         -23.7254    0.2446   28.6058 C.ar    1  UNL1        0.0567
      8 C         -24.3228   -1.0305   28.4923 C.ar    1  UNL1        0.0048
      9 C         -25.4143   -1.0268   27.7948 C.ar    1  UNL1        0.0057
     10 C         -22.2467    0.3634   28.9267 C.2     1  UNL1        0.2842
     11 N         -21.7048   -0.4041   29.8063 N.am    1  UNL1       -0.0837
     12 O         -21.5599    1.1812   28.2362 O.2     1  UNL1       -0.2667
     13 C         -26.7154    2.3369   27.8828 C.ar    1  UNL1        0.0004
     14 C         -27.7888    2.4116   27.8194 C.ar    1  UNL1        0.0000
     15 C         -28.5725    3.6148   27.5394 C.ar    1  UNL1        0.0002
     16 C         -25.9841    3.6306   27.6109 C.ar    1  UNL1        0.0066
     17 C         -26.5417    4.8349   27.3822 C.ar    1  UNL1        0.0798
     18 C         -27.9131    4.8132   27.3302 C.ar    1  UNL1        0.0066
     19 C         -25.7436    6.0618   27.2433 C.2     1  UNL1        0.3878
     20 O         -25.6754    6.8524   28.0515 O.co2   1  UNL1       -0.2406
     21 O         -24.6287    5.9118   26.4479 O.co2   1  UNL1       -0.2406
@<TRIPOS>BOND
     1     1     2    2
     2     2     3    1
     3     2     4    1
     4     7    10    1
     5    10    11   am
     6    10    12    2
     7     5    13    1
     8    17    19    1
     9    19    20   ar
    10    19    21   ar
    11    13    14   ar
    12    14    15   ar
    13    15    18   ar
    14    18    17   ar
    15    17    16   ar
    16    16    13   ar
    17     3     5   ar
    18     5     6   ar
    19     6     7   ar
    20     7     8   ar
    21     8     9   ar
    22     9     3   ar
