@<TRIPOS>MOLECULE
outputs/IAG933/test6/raw/output_4187_IAG933_linker_design_.xyz
 43 47 0 0 0
SMALL
GASTEIGER

@<TRIPOS>ATOM
      1 C         -24.8550   -1.0120   30.1430 C.3     1  UNL1        0.0547
      2 C         -24.9730   -2.5050   29.7880 C.2     1  UNL1       -0.0198
      3 C         -23.9060   -3.1730   29.1460 C.2     1  UNL1       -0.0042
      4 C         -23.9890   -4.5490   28.8530 C.2     1  UNL1       -0.0003
      5 C         -25.1370   -5.2800   29.2050 C.2     1  UNL1       -0.0000
      6 C         -26.2320   -4.6110   29.7840 C.2     1  UNL1       -0.0003
      7 C         -26.1550   -3.2320   30.0650 C.2     1  UNL1       -0.0042
      8 C         -25.3870   -0.6790   31.5710 C.3     1  UNL1        0.0782
      9 C         -25.1890    0.7730   32.0280 C.3     1  UNL1        0.0192
     10 C         -25.3360    0.6840   33.5440 C.3     1  UNL1        0.0202
     11 C         -24.8290   -0.7150   33.9050 C.3     1  UNL1        0.0887
     12 N         -24.7580   -1.4810   32.6460 N.3     1  UNL1       -0.2191
     13 C         -25.6880    1.6140   26.4610 C.2     1  UNL1        0.0339
     14 C         -26.2500    2.9200   26.3950 C.2     1  UNL1        0.0762
     15 C         -25.6420    4.0930   27.1230 C.2     1  UNL1        0.2664
     16 N         -25.6140    5.2520   26.4490 N.am    1  UNL1       -0.1997
     17 C         -25.0260    6.4790   26.9630 C.3     1  UNL1        0.1388
     18 O         -25.1430    3.9660   28.2430 O.2     1  UNL1       -0.2683
     19 C         -27.4380    3.0910   25.6450 C.2     1  UNL1        0.1067
     20 N         -28.0750    2.0890   25.0030 N.2     1  UNL1       -0.2081
     21 C         -27.5430    0.8490   25.0790 C.2     1  UNL1        0.2533
     22 O         -28.1930   -0.2080   24.4770 O.2     1  UNL1       -0.4558
     23 C         -29.4600    0.0050   23.8660 C.3     1  UNL1        0.2426
     24 C         -30.0650   -1.3770   23.5730 C.3     1  UNL1        0.2292
     25 O         -30.7290   -1.8780   24.7210 O.3     1  UNL1       -0.2162
     26 C         -26.3540    0.5760   25.7770 C.2     1  UNL1        0.1927
     27 F         -25.8600   -0.6810   25.7950 F       1  UNL1       -0.1993
     28 C         -28.8874    0.2901   28.6951 C.2     1  UNL1        0.2434
     29 C         -27.8985    1.0024   29.6344 C.3     1  UNL1        0.1737
     30 C         -24.3559    1.3457   26.8965 C.2     1  UNL1       -0.0229
     31 C         -31.3704    2.8576   28.0075 C.3     1  UNL1        0.0233
     32 C         -23.2884    1.7726   26.3142 C.2     1  UNL1       -0.0303
     33 N         -29.9529    0.9780   28.2676 N.am    1  UNL1       -0.2784
     34 C         -31.7267    1.8480   26.9258 C.3     1  UNL1        0.0233
     35 C         -24.3318    0.3165   28.1165 C.3     1  UNL1        0.0385
     36 C         -25.5047   -0.0300   29.0880 C.3     1  UNL1        0.0826
     37 C         -22.9916    0.5579   28.9148 C.3     1  UNL1        0.0061
     38 N         -26.6305    1.1737   29.4530 N.3     1  UNL1       -0.2093
     39 C         -30.6891    0.7195   26.9978 C.3     1  UNL1        0.0935
     40 C         -21.9865    1.5453   26.7856 C.3     1  UNL1        0.0257
     41 C         -21.9116    1.4516   28.2984 C.3     1  UNL1        0.0050
     42 O         -28.6097   -0.8573   28.3172 O.2     1  UNL1       -0.2733
     43 C         -30.0468    2.3832   28.5781 C.3     1  UNL1        0.0935
@<TRIPOS>BOND
     1     1    36    1
     2     2     7    1
     3     2     1    1
     4     3     2    2
     5     4     3    1
     6     4     5    2
     7     5     6    1
     8     6     7    2
     9     8     1    1
    10     8     9    1
    11     8    12    1
    12     9    10    1
    13    10    11    1
    14    12    11    1
    15    13    30    1
    16    14    13    1
    17    14    15    1
    18    15    18    2
    19    16    17    1
    20    16    15    1
    21    19    14    2
    22    20    21    2
    23    20    19    1
    24    21    26    1
    25    22    21    1
    26    23    22    1
    27    24    23    1
    28    24    25    1
    29    26    27    1
    30    26    13    2
    31    28    29    1
    32    30    35    1
    33    31    43    1
    34    32    40    1
    35    32    30    2
    36    33    43    1
    37    33    28   am
    38    34    39    1
    39    34    31    1
    40    35    37    1
    41    35    36    1
    42    36    38    1
    43    38    29    1
    44    39    33    1
    45    40    41    1
    46    41    37    1
    47    42    28    2
