@<TRIPOS>MOLECULE
outputs/IAG933/test6/raw/output_4188_IAG933_linker_design_.xyz
 46 51 0 0 0
SMALL
GASTEIGER

@<TRIPOS>ATOM
      1 C         -24.8550   -1.0120   30.1430 C.3     1  UNL1        0.0621
      2 C         -24.9730   -2.5050   29.7880 C.2     1  UNL1       -0.0192
      3 C         -23.9060   -3.1730   29.1460 C.2     1  UNL1       -0.0042
      4 C         -23.9890   -4.5490   28.8530 C.2     1  UNL1       -0.0003
      5 C         -25.1370   -5.2800   29.2050 C.2     1  UNL1       -0.0000
      6 C         -26.2320   -4.6110   29.7840 C.2     1  UNL1       -0.0003
      7 C         -26.1550   -3.2320   30.0650 C.2     1  UNL1       -0.0042
      8 C         -25.3870   -0.6790   31.5710 C.3     1  UNL1        0.0788
      9 C         -25.1890    0.7730   32.0280 C.3     1  UNL1        0.0193
     10 C         -25.3360    0.6840   33.5440 C.3     1  UNL1        0.0202
     11 C         -24.8290   -0.7150   33.9050 C.3     1  UNL1        0.0887
     12 N         -24.7580   -1.4810   32.6460 N.3     1  UNL1       -0.2191
     13 C         -25.6880    1.6140   26.4610 C.2     1  UNL1        0.0384
     14 C         -26.2500    2.9200   26.3950 C.2     1  UNL1        0.0765
     15 C         -25.6420    4.0930   27.1230 C.2     1  UNL1        0.2664
     16 N         -25.6140    5.2520   26.4490 N.am    1  UNL1       -0.1997
     17 C         -25.0260    6.4790   26.9630 C.3     1  UNL1        0.1388
     18 O         -25.1430    3.9660   28.2430 O.2     1  UNL1       -0.2683
     19 C         -27.4380    3.0910   25.6450 C.2     1  UNL1        0.1067
     20 N         -28.0750    2.0890   25.0030 N.2     1  UNL1       -0.2081
     21 C         -27.5430    0.8490   25.0790 C.2     1  UNL1        0.2533
     22 O         -28.1930   -0.2080   24.4770 O.2     1  UNL1       -0.4558
     23 C         -29.4600    0.0050   23.8660 C.3     1  UNL1        0.2426
     24 C         -30.0650   -1.3770   23.5730 C.3     1  UNL1        0.2292
     25 O         -30.7290   -1.8780   24.7210 O.3     1  UNL1       -0.2162
     26 C         -26.3540    0.5760   25.7770 C.2     1  UNL1        0.1931
     27 F         -25.8600   -0.6810   25.7950 F       1  UNL1       -0.1992
     28 C         -28.9145    0.0989   27.9441 C.2     1  UNL1        0.0158
     29 C         -24.5554    0.5158   28.3422 C.2     1  UNL1       -0.0167
     30 F         -21.1548    1.4926   27.8100 F       1  UNL1       -0.2076
     31 C         -23.1981    0.4438   28.7389 C.3     1  UNL1        0.0811
     32 C         -29.8246    4.0875   31.0619 C.3     1  UNL1        0.1473
     33 C         -30.2179    2.1941   28.0043 C.2     1  UNL1       -0.0043
     34 C         -28.6104    1.8909   31.3585 C.3     1  UNL1        0.1696
     35 C         -29.8874    0.9678   27.3809 C.2     1  UNL1        0.0010
     36 C         -28.7164    1.7196   29.8616 C.2     1  UNL1        0.0183
     37 O         -29.2890    3.0921   31.9689 O.3     1  UNL1       -0.3486
     38 C         -23.3093    1.7865   26.8843 C.2     1  UNL1        0.0807
     39 C         -25.6076   -0.0845   29.1126 C.3     1  UNL1        0.1164
     40 C         -22.4745    1.2354   27.8268 C.2     1  UNL1        0.1322
     41 C         -28.2474    0.5766   29.1102 C.2     1  UNL1        0.0637
     42 N         -27.0332    0.0144   29.4877 N.pl3   1  UNL1       -0.2351
     43 CL        -22.6456    2.6512   25.6681 Cl      1  UNL1       -0.0803
     44 C         -24.5787    1.3416   27.1247 C.2     1  UNL1        0.0091
     45 C         -29.4947    2.5814   29.1502 C.2     1  UNL1       -0.0200
     46 C         -29.2122    4.0715   29.6767 C.3     1  UNL1        0.0582
@<TRIPOS>BOND
     1     1    39    1
     2     2     7    1
     3     2     1    1
     4     3     2    2
     5     4     3    1
     6     4     5    2
     7     5     6    1
     8     6     7    2
     9     8     1    1
    10     8     9    1
    11     8    12    1
    12     9    10    1
    13    10    11    1
    14    12    11    1
    15    13    44    1
    16    14    13    1
    17    14    15    1
    18    15    18    2
    19    16    17    1
    20    16    15    1
    21    19    14    2
    22    20    21    2
    23    20    19    1
    24    21    26    1
    25    22    21    1
    26    23    22    1
    27    24    23    1
    28    24    25    1
    29    26    27    1
    30    26    13    2
    31    28    41    1
    32    29    31    1
    33    29    39    1
    34    30    40    1
    35    32    37    1
    36    33    45    2
    37    34    37    1
    38    35    28    2
    39    35    33    1
    40    36    34    1
    41    38    44    1
    42    38    40    2
    43    39    42    1
    44    40    31    1
    45    41    42    1
    46    41    36    2
    47    43    38    1
    48    44    29    2
    49    45    46    1
    50    45    36    1
    51    46    32    1
