@<TRIPOS>MOLECULE
No_4189-gen_results/8p0m/2024-11-27-11-27-31/
 35 37 0 0 0
SMALL
GASTEIGER

@<TRIPOS>ATOM
      1 C         -28.0162   -0.8135   28.8779 C.2     1  UNL1        0.0499
      2 C         -27.0636   -0.1189   28.6079 C.2     1  UNL1       -0.0317
      3 C         -25.7647   -0.3897   29.0360 C.3     1  UNL1        0.0195
      4 C         -24.5516    0.4058   28.7646 C.3     1  UNL1        0.0153
      5 C         -24.6957    1.4480   27.7988 C.3     1  UNL1        0.1045
      6 C         -25.9755    1.7250   27.3077 C.3     1  UNL1        0.0244
      7 C         -27.0718    1.0134   27.6535 C.3     1  UNL1        0.0963
      8 C         -28.6043   -0.4743   30.2323 C.2     1  UNL1        0.2485
      9 N         -28.2472    0.2907   30.9004 N.am    1  UNL1       -0.2761
     10 O         -29.7712   -1.1899   30.4620 O.2     1  UNL1       -0.2699
     11 C         -28.8770    0.6174   32.2624 C.3     1  UNL1        0.0937
     12 C         -23.5191    2.2568   27.5213 C.2     1  UNL1        0.3643
     13 O         -23.6309    3.3363   27.0694 O.co2   1  UNL1       -0.2457
     14 O         -22.2931    1.7785   27.6205 O.co2   1  UNL1       -0.2457
     15 C         -28.3861    1.3050   27.0558 C.2     1  UNL1        0.2364
     16 N         -29.0382    2.1067   27.3909 N.am    1  UNL1       -0.2359
     17 C         -28.6555    3.3606   27.6430 C.2     1  UNL1        0.0720
     18 C         -30.4779    1.8803   27.7198 C.ar    1  UNL1        0.0581
     19 O         -28.6237    0.5013   26.0166 O.2     1  UNL1       -0.2739
     20 C         -25.4508   -1.5117   30.0189 C.3     1  UNL1        0.0041
     21 C         -24.3583   -2.2453   29.8394 C.3     1  UNL1        0.0003
     22 C         -28.6397    1.6911   32.7351 C.3     1  UNL1        0.0216
     23 C         -28.4060    2.7645   32.2412 C.3     1  UNL1        0.0035
     24 C         -27.6379    2.6866   30.9758 C.3     1  UNL1        0.0216
     25 C         -27.7593    1.5957   30.4289 C.3     1  UNL1        0.0937
     26 C         -28.4995    4.2867   27.1163 C.2     1  UNL1        0.0165
     27 C         -31.4366    2.7614   27.2163 C.ar    1  UNL1        0.0152
     28 C         -32.5464    2.8064   27.8980 C.ar    1  UNL1        0.0013
     29 C         -32.9599    1.7472   28.7637 C.ar    1  UNL1        0.0001
     30 C         -31.9983    0.8105   29.1557 C.ar    1  UNL1        0.0013
     31 C         -30.7482    0.9688   28.7230 C.ar    1  UNL1        0.0152
     32 C         -27.8836    5.5691   27.5067 C.2     1  UNL1        0.0013
     33 C         -27.6529    6.6587   26.6999 C.2     1  UNL1        0.0000
     34 C         -28.5109    6.7151   25.5255 C.2     1  UNL1        0.0000
     35 C         -29.2603    5.6302   25.1607 C.2     1  UNL1        0.0000
@<TRIPOS>BOND
     1     1     2    2
     2     2     3    1
     3     3     4    1
     4     4     5    1
     5     5     6    1
     6     2     7    1
     7     6     7    1
     8     1     8    1
     9     8     9   am
    10     8    10    2
    11     9    11    1
    12     5    12    1
    13    12    13   ar
    14    12    14   ar
    15     7    15    1
    16    15    16   am
    17    16    17    1
    18    16    18    1
    19    15    19    2
    20     3    20    1
    21    20    21    1
    22    22    23    1
    23     9    25    1
    24    24    25    1
    25    17    26    2
    26    26    32    1
    27    32    33    2
    28    33    34    1
    29    34    35    2
    30    11    22    1
    31    23    24    1
    32    18    27   ar
    33    27    28   ar
    34    28    29   ar
    35    29    30   ar
    36    30    31   ar
    37    31    18   ar
