@<TRIPOS>MOLECULE
outputs/IAG933/test6/raw/output_4192_IAG933_linker_design_.xyz
 46 51 0 0 0
SMALL
GASTEIGER

@<TRIPOS>ATOM
      1 C         -24.8550   -1.0120   30.1430 C.3     1  UNL1        0.0802
      2 C         -24.9730   -2.5050   29.7880 C.2     1  UNL1       -0.0176
      3 C         -23.9060   -3.1730   29.1460 C.2     1  UNL1       -0.0041
      4 C         -23.9890   -4.5490   28.8530 C.2     1  UNL1       -0.0003
      5 C         -25.1370   -5.2800   29.2050 C.2     1  UNL1       -0.0000
      6 C         -26.2320   -4.6110   29.7840 C.2     1  UNL1       -0.0003
      7 C         -26.1550   -3.2320   30.0650 C.2     1  UNL1       -0.0041
      8 C         -25.3870   -0.6790   31.5710 C.3     1  UNL1        0.0804
      9 C         -25.1890    0.7730   32.0280 C.3     1  UNL1        0.0193
     10 C         -25.3360    0.6840   33.5440 C.3     1  UNL1        0.0202
     11 C         -24.8290   -0.7150   33.9050 C.3     1  UNL1        0.0887
     12 N         -24.7580   -1.4810   32.6460 N.3     1  UNL1       -0.2190
     13 C         -25.6880    1.6140   26.4610 C.2     1  UNL1        0.0870
     14 C         -26.2500    2.9200   26.3950 C.2     1  UNL1        0.0901
     15 C         -25.6420    4.0930   27.1230 C.2     1  UNL1        0.2545
     16 N         -25.6140    5.2520   26.4490 N.2     1  UNL1       -0.2336
     17 C         -25.0260    6.4790   26.9630 C.3     1  UNL1        0.1551
     18 O         -25.1430    3.9660   28.2430 O.2     1  UNL1       -0.3282
     19 C         -27.4380    3.0910   25.6450 C.2     1  UNL1        0.1081
     20 N         -28.0750    2.0890   25.0030 N.2     1  UNL1       -0.2080
     21 C         -27.5430    0.8490   25.0790 C.2     1  UNL1        0.2546
     22 O         -28.1930   -0.2080   24.4770 O.2     1  UNL1       -0.4558
     23 C         -29.4600    0.0050   23.8660 C.3     1  UNL1        0.2426
     24 C         -30.0650   -1.3770   23.5730 C.3     1  UNL1        0.2292
     25 O         -30.7290   -1.8780   24.7210 O.3     1  UNL1       -0.2162
     26 C         -26.3540    0.5760   25.7770 C.2     1  UNL1        0.2063
     27 F         -25.8600   -0.6810   25.7950 F       1  UNL1       -0.1979
     28 O         -21.4595    2.1715   26.0288 O.3     1  UNL1       -0.2933
     29 C         -22.7032    2.2635   26.1674 C.2     1  UNL1        0.3722
     30 C         -24.1072    0.3194   27.9393 C.3     1  UNL1        0.1441
     31 O         -23.3409    3.0731   25.5209 O.2     1  UNL1       -0.2449
     32 N         -24.5628    1.2875   27.3370 N.pl3   1  UNL1       -0.2919
     33 O         -20.9087    1.6636   27.1823 O.3     1  UNL1       -0.1584
     34 C         -25.2779    6.7904   30.8585 C.3     1  UNL1        0.0016
     35 O         -20.3328   -0.2726   28.8630 O.2     1  UNL1       -0.2472
     36 O         -22.5574   -0.3426   29.6620 O.3     1  UNL1       -0.4483
     37 C         -26.7660    4.7731   31.0747 C.3     1  UNL1        0.1165
     38 C         -21.9106    0.8928   27.8625 C.3     1  UNL1        0.2903
     39 C         -21.6146    0.0979   28.8125 C.2     1  UNL1        0.3511
     40 C         -23.2861    1.1601   27.2974 C.3     1  UNL1        0.2109
     41 S         -25.3539    3.0631   29.5739 S.3     1  UNL1        0.1074
     42 C         -23.8487   -0.2922   29.2783 C.3     1  UNL1        0.1942
     43 O         -26.3251    2.0978   29.1088 O.3     1  UNL1       -0.0441
     44 N         -25.5648    3.9999   30.8934 N.3     1  UNL1       -0.0679
     45 O         -24.0789    2.3655   29.8430 O.3     1  UNL1       -0.0441
     46 C         -26.6226    6.1818   30.4714 C.3     1  UNL1        0.0209
@<TRIPOS>BOND
     1     1     2    1
     2     2     7    1
     3     3     2    2
     4     4     3    1
     5     4     5    2
     6     5     6    1
     7     6     7    2
     8     8     1    1
     9     8     9    1
    10     8    12    1
    11     9    10    1
    12    10    11    1
    13    12    11    1
    14    13    32    1
    15    14    13    1
    16    14    15    1
    17    15    18    1
    18    16    17    1
    19    16    15    2
    20    18    41    1
    21    19    14    2
    22    20    21    2
    23    20    19    1
    24    21    26    1
    25    22    21    1
    26    23    22    1
    27    24    23    1
    28    24    25    1
    29    26    27    1
    30    26    13    2
    31    28    29    1
    32    28    33    1
    33    30    32    1
    34    30    42    1
    35    31    29    2
    36    38    33    1
    37    38    39    1
    38    39    35    2
    39    39    36    1
    40    40    29    1
    41    40    32    1
    42    40    38    1
    43    40    30    1
    44    41    45    1
    45    41    44    1
    46    42    36    1
    47    42     1    1
    48    43    41    1
    49    44    37    1
    50    46    34    1
    51    46    37    1
