@<TRIPOS>MOLECULE
outputs/IAG933/test6/raw/output_4193_IAG933_linker_design_.xyz
 46 49 0 0 0
SMALL
GASTEIGER

@<TRIPOS>ATOM
      1 C         -24.8550   -1.0120   30.1430 C.3     1  UNL1        0.0428
      2 C         -24.9730   -2.5050   29.7880 C.2     1  UNL1       -0.0208
      3 C         -23.9060   -3.1730   29.1460 C.2     1  UNL1       -0.0042
      4 C         -23.9890   -4.5490   28.8530 C.2     1  UNL1       -0.0003
      5 C         -25.1370   -5.2800   29.2050 C.2     1  UNL1       -0.0000
      6 C         -26.2320   -4.6110   29.7840 C.2     1  UNL1       -0.0003
      7 C         -26.1550   -3.2320   30.0650 C.2     1  UNL1       -0.0042
      8 C         -25.3870   -0.6790   31.5710 C.3     1  UNL1        0.0771
      9 C         -25.1890    0.7730   32.0280 C.3     1  UNL1        0.0192
     10 C         -25.3360    0.6840   33.5440 C.3     1  UNL1        0.0202
     11 C         -24.8290   -0.7150   33.9050 C.3     1  UNL1        0.0887
     12 N         -24.7580   -1.4810   32.6460 N.3     1  UNL1       -0.2191
     13 C         -25.6880    1.6140   26.4610 C.2     1  UNL1        0.0387
     14 C         -26.2500    2.9200   26.3950 C.2     1  UNL1        0.0766
     15 C         -25.6420    4.0930   27.1230 C.2     1  UNL1        0.2664
     16 N         -25.6140    5.2520   26.4490 N.am    1  UNL1       -0.1997
     17 C         -25.0260    6.4790   26.9630 C.3     1  UNL1        0.1388
     18 O         -25.1430    3.9660   28.2430 O.2     1  UNL1       -0.2683
     19 C         -27.4380    3.0910   25.6450 C.2     1  UNL1        0.1067
     20 N         -28.0750    2.0890   25.0030 N.2     1  UNL1       -0.2081
     21 C         -27.5430    0.8490   25.0790 C.2     1  UNL1        0.2533
     22 O         -28.1930   -0.2080   24.4770 O.2     1  UNL1       -0.4558
     23 C         -29.4600    0.0050   23.8660 C.3     1  UNL1        0.2426
     24 C         -30.0650   -1.3770   23.5730 C.3     1  UNL1        0.2292
     25 O         -30.7290   -1.8780   24.7210 O.3     1  UNL1       -0.2162
     26 C         -26.3540    0.5760   25.7770 C.2     1  UNL1        0.1931
     27 F         -25.8600   -0.6810   25.7950 F       1  UNL1       -0.1992
     28 C         -30.8871    1.3868   27.8747 C.2     1  UNL1        0.2560
     29 C         -27.0844    1.0683   29.2258 C.3     1  UNL1        0.0926
     30 C         -32.1429    1.9745   28.2536 C.3     1  UNL1        0.0793
     31 O         -28.7870   -0.2288   28.1281 O.2     1  UNL1       -0.2723
     32 C         -33.3274    1.2434   28.5189 C.3     1  UNL1        0.0096
     33 C         -24.5314    1.3032   27.2730 C.2     1  UNL1        0.0113
     34 O         -29.3136    3.0319   28.6777 O.3     1  UNL1       -0.0853
     35 C         -23.3827    0.3489   29.1463 C.2     1  UNL1       -0.0019
     36 C         -22.0871    1.4125   27.4367 C.2     1  UNL1        0.1506
     37 C         -22.1223    0.7430   28.6551 C.2     1  UNL1        0.0302
     38 C         -24.6015    0.6230   28.5424 C.2     1  UNL1       -0.0206
     39 N         -29.6072    1.8068   28.4203 N.am    1  UNL1       -0.0793
     40 O         -31.2464    0.8485   26.4465 O.2     1  UNL1       -0.2723
     41 C         -23.2577    1.6847   26.7810 C.2     1  UNL1        0.0848
     42 C         -28.6277    0.8522   28.5728 C.2     1  UNL1        0.2569
     43 C         -25.8102   -0.0390   29.2482 C.3     1  UNL1        0.0369
     44 F         -20.9118    1.7981   26.8936 F       1  UNL1       -0.2033
     45 C         -32.2270    3.5359   28.3394 C.3     1  UNL1        0.0096
     46 CL        -23.0203    2.7119   25.4669 Cl      1  UNL1       -0.0799
@<TRIPOS>BOND
     1     1    43    1
     2     2     7    1
     3     2     1    1
     4     3     2    2
     5     4     3    1
     6     4     5    2
     7     5     6    1
     8     6     7    2
     9     8     1    1
    10     8     9    1
    11     8    12    1
    12     9    10    1
    13    10    11    1
    14    12    11    1
    15    13    33    1
    16    14    13    1
    17    14    15    1
    18    15    18    2
    19    16    17    1
    20    16    15    1
    21    19    14    2
    22    20    21    2
    23    20    19    1
    24    21    26    1
    25    22    21    1
    26    23    22    1
    27    24    23    1
    28    24    25    1
    29    26    27    1
    30    26    13    2
    31    28    30    1
    32    28    39   am
    33    30    45    1
    34    30    32    1
    35    31    42    2
    36    33    38    1
    37    36    37    2
    38    37    35    1
    39    38    35    2
    40    38    43    1
    41    39    42   am
    42    39    34    1
    43    40    28    2
    44    41    33    2
    45    41    36    1
    46    42    29    1
    47    43    29    1
    48    44    36    1
    49    46    41    1
