@<TRIPOS>MOLECULE
outputs/IAG933/test6/raw/output_4194_IAG933_linker_design_.xyz
 46 51 0 0 0
SMALL
GASTEIGER

@<TRIPOS>ATOM
      1 C         -24.8550   -1.0120   30.1430 C.3     1  UNL1        0.0438
      2 C         -24.9730   -2.5050   29.7880 C.2     1  UNL1       -0.0208
      3 C         -23.9060   -3.1730   29.1460 C.2     1  UNL1       -0.0042
      4 C         -23.9890   -4.5490   28.8530 C.2     1  UNL1       -0.0003
      5 C         -25.1370   -5.2800   29.2050 C.2     1  UNL1       -0.0000
      6 C         -26.2320   -4.6110   29.7840 C.2     1  UNL1       -0.0003
      7 C         -26.1550   -3.2320   30.0650 C.2     1  UNL1       -0.0042
      8 C         -25.3870   -0.6790   31.5710 C.3     1  UNL1        0.0797
      9 C         -25.1890    0.7730   32.0280 C.3     1  UNL1        0.0482
     10 C         -25.3360    0.6840   33.5440 C.3     1  UNL1        0.0229
     11 C         -24.8290   -0.7150   33.9050 C.3     1  UNL1        0.0888
     12 N         -24.7580   -1.4810   32.6460 N.3     1  UNL1       -0.2190
     13 C         -25.6880    1.6140   26.4610 C.3     1  UNL1        0.0914
     14 C         -26.2500    2.9200   26.3950 C.2     1  UNL1        0.0587
     15 C         -25.6420    4.0930   27.1230 C.2     1  UNL1        0.2627
     16 N         -25.6140    5.2520   26.4490 N.am    1  UNL1       -0.2000
     17 C         -25.0260    6.4790   26.9630 C.3     1  UNL1        0.1388
     18 O         -25.1430    3.9660   28.2430 O.2     1  UNL1       -0.2686
     19 C         -27.4380    3.0910   25.6450 C.2     1  UNL1        0.1025
     20 N         -28.0750    2.0890   25.0030 N.2     1  UNL1       -0.2118
     21 C         -27.5430    0.8490   25.0790 C.2     1  UNL1        0.2344
     22 O         -28.1930   -0.2080   24.4770 O.2     1  UNL1       -0.4585
     23 C         -29.4600    0.0050   23.8660 C.3     1  UNL1        0.2423
     24 C         -30.0650   -1.3770   23.5730 C.3     1  UNL1        0.2292
     25 O         -30.7290   -1.8780   24.7210 O.3     1  UNL1       -0.2162
     26 C         -26.3540    0.5760   25.7770 C.3     1  UNL1        0.2438
     27 F         -25.8600   -0.6810   25.7950 F       1  UNL1       -0.2265
     28 C         -21.6456    1.6293   27.6268 C.3     1  UNL1        0.2879
     29 C         -24.1306    3.6274   32.0482 C.3     1  UNL1        0.0584
     30 C         -25.9192    4.9603   33.2377 C.2     1  UNL1       -0.0245
     31 C         -23.9884    1.0728   27.8414 C.3     1  UNL1        0.0320
     32 C         -22.9888    1.6919   30.2061 C.3     1  UNL1        0.1427
     33 O         -21.8864    2.2161   26.3592 O.2     1  UNL1       -0.4501
     34 C         -20.8991   -0.2639   29.3594 C.3     1  UNL1        0.0349
     35 C         -24.3953    1.5686   26.7667 C.2     1  UNL1        0.0002
     36 N         -27.7883    2.5731   31.3389 N.2     1  UNL1       -0.1546
     37 C         -23.2552    2.1802   25.8876 C.2     1  UNL1        0.1669
     38 C         -26.6968    2.9150   31.9061 C.2     1  UNL1        0.0872
     39 O         -24.5185    2.1053   30.0676 O.3     1  UNL1       -0.3529
     40 C         -24.6094    4.8490   32.7959 C.2     1  UNL1       -0.0275
     41 C         -19.9266    0.0730   28.3685 C.3     1  UNL1        0.1460
     42 O         -20.1977    1.3546   27.7990 O.3     1  UNL1       -0.3206
     43 C         -22.2933    0.4661   29.4807 C.3     1  UNL1        0.0386
     44 C         -22.6055    0.5055   28.0078 C.3     1  UNL1        0.0769
     45 C         -25.1682    2.3956   31.4814 C.3     1  UNL1        0.1310
     46 C         -26.9470    4.0340   32.8137 C.3     1  UNL1        0.0711
@<TRIPOS>BOND
     1     2     7    1
     2     2     1    1
     3     3     2    2
     4     4     3    1
     5     4     5    2
     6     5     6    1
     7     6     7    2
     8     8     1    1
     9     8     9    1
    10     8    12    1
    11     9    10    1
    12    10    11    1
    13    12    11    1
    14    13    35    1
    15    14    13    1
    16    14    15    1
    17    15    18    2
    18    16    17    1
    19    16    15    1
    20    19    14    2
    21    20    21    2
    22    20    19    1
    23    21    26    1
    24    22    21    1
    25    23    22    1
    26    24    23    1
    27    24    25    1
    28    26    27    1
    29    26    13    1
    30    28    33    1
    31    28    42    1
    32    28    44    1
    33    29    40    1
    34    34    43    1
    35    35    31    1
    36    36    38    2
    37    37    33    1
    38    37    35    2
    39    38    46    1
    40    39    32    1
    41    40    30    2
    42    41    34    1
    43    42    41    1
    44    43    32    1
    45    44    31    1
    46    44    43    1
    47    45    39    1
    48    45    38    1
    49    45     9    1
    50    45    29    1
    51    46    30    1
