@<TRIPOS>MOLECULE
outputs/IAG933/test6/raw/output_4199_IAG933_linker_design_.xyz
 39 43 0 0 0
SMALL
GASTEIGER

@<TRIPOS>ATOM
      1 C         -24.8550   -1.0120   30.1430 C.3     1  UNL1        0.1180
      2 C         -24.9730   -2.5050   29.7880 C.2     1  UNL1       -0.0026
      3 C         -23.9060   -3.1730   29.1460 C.2     1  UNL1       -0.0026
      4 C         -23.9890   -4.5490   28.8530 C.2     1  UNL1       -0.0003
      5 C         -25.1370   -5.2800   29.2050 C.2     1  UNL1       -0.0000
      6 C         -26.2320   -4.6110   29.7840 C.2     1  UNL1       -0.0003
      7 C         -26.1550   -3.2320   30.0650 C.2     1  UNL1       -0.0026
      8 C         -25.3870   -0.6790   31.5710 C.3     1  UNL1        0.0955
      9 C         -25.1890    0.7730   32.0280 C.3     1  UNL1        0.0209
     10 C         -25.3360    0.6840   33.5440 C.3     1  UNL1        0.0203
     11 C         -24.8290   -0.7150   33.9050 C.3     1  UNL1        0.0888
     12 N         -24.7580   -1.4810   32.6460 N.3     1  UNL1       -0.2174
     13 C         -25.6880    1.6140   26.4610 C.3     1  UNL1        0.0830
     14 C         -26.2500    2.9200   26.3950 C.2     1  UNL1        0.0556
     15 C         -25.6420    4.0930   27.1230 C.2     1  UNL1        0.2625
     16 N         -25.6140    5.2520   26.4490 N.am    1  UNL1       -0.2000
     17 C         -25.0260    6.4790   26.9630 C.3     1  UNL1        0.1388
     18 O         -25.1430    3.9660   28.2430 O.2     1  UNL1       -0.2687
     19 C         -27.4380    3.0910   25.6450 C.2     1  UNL1        0.1022
     20 N         -28.0750    2.0890   25.0030 N.2     1  UNL1       -0.2119
     21 C         -27.5430    0.8490   25.0790 C.2     1  UNL1        0.2341
     22 O         -28.1930   -0.2080   24.4770 O.2     1  UNL1       -0.4585
     23 C         -29.4600    0.0050   23.8660 C.3     1  UNL1        0.2423
     24 C         -30.0650   -1.3770   23.5730 C.3     1  UNL1        0.2292
     25 O         -30.7290   -1.8780   24.7210 O.3     1  UNL1       -0.2162
     26 C         -26.3540    0.5760   25.7770 C.3     1  UNL1        0.2408
     27 F         -25.8600   -0.6810   25.7950 F       1  UNL1       -0.2269
     28 O         -23.2500    2.1728   25.1248 O.3     1  UNL1        0.0284
     29 N         -24.4191   -0.1145   29.2694 N.am    1  UNL1       -0.2549
     30 C         -20.8680    0.8050   28.6368 C.2     1  UNL1        0.0045
     31 C         -22.3486    1.8224   27.1528 C.2     1  UNL1        0.1835
     32 O         -26.3667    1.1349   28.9985 O.2     1  UNL1       -0.2742
     33 O         -22.6475    2.7512   26.1912 O.2     1  UNL1       -0.3033
     34 C         -24.7971    1.2673   27.3797 C.3     1  UNL1        0.1109
     35 C         -21.0610    1.6680   27.5722 C.2     1  UNL1        0.0408
     36 C         -21.9253    0.1407   29.2093 C.2     1  UNL1        0.0148
     37 C         -23.4426    1.1959   27.7170 C.2     1  UNL1        0.0382
     38 C         -23.2188    0.3383   28.7845 C.2     1  UNL1        0.0536
     39 C         -25.2475    0.7727   28.5641 C.2     1  UNL1        0.2338
@<TRIPOS>BOND
     1     1     2    1
     2     2     7    1
     3     3     2    2
     4     4     3    1
     5     4     5    2
     6     5     6    1
     7     6     7    2
     8     8     1    1
     9     8     9    1
    10     8    12    1
    11     9    10    1
    12    10    11    1
    13    12    11    1
    14    13    14    1
    15    13    34    1
    16    14    15    1
    17    15    18    2
    18    16    17    1
    19    16    15    1
    20    19    14    2
    21    20    21    2
    22    20    19    1
    23    21    26    1
    24    22    21    1
    25    23    22    1
    26    24    23    1
    27    24    25    1
    28    26    27    1
    29    26    13    1
    30    28    33    1
    31    29     1    1
    32    30    36    1
    33    31    35    1
    34    31    37    2
    35    33    31    1
    36    34    37    1
    37    34    39    1
    38    35    30    2
    39    37    38    1
    40    38    36    2
    41    38    29    1
    42    39    32    2
    43    39    29   am
