@<TRIPOS>MOLECULE
outputs/IAG933/test6/raw/output_42_IAG933_linker_design_.xyz
 46 50 0 0 0
SMALL
GASTEIGER

@<TRIPOS>ATOM
      1 C         -24.8550   -1.0120   30.1430 C.3     1  UNL1        0.0440
      2 C         -24.9730   -2.5050   29.7880 C.2     1  UNL1       -0.0208
      3 C         -23.9060   -3.1730   29.1460 C.2     1  UNL1       -0.0042
      4 C         -23.9890   -4.5490   28.8530 C.2     1  UNL1       -0.0003
      5 C         -25.1370   -5.2800   29.2050 C.2     1  UNL1       -0.0000
      6 C         -26.2320   -4.6110   29.7840 C.2     1  UNL1       -0.0003
      7 C         -26.1550   -3.2320   30.0650 C.2     1  UNL1       -0.0042
      8 C         -25.3870   -0.6790   31.5710 C.3     1  UNL1        0.0815
      9 C         -25.1890    0.7730   32.0280 C.3     1  UNL1        0.0456
     10 C         -25.3360    0.6840   33.5440 C.3     1  UNL1        0.0249
     11 C         -24.8290   -0.7150   33.9050 C.3     1  UNL1        0.0891
     12 N         -24.7580   -1.4810   32.6460 N.3     1  UNL1       -0.2188
     13 C         -25.6880    1.6140   26.4610 C.2     1  UNL1        0.0866
     14 C         -26.2500    2.9200   26.3950 C.2     1  UNL1        0.0899
     15 C         -25.6420    4.0930   27.1230 C.2     1  UNL1        0.2676
     16 N         -25.6140    5.2520   26.4490 N.am    1  UNL1       -0.1997
     17 C         -25.0260    6.4790   26.9630 C.3     1  UNL1        0.1388
     18 O         -25.1430    3.9660   28.2430 O.2     1  UNL1       -0.2683
     19 C         -27.4380    3.0910   25.6450 C.2     1  UNL1        0.1080
     20 N         -28.0750    2.0890   25.0030 N.2     1  UNL1       -0.2080
     21 C         -27.5430    0.8490   25.0790 C.2     1  UNL1        0.2546
     22 O         -28.1930   -0.2080   24.4770 O.2     1  UNL1       -0.4558
     23 C         -29.4600    0.0050   23.8660 C.3     1  UNL1        0.2426
     24 C         -30.0650   -1.3770   23.5730 C.3     1  UNL1        0.2292
     25 O         -30.7290   -1.8780   24.7210 O.3     1  UNL1       -0.2162
     26 C         -26.3540    0.5760   25.7770 C.2     1  UNL1        0.2063
     27 F         -25.8600   -0.6810   25.7950 F       1  UNL1       -0.1979
     28 C         -26.3242    6.5429   35.4983 C.3     1  UNL1        0.0613
     29 C         -24.8742    6.2946   32.4713 C.3     1  UNL1        0.2057
     30 C         -23.0947    1.9052   26.1980 C.3     1  UNL1        0.0915
     31 C         -25.0167    3.3271   31.4011 C.3     1  UNL1        0.1746
     32 O         -24.4475    3.7763   32.4712 O.3     1  UNL1       -0.3234
     33 C         -24.3191    0.2209   27.8614 C.3     1  UNL1        0.1211
     34 C         -24.8686    1.8555   31.0310 C.2     1  UNL1        0.0201
     35 O         -25.7542    5.2694   31.6725 O.3     1  UNL1       -0.2999
     36 O         -25.3923    6.8793   33.4998 O.3     1  UNL1       -0.3288
     37 O         -26.5739    4.7174   33.7859 O.3     1  UNL1       -0.3065
     38 C         -21.8091    1.3677   26.8916 C.3     1  UNL1        0.0264
     39 C         -23.3648    0.9701   28.7828 C.2     1  UNL1        0.0093
     40 C         -26.5662    4.4243   32.4019 C.3     1  UNL1        0.2976
     41 C         -27.7474    6.9566   33.4327 C.3     1  UNL1        0.0613
     42 C         -24.3904    4.9506   32.2340 C.3     1  UNL1        0.2683
     43 C         -26.5344    6.1760   34.0059 C.3     1  UNL1        0.1902
     44 C         -24.1069    1.5826   29.7739 C.1     1  UNL1       -0.1148
     45 C         -22.0551    0.8924   28.3046 C.3     1  UNL1        0.0332
     46 N         -24.3824    1.3281   26.9084 N.pl3   1  UNL1       -0.3013
@<TRIPOS>BOND
     1     2     7    1
     2     2     1    1
     3     3     2    2
     4     4     3    1
     5     4     5    2
     6     5     6    1
     7     6     7    2
     8     8     1    1
     9     8     9    1
    10     8    12    1
    11     9    34    1
    12     9    10    1
    13    10    11    1
    14    12    11    1
    15    13    46    1
    16    14    13    1
    17    14    15    1
    18    15    18    2
    19    16    17    1
    20    16    15    1
    21    19    14    2
    22    20    21    2
    23    20    19    1
    24    21    26    1
    25    22    21    1
    26    23    22    1
    27    24    23    1
    28    24    25    1
    29    26    27    1
    30    26    13    2
    31    29    36    1
    32    30    38    1
    33    30    46    1
    34    31    32    1
    35    33    39    1
    36    34    31    1
    37    35    42    1
    38    35    40    1
    39    36    43    1
    40    37    43    1
    41    38    45    1
    42    39    44    2
    43    40    37    1
    44    41    43    1
    45    42    32    1
    46    42    29    1
    47    43    28    1
    48    44    34    2
    49    45    39    1
    50    46    33    1
