@<TRIPOS>MOLECULE
No_420-gen_results/8p0m/2024-11-27-11-27-31/
 9 9 0 0 0
SMALL
GASTEIGER

@<TRIPOS>ATOM
      1 C         -28.0162   -0.8135   28.8779 C.ar    1  UNL1        0.0339
      2 C         -28.4690   -0.7850   29.8287 C.ar    1  UNL1        0.1250
      3 C         -27.0871    0.2903   28.6377 C.ar    1  UNL1        0.0593
      4 C         -26.8317    1.2487   29.5869 C.ar    1  UNL1        0.0115
      5 C         -28.3914    0.0801   31.0065 C.ar    1  UNL1        0.0226
      6 C         -27.4940    1.1521   30.7841 C.ar    1  UNL1        0.0025
      7 CL        -26.2087    0.3944   27.1645 Cl      1  UNL1       -0.0822
      8 N         -29.4064   -1.9214   30.1982 N.2     1  UNL1       -0.0294
      9 O         -29.1656   -3.0735   30.1675 O.2     1  UNL1       -0.1432
@<TRIPOS>BOND
     1     3     7    1
     2     2     8    1
     3     8     9    2
     4     1     2   ar
     5     2     5   ar
     6     5     6   ar
     7     6     4   ar
     8     4     3   ar
     9     3     1   ar
