@<TRIPOS>MOLECULE
No_4202-gen_results/8p0m/2024-11-27-11-27-31/
 35 38 0 0 0
SMALL
GASTEIGER

@<TRIPOS>ATOM
      1 C         -28.0162   -0.8135   28.8779 C.ar    1  UNL1        0.0665
      2 C         -27.0636   -0.1190   28.6079 C.ar    1  UNL1        0.1407
      3 C         -25.7647   -0.3897   29.0360 C.ar    1  UNL1        0.0342
      4 C         -25.5296   -1.5303   29.9014 C.ar    1  UNL1        0.0053
      5 C         -26.6888   -2.2893   30.1810 C.ar    1  UNL1        0.0298
      6 C         -27.8727   -1.9508   29.7373 C.ar    1  UNL1        0.1432
      7 F         -28.8984   -2.7212   30.0727 F       1  UNL1       -0.2041
      8 C         -24.5420    0.4303   28.7469 C.ar    1  UNL1        0.0059
      9 C         -24.5385    1.2872   27.7172 C.ar    1  UNL1        0.0370
     10 C         -23.3354    2.0020   27.3968 C.ar    1  UNL1        0.1387
     11 C         -22.1435    1.7581   28.0423 C.ar    1  UNL1        0.0369
     12 C         -23.2985    0.1547   29.3680 C.ar    1  UNL1        0.0003
     13 C         -22.1054    0.8375   29.0310 C.ar    1  UNL1        0.0031
     14 O         -23.2311    2.8530   26.3557 O.3     1  UNL1       -0.4714
     15 C         -23.2999    2.2590   25.1742 C.3     1  UNL1        0.2525
     16 O         -27.1731    0.9676   27.7568 O.3     1  UNL1       -0.4750
     17 C         -27.6339    0.8752   26.4844 C.3     1  UNL1        0.2101
     18 C         -28.3870    1.8861   26.0311 C.3     1  UNL1        0.0737
     19 C         -29.6453    1.8768   26.1775 C.ar    1  UNL1       -0.0154
     20 C         -30.4200    2.8215   25.5672 C.ar    1  UNL1       -0.0039
     21 C         -31.8363    2.9074   25.5836 C.ar    1  UNL1        0.0028
     22 C         -32.4541    1.9499   26.3077 C.ar    1  UNL1        0.0375
     23 C         -31.7815    0.9752   26.9634 C.ar    1  UNL1        0.1450
     24 C         -30.4357    0.9213   26.8983 C.ar    1  UNL1        0.0333
     25 O         -32.5783    0.2999   27.8020 O.3     1  UNL1       -0.4535
     26 C         -32.5312   -1.0213   27.7799 C.ar    1  UNL1        0.1453
     27 C         -33.7134   -1.7181   28.0802 C.ar    1  UNL1        0.0372
     28 C         -33.6435   -3.1070   27.9961 C.ar    1  UNL1        0.0002
     29 C         -32.3933   -3.7206   27.6305 C.ar    1  UNL1       -0.0063
     30 C         -31.3511   -3.0110   27.1966 C.ar    1  UNL1        0.0002
     31 C         -31.3802   -1.6766   27.3105 C.ar    1  UNL1        0.0372
     32 C         -32.4367   -5.2374   27.5292 C.3     1  UNL1        0.0950
     33 C         -31.1666   -5.7793   27.6374 C.3     1  UNL1        0.0236
     34 N         -33.1991   -5.8396   28.5718 N.3     1  UNL1       -0.2135
     35 C         -33.2047   -6.7556   29.0240 C.3     1  UNL1        0.1078
@<TRIPOS>BOND
     1     6     7    1
     2     3     8    1
     3    10    14    1
     4    14    15    1
     5     2    16    1
     6    16    17    1
     7    17    18    1
     8    18    19    1
     9    23    25    1
    10    25    26    1
    11    29    32    1
    12    32    33    1
    13    32    34    1
    14    34    35    1
    15    26    27   ar
    16    27    28   ar
    17    28    29   ar
    18    29    30   ar
    19    30    31   ar
    20    31    26   ar
    21     1     2   ar
    22     2     3   ar
    23     3     4   ar
    24     4     5   ar
    25     5     6   ar
    26     6     1   ar
    27    19    20   ar
    28    20    21   ar
    29    21    22   ar
    30    22    23   ar
    31    23    24   ar
    32    24    19   ar
    33     8     9   ar
    34     9    10   ar
    35    10    11   ar
    36    11    13   ar
    37    13    12   ar
    38    12     8   ar
