@<TRIPOS>MOLECULE
No_4203-gen_results/8p0m/2024-11-27-11-27-31/
 13 13 0 0 0
SMALL
GASTEIGER

@<TRIPOS>ATOM
      1 C         -28.0162   -0.8135   28.8779 C.ar    1  UNL1       -0.0003
      2 C         -28.4690   -0.7850   29.8287 C.ar    1  UNL1       -0.0000
      3 C         -26.5042   -0.7777   28.8766 C.ar    1  UNL1       -0.0040
      4 C         -25.8103   -0.8531   30.1028 C.ar    1  UNL1       -0.0184
      5 C         -27.9906   -0.8916   31.2257 C.ar    1  UNL1       -0.0003
      6 C         -24.3976   -0.8364   30.1775 C.3     1  UNL1        0.0443
      7 C         -26.5754   -0.8899   31.2661 C.ar    1  UNL1       -0.0040
      8 C         -23.7708   -0.9176   31.0960 C.3     1  UNL1        0.0094
      9 C         -23.6556   -0.7144   28.8858 C.2     1  UNL1       -0.0221
     10 C         -23.9355   -0.0136   27.8203 C.2     1  UNL1       -0.0046
     11 C         -23.1207    1.2414   27.5596 C.2     1  UNL1       -0.0049
     12 C         -21.9970    1.5091   28.2776 C.2     1  UNL1       -0.0258
     13 C         -21.3839    0.4569   28.9830 C.3     1  UNL1        0.0307
@<TRIPOS>BOND
     1     4     6    1
     2     6     8    1
     3     6     9    1
     4     9    10    2
     5    10    11    1
     6    11    12    2
     7    12    13    1
     8     1     2   ar
     9     2     5   ar
    10     5     7   ar
    11     7     4   ar
    12     4     3   ar
    13     3     1   ar
