@<TRIPOS>MOLECULE
outputs/IAG933/test6/raw/output_4205_IAG933_linker_design_.xyz
 42 45 0 0 0
SMALL
GASTEIGER

@<TRIPOS>ATOM
      1 C         -24.8550   -1.0120   30.1430 C.3     1  UNL1        0.2068
      2 C         -24.9730   -2.5050   29.7880 C.2     1  UNL1        0.0187
      3 C         -23.9060   -3.1730   29.1460 C.2     1  UNL1       -0.0008
      4 C         -23.9890   -4.5490   28.8530 C.2     1  UNL1       -0.0002
      5 C         -25.1370   -5.2800   29.2050 C.2     1  UNL1       -0.0000
      6 C         -26.2320   -4.6110   29.7840 C.2     1  UNL1       -0.0002
      7 C         -26.1550   -3.2320   30.0650 C.2     1  UNL1       -0.0008
      8 C         -25.3870   -0.6790   31.5710 C.3     1  UNL1        0.1171
      9 C         -25.1890    0.7730   32.0280 C.3     1  UNL1        0.0229
     10 C         -25.3360    0.6840   33.5440 C.3     1  UNL1        0.0204
     11 C         -24.8290   -0.7150   33.9050 C.3     1  UNL1        0.0888
     12 N         -24.7580   -1.4810   32.6460 N.3     1  UNL1       -0.2154
     13 C         -25.6880    1.6140   26.4610 C.2     1  UNL1        0.0407
     14 C         -26.2500    2.9200   26.3950 C.2     1  UNL1        0.0748
     15 C         -25.6420    4.0930   27.1230 C.2     1  UNL1        0.2265
     16 N         -25.6140    5.2520   26.4490 N.2     1  UNL1       -0.2353
     17 C         -25.0260    6.4790   26.9630 C.3     1  UNL1        0.1550
     18 O         -25.1430    3.9660   28.2430 O.2     1  UNL1       -0.4394
     19 C         -27.4380    3.0910   25.6450 C.2     1  UNL1        0.1068
     20 N         -28.0750    2.0890   25.0030 N.2     1  UNL1       -0.2081
     21 C         -27.5430    0.8490   25.0790 C.2     1  UNL1        0.2533
     22 O         -28.1930   -0.2080   24.4770 O.2     1  UNL1       -0.4558
     23 C         -29.4600    0.0050   23.8660 C.3     1  UNL1        0.2426
     24 C         -30.0650   -1.3770   23.5730 C.3     1  UNL1        0.2292
     25 O         -30.7290   -1.8780   24.7210 O.3     1  UNL1       -0.2162
     26 C         -26.3540    0.5760   25.7770 C.2     1  UNL1        0.1931
     27 F         -25.8600   -0.6810   25.7950 F       1  UNL1       -0.1992
     28 C         -21.0488    1.4493   27.5701 C.3     1  UNL1        0.0728
     29 C         -23.5225    0.2848   29.1350 C.2     1  UNL1        0.3242
     30 O         -22.8211    2.3263   26.1864 O.2     1  UNL1       -0.2955
     31 C         -23.5430    1.6644   28.4660 C.3     1  UNL1        0.1637
     32 C         -26.3015    5.9836   31.4334 C.3     1  UNL1        0.2406
     33 C         -25.7572    3.9620   30.3265 C.2     1  UNL1        0.0967
     34 O         -24.8963   -0.1049   29.1086 O.3     1  UNL1       -0.4459
     35 O         -27.3018    5.3844   32.2742 O.3     1  UNL1       -0.3325
     36 N         -26.5843    4.9217   30.4795 N.pl3   1  UNL1       -0.2769
     37 C         -24.1584    2.3032   29.7353 C.3     1  UNL1        0.0845
     38 O         -22.4235   -0.2426   29.7917 O.2     1  UNL1       -0.2496
     39 C         -25.0509    3.4586   29.3341 C.2     1  UNL1        0.1401
     40 C         -22.4825    1.8932   27.3305 C.2     1  UNL1        0.1618
     41 C         -28.5040    5.3873   31.6262 C.3     1  UNL1        0.1656
     42 C         -27.8696    4.9142   30.2505 C.3     1  UNL1        0.1252
@<TRIPOS>BOND
     1     1    34    1
     2     2     7    1
     3     2     1    1
     4     3     2    2
     5     4     3    1
     6     4     5    2
     7     5     6    1
     8     6     7    2
     9     8     1    1
    10     8     9    1
    11     8    12    1
    12     9    10    1
    13    10    11    1
    14    12    11    1
    15    14    13    1
    16    14    15    1
    17    15    18    1
    18    16    17    1
    19    16    15    2
    20    18    39    1
    21    19    14    2
    22    20    21    2
    23    20    19    1
    24    21    26    1
    25    22    21    1
    26    23    22    1
    27    24    23    1
    28    24    25    1
    29    26    27    1
    30    26    13    2
    31    29    38    2
    32    30    40    2
    33    31    29    1
    34    31    37    1
    35    32    35    1
    36    33    36    1
    37    34    29    1
    38    36    32    1
    39    39    37    1
    40    39    33    2
    41    40    28    1
    42    40    31    1
    43    41    35    1
    44    42    36    1
    45    42    41    1
