@<TRIPOS>MOLECULE
outputs/IAG933/test6/raw/output_4207_IAG933_linker_design_.xyz
 44 47 0 0 0
SMALL
GASTEIGER

@<TRIPOS>ATOM
      1 C         -24.8550   -1.0120   30.1430 C.3     1  UNL1        0.0447
      2 C         -24.9730   -2.5050   29.7880 C.2     1  UNL1       -0.0208
      3 C         -23.9060   -3.1730   29.1460 C.2     1  UNL1       -0.0042
      4 C         -23.9890   -4.5490   28.8530 C.2     1  UNL1       -0.0003
      5 C         -25.1370   -5.2800   29.2050 C.2     1  UNL1       -0.0000
      6 C         -26.2320   -4.6110   29.7840 C.2     1  UNL1       -0.0003
      7 C         -26.1550   -3.2320   30.0650 C.2     1  UNL1       -0.0042
      8 C         -25.3870   -0.6790   31.5710 C.3     1  UNL1        0.0894
      9 C         -25.1890    0.7730   32.0280 C.3     1  UNL1        0.0945
     10 C         -25.3360    0.6840   33.5440 C.3     1  UNL1        0.0335
     11 C         -24.8290   -0.7150   33.9050 C.3     1  UNL1        0.0897
     12 N         -24.7580   -1.4810   32.6460 N.3     1  UNL1       -0.2181
     13 C         -25.6880    1.6140   26.4610 C.2     1  UNL1        0.0912
     14 C         -26.2500    2.9200   26.3950 C.2     1  UNL1        0.0902
     15 C         -25.6420    4.0930   27.1230 C.2     1  UNL1        0.2676
     16 N         -25.6140    5.2520   26.4490 N.am    1  UNL1       -0.1997
     17 C         -25.0260    6.4790   26.9630 C.3     1  UNL1        0.1388
     18 O         -25.1430    3.9660   28.2430 O.2     1  UNL1       -0.2683
     19 C         -27.4380    3.0910   25.6450 C.2     1  UNL1        0.1080
     20 N         -28.0750    2.0890   25.0030 N.2     1  UNL1       -0.2080
     21 C         -27.5430    0.8490   25.0790 C.2     1  UNL1        0.2546
     22 O         -28.1930   -0.2080   24.4770 O.2     1  UNL1       -0.4558
     23 C         -29.4600    0.0050   23.8660 C.3     1  UNL1        0.2426
     24 C         -30.0650   -1.3770   23.5730 C.3     1  UNL1        0.2292
     25 O         -30.7290   -1.8780   24.7210 O.3     1  UNL1       -0.2162
     26 C         -26.3540    0.5760   25.7770 C.2     1  UNL1        0.2066
     27 F         -25.8600   -0.6810   25.7950 F       1  UNL1       -0.1979
     28 C         -25.5045    4.6582   32.3659 C.3     1  UNL1        0.0306
     29 N         -25.4606    2.2281   29.8544 N.2     1  UNL1       -0.1889
     30 C         -23.3701    1.1557   26.5158 C.3     1  UNL1        0.0997
     31 C         -21.0003    1.9665   26.8667 C.3     1  UNL1        0.0045
     32 C         -22.3583    1.8060   27.3948 C.3     1  UNL1        0.0532
     33 C         -26.6994    5.6879   32.0410 C.3     1  UNL1        0.0197
     34 C         -26.4402    6.8222   33.0152 C.3     1  UNL1        0.0722
     35 C         -25.3065    1.3730   28.7918 C.2     1  UNL1        0.1763
     36 N         -24.9241    6.6969   33.3782 N.3     1  UNL1       -0.2715
     37 C         -24.8171    6.2783   34.7657 C.3     1  UNL1        0.0896
     38 C         -24.7269    3.3624   31.9464 C.3     1  UNL1        0.0905
     39 C         -24.3050    5.5706   32.6915 C.3     1  UNL1        0.0731
     40 C         -22.3936    1.0163   28.7667 C.3     1  UNL1        0.1837
     41 N         -24.6597    1.3142   27.3468 N.pl3   1  UNL1       -0.2675
     42 O         -27.2983    2.4600   31.5402 O.3     1  UNL1       -0.1499
     43 O         -22.9697    1.7338   29.7257 O.3     1  UNL1       -0.2204
     44 S         -25.7751    2.2695   31.2786 S.3     1  UNL1        0.0183
@<TRIPOS>BOND
     1     2     7    1
     2     2     1    1
     3     3     2    2
     4     4     3    1
     5     4     5    2
     6     5     6    1
     7     6     7    2
     8     8     1    1
     9     8     9    1
    10     8    12    1
    11     9    44    1
    12     9    10    1
    13    10    11    1
    14    12    11    1
    15    13    41    1
    16    14    13    1
    17    14    15    1
    18    15    18    2
    19    16    17    1
    20    16    15    1
    21    19    14    2
    22    20    21    2
    23    20    19    1
    24    21    26    1
    25    22    21    1
    26    23    22    1
    27    24    23    1
    28    24    25    1
    29    26    27    1
    30    26    13    2
    31    28    38    1
    32    28    39    1
    33    29    44    1
    34    30    41    1
    35    30    32    1
    36    32    31    1
    37    32    40    1
    38    33    28    1
    39    33    34    1
    40    34    36    1
    41    35    29    2
    42    36    37    1
    43    39    36    1
    44    40    43    1
    45    41    35    1
    46    44    42    1
    47    44    38    1
