@<TRIPOS>MOLECULE
No_421-gen_results/8p0m/2024-11-27-11-27-31/
 15 15 0 0 0
SMALL
GASTEIGER

@<TRIPOS>ATOM
      1 C         -28.0162   -0.8135   28.8779 C.ar    1  UNL1        0.0166
      2 C         -27.0636   -0.1190   28.6079 C.ar    1  UNL1        0.0728
      3 C         -25.7923   -0.4302   29.0761 C.ar    1  UNL1        0.0166
      4 C         -25.5756   -1.5654   29.9363 C.ar    1  UNL1        0.0013
      5 C         -26.7354   -2.3004   30.2173 C.ar    1  UNL1        0.0001
      6 C         -27.9184   -1.9537   29.7629 C.ar    1  UNL1        0.0013
      7 N         -27.1059    1.0338   27.8185 N.pl3   1  UNL1       -0.1856
      8 C         -26.5121    2.0879   27.8509 C.2     1  UNL1        0.2120
      9 C         -26.8216    3.2102   28.1578 C.2     1  UNL1        0.0468
     10 C         -25.9486    4.4225   28.1866 C.2     1  UNL1        0.0047
     11 C         -24.6322    4.2179   27.7143 C.2     1  UNL1        0.0450
     12 F         -25.0016    2.0164   27.2758 F       1  UNL1       -0.1860
     13 C         -24.2769    2.9509   27.2259 C.3     1  UNL1        0.3409
     14 F         -23.0074    2.8051   26.7143 F       1  UNL1       -0.1933
     15 F         -24.1329    2.8226   26.2281 F       1  UNL1       -0.1933
@<TRIPOS>BOND
     1     2     7    1
     2     7     8    1
     3     8     9    2
     4     9    10    1
     5    10    11    2
     6     8    12    1
     7    11    13    1
     8    13    14    1
     9    13    15    1
    10     1     2   ar
    11     2     3   ar
    12     3     4   ar
    13     4     5   ar
    14     5     6   ar
    15     6     1   ar
