@<TRIPOS>MOLECULE
outputs/IAG933/test6/raw/output_4211_IAG933_linker_design_.xyz
 45 50 0 0 0
SMALL
GASTEIGER

@<TRIPOS>ATOM
      1 C         -24.8550   -1.0120   30.1430 C.3     1  UNL1        0.1113
      2 C         -24.9730   -2.5050   29.7880 C.2     1  UNL1       -0.0030
      3 C         -23.9060   -3.1730   29.1460 C.2     1  UNL1       -0.0026
      4 C         -23.9890   -4.5490   28.8530 C.2     1  UNL1       -0.0003
      5 C         -25.1370   -5.2800   29.2050 C.2     1  UNL1       -0.0000
      6 C         -26.2320   -4.6110   29.7840 C.2     1  UNL1       -0.0003
      7 C         -26.1550   -3.2320   30.0650 C.2     1  UNL1       -0.0026
      8 C         -25.3870   -0.6790   31.5710 C.3     1  UNL1        0.0950
      9 C         -25.1890    0.7730   32.0280 C.3     1  UNL1        0.0209
     10 C         -25.3360    0.6840   33.5440 C.3     1  UNL1        0.0203
     11 C         -24.8290   -0.7150   33.9050 C.3     1  UNL1        0.0888
     12 N         -24.7580   -1.4810   32.6460 N.3     1  UNL1       -0.2174
     13 C         -25.6880    1.6140   26.4610 C.2     1  UNL1        0.0414
     14 C         -26.2500    2.9200   26.3950 C.2     1  UNL1        0.0767
     15 C         -25.6420    4.0930   27.1230 C.2     1  UNL1        0.2664
     16 N         -25.6140    5.2520   26.4490 N.am    1  UNL1       -0.1997
     17 C         -25.0260    6.4790   26.9630 C.3     1  UNL1        0.1388
     18 O         -25.1430    3.9660   28.2430 O.2     1  UNL1       -0.2683
     19 C         -27.4380    3.0910   25.6450 C.2     1  UNL1        0.1067
     20 N         -28.0750    2.0890   25.0030 N.2     1  UNL1       -0.2081
     21 C         -27.5430    0.8490   25.0790 C.2     1  UNL1        0.2533
     22 O         -28.1930   -0.2080   24.4770 O.2     1  UNL1       -0.4546
     23 C         -29.4600    0.0050   23.8660 C.3     1  UNL1        0.2544
     24 C         -30.0650   -1.3770   23.5730 C.3     1  UNL1        0.2574
     25 O         -30.7290   -1.8780   24.7210 O.2     1  UNL1       -0.4300
     26 C         -26.3540    0.5760   25.7770 C.2     1  UNL1        0.1932
     27 F         -25.8600   -0.6810   25.7950 F       1  UNL1       -0.1992
     28 C         -31.4634   -0.6806   27.9145 C.3     1  UNL1        0.2566
     29 C         -23.2822    1.5045   26.4643 C.2     1  UNL1        0.1413
     30 C         -32.5058   -1.0900   28.9986 C.3     1  UNL1        0.0785
     31 F         -23.4317    1.5728   25.1577 F       1  UNL1       -0.2041
     32 N         -25.3821   -0.2348   29.0521 N.pl3   1  UNL1       -0.3039
     33 C         -31.5721   -1.3442   25.6643 C.2     1  UNL1        0.3902
     34 C         -24.3319    0.5813   28.3955 C.2     1  UNL1        0.0503
     35 C         -26.8022   -0.1823   28.7563 C.3     1  UNL1        0.0937
     36 C         -22.0459    1.6351   27.0664 C.2     1  UNL1        0.0297
     37 O         -31.3861   -1.7278   26.9803 O.2     1  UNL1       -0.4142
     38 O         -30.1544   -0.5706   28.5579 O.3     1  UNL1       -0.3233
     39 C         -21.9547    1.1647   28.3884 C.2     1  UNL1        0.0036
     40 C         -28.0040    0.3904   29.6438 C.3     1  UNL1        0.0536
     41 N         -32.1084   -0.0083   25.6609 N.2     1  UNL1       -0.1974
     42 C         -23.0750    0.5992   29.0214 C.2     1  UNL1        0.0147
     43 C         -29.2699    0.5525   28.7767 C.3     1  UNL1        0.1475
     44 C         -31.8138    0.5699   27.0104 C.3     1  UNL1        0.2015
     45 C         -24.4570    1.2284   27.1442 C.2     1  UNL1        0.0433
@<TRIPOS>BOND
     1     1     2    1
     2     2     7    1
     3     3     2    2
     4     4     3    1
     5     4     5    2
     6     5     6    1
     7     6     7    2
     8     8     1    1
     9     8     9    1
    10     8    12    1
    11     9    10    1
    12    10    11    1
    13    12    11    1
    14    13    45    1
    15    14    13    1
    16    14    15    1
    17    15    18    2
    18    16    17    1
    19    16    15    1
    20    19    14    2
    21    20    21    2
    22    20    19    1
    23    21    26    1
    24    22    21    1
    25    23    22    1
    26    24    23    1
    27    24    25    1
    28    25    33    1
    29    26    27    1
    30    26    13    2
    31    28    38    1
    32    28    30    1
    33    29    36    2
    34    29    45    1
    35    31    29    1
    36    32     1    1
    37    33    37    1
    38    34    42    1
    39    34    32    1
    40    35    32    1
    41    35    40    1
    42    36    39    1
    43    37    28    1
    44    38    43    1
    45    39    42    2
    46    41    33    2
    47    41    44    1
    48    43    40    1
    49    44    28    1
    50    45    34    2
