@<TRIPOS>MOLECULE
No_4213-gen_results/8p0m/2024-11-27-11-27-31/
 18 20 0 0 0
SMALL
GASTEIGER

@<TRIPOS>ATOM
      1 C         -28.0162   -0.8135   28.8779 C.ar    1  UNL1        0.0000
      2 C         -28.4690   -0.7850   29.8287 C.ar    1  UNL1        0.0000
      3 C         -27.1356    0.2359   28.5352 C.ar    1  UNL1        0.0000
      4 C         -26.8745    1.2825   29.3982 C.ar    1  UNL1        0.0000
      5 C         -27.5070    1.2380   30.6295 C.ar    1  UNL1        0.0000
      6 C         -28.3293    0.1745   30.9350 C.ar    1  UNL1        0.0000
      7 C         -26.4077    0.3070   27.2259 C.ar    1  UNL1        0.0000
      8 C         -25.0105    0.3902   27.3228 C.ar    1  UNL1        0.0000
      9 C         -27.0459    0.3288   26.0049 C.ar    1  UNL1        0.0000
     10 C         -28.4007    0.3616   25.8738 C.ar    1  UNL1        0.0000
     11 C         -29.2070    0.7224   26.9188 C.ar    1  UNL1        0.0000
     12 C         -30.4306    1.0872   26.5633 C.ar    1  UNL1        0.0000
     13 C         -30.8855    0.9790   25.2658 C.ar    1  UNL1        0.0000
     14 C         -28.9721    0.3994   24.5634 C.ar    1  UNL1        0.0000
     15 C         -30.1664    0.7363   24.2358 C.ar    1  UNL1        0.0000
     16 C         -26.1742    0.7362   25.0085 C.ar    1  UNL1        0.0000
     17 C         -24.8002    0.6698   25.0632 C.ar    1  UNL1        0.0000
     18 C         -24.2177    0.6006   26.2712 C.ar    1  UNL1        0.0000
@<TRIPOS>BOND
     1     3     7    1
     2     9    10    1
     3    10    11   ar
     4    11    12   ar
     5    12    13   ar
     6    13    15   ar
     7    15    14   ar
     8    14    10   ar
     9     1     2   ar
    10     2     6   ar
    11     6     5   ar
    12     5     4   ar
    13     4     3   ar
    14     3     1   ar
    15     7     8   ar
    16     8    18   ar
    17    18    17   ar
    18    17    16   ar
    19    16     9   ar
    20     9     7   ar
