@<TRIPOS>MOLECULE
outputs/IAG933/test6/raw/output_4216_IAG933_linker_design_.xyz
 43 47 0 0 0
SMALL
GASTEIGER

@<TRIPOS>ATOM
      1 C         -24.8550   -1.0120   30.1430 C.3     1  UNL1        0.0590
      2 C         -24.9730   -2.5050   29.7880 C.2     1  UNL1       -0.0173
      3 C         -23.9060   -3.1730   29.1460 C.2     1  UNL1       -0.0039
      4 C         -23.9890   -4.5490   28.8530 C.2     1  UNL1       -0.0003
      5 C         -25.1370   -5.2800   29.2050 C.2     1  UNL1       -0.0000
      6 C         -26.2320   -4.6110   29.7840 C.2     1  UNL1       -0.0003
      7 C         -26.1550   -3.2320   30.0650 C.2     1  UNL1       -0.0039
      8 C         -25.3870   -0.6790   31.5710 C.3     1  UNL1        0.0806
      9 C         -25.1890    0.7730   32.0280 C.3     1  UNL1        0.0195
     10 C         -25.3360    0.6840   33.5440 C.3     1  UNL1        0.0203
     11 C         -24.8290   -0.7150   33.9050 C.3     1  UNL1        0.0887
     12 N         -24.7580   -1.4810   32.6460 N.3     1  UNL1       -0.2188
     13 C         -25.6880    1.6140   26.4610 C.2     1  UNL1        0.0866
     14 C         -26.2500    2.9200   26.3950 C.2     1  UNL1        0.0899
     15 C         -25.6420    4.0930   27.1230 C.2     1  UNL1        0.2676
     16 N         -25.6140    5.2520   26.4490 N.am    1  UNL1       -0.1997
     17 C         -25.0260    6.4790   26.9630 C.3     1  UNL1        0.1388
     18 O         -25.1430    3.9660   28.2430 O.2     1  UNL1       -0.2683
     19 C         -27.4380    3.0910   25.6450 C.2     1  UNL1        0.1080
     20 N         -28.0750    2.0890   25.0030 N.2     1  UNL1       -0.2080
     21 C         -27.5430    0.8490   25.0790 C.2     1  UNL1        0.2546
     22 O         -28.1930   -0.2080   24.4770 O.2     1  UNL1       -0.4558
     23 C         -29.4600    0.0050   23.8660 C.3     1  UNL1        0.2426
     24 C         -30.0650   -1.3770   23.5730 C.3     1  UNL1        0.2292
     25 O         -30.7290   -1.8780   24.7210 O.3     1  UNL1       -0.2162
     26 C         -26.3540    0.5760   25.7770 C.2     1  UNL1        0.2063
     27 F         -25.8600   -0.6810   25.7950 F       1  UNL1       -0.1979
     28 C         -26.4200    1.3615   29.2064 C.3     1  UNL1        0.1379
     29 N         -21.5064   -0.4244   29.3369 N.pl3   1  UNL1       -0.2396
     30 C         -27.6633    0.4017   29.0902 C.2     1  UNL1        0.3669
     31 O         -28.6880    0.9574   29.3062 O.co2   1  UNL1       -0.2456
     32 O         -27.5888   -0.7320   28.7273 O.co2   1  UNL1       -0.2456
     33 C         -22.5003    1.1233   28.0222 C.3     1  UNL1        0.0899
     34 C         -20.5421   -0.0896   28.3778 C.3     1  UNL1        0.1450
     35 O         -20.5051    2.1682   27.4896 O.3     1  UNL1       -0.2208
     36 C         -23.2058    1.2873   25.4321 C.3     1  UNL1        0.2132
     37 C         -25.1684    0.9269   28.6833 C.3     1  UNL1        0.1040
     38 F         -22.0355    2.0605   25.4347 F       1  UNL1       -0.2325
     39 N         -24.6691    1.2726   27.3528 N.pl3   1  UNL1       -0.3014
     40 C         -24.3597    0.0504   29.3298 C.2     1  UNL1       -0.0099
     41 C         -23.3768    0.7599   26.8773 C.3     1  UNL1        0.1162
     42 C         -22.8514    0.0826   29.0263 C.2     1  UNL1        0.0409
     43 C         -21.2531    0.9920   27.6366 C.3     1  UNL1        0.1803
@<TRIPOS>BOND
     1     1    40    1
     2     2     7    1
     3     2     1    1
     4     3     2    2
     5     4     3    1
     6     4     5    2
     7     5     6    1
     8     6     7    2
     9     8     1    1
    10     8     9    1
    11     8    12    1
    12     9    10    1
    13    10    11    1
    14    12    11    1
    15    13    39    1
    16    14    13    1
    17    14    15    1
    18    15    18    2
    19    16    17    1
    20    16    15    1
    21    19    14    2
    22    20    21    2
    23    20    19    1
    24    21    26    1
    25    22    21    1
    26    23    22    1
    27    24    23    1
    28    24    25    1
    29    26    27    1
    30    26    13    2
    31    30    28    1
    32    30    31   ar
    33    32    30   ar
    34    33    42    1
    35    34    29    1
    36    36    38    1
    37    37    28    1
    38    37    40    1
    39    39    37    1
    40    41    36    1
    41    41    39    1
    42    41    33    1
    43    42    40    2
    44    42    29    1
    45    43    35    1
    46    43    33    1
    47    43    34    1
