@<TRIPOS>MOLECULE
outputs/IAG933/test6/raw/output_4219_IAG933_linker_design_.xyz
 44 47 0 0 0
SMALL
GASTEIGER

@<TRIPOS>ATOM
      1 C         -24.8550   -1.0120   30.1430 C.3     1  UNL1        0.1111
      2 C         -24.9730   -2.5050   29.7880 C.2     1  UNL1       -0.0030
      3 C         -23.9060   -3.1730   29.1460 C.2     1  UNL1       -0.0026
      4 C         -23.9890   -4.5490   28.8530 C.2     1  UNL1       -0.0003
      5 C         -25.1370   -5.2800   29.2050 C.2     1  UNL1       -0.0000
      6 C         -26.2320   -4.6110   29.7840 C.2     1  UNL1       -0.0003
      7 C         -26.1550   -3.2320   30.0650 C.2     1  UNL1       -0.0026
      8 C         -25.3870   -0.6790   31.5710 C.3     1  UNL1        0.0950
      9 C         -25.1890    0.7730   32.0280 C.3     1  UNL1        0.0209
     10 C         -25.3360    0.6840   33.5440 C.3     1  UNL1        0.0203
     11 C         -24.8290   -0.7150   33.9050 C.3     1  UNL1        0.0888
     12 N         -24.7580   -1.4810   32.6460 N.3     1  UNL1       -0.2174
     13 C         -25.6880    1.6140   26.4610 C.2     1  UNL1        0.0729
     14 C         -26.2500    2.9200   26.3950 C.2     1  UNL1        0.0795
     15 C         -25.6420    4.0930   27.1230 C.2     1  UNL1        0.2665
     16 N         -25.6140    5.2520   26.4490 N.am    1  UNL1       -0.1997
     17 C         -25.0260    6.4790   26.9630 C.3     1  UNL1        0.1388
     18 O         -25.1430    3.9660   28.2430 O.2     1  UNL1       -0.2683
     19 C         -27.4380    3.0910   25.6450 C.2     1  UNL1        0.1068
     20 N         -28.0750    2.0890   25.0030 N.2     1  UNL1       -0.2081
     21 C         -27.5430    0.8490   25.0790 C.2     1  UNL1        0.2534
     22 O         -28.1930   -0.2080   24.4770 O.2     1  UNL1       -0.4558
     23 C         -29.4600    0.0050   23.8660 C.3     1  UNL1        0.2426
     24 C         -30.0650   -1.3770   23.5730 C.3     1  UNL1        0.2292
     25 O         -30.7290   -1.8780   24.7210 O.3     1  UNL1       -0.2162
     26 C         -26.3540    0.5760   25.7770 C.2     1  UNL1        0.1960
     27 F         -25.8600   -0.6810   25.7950 F       1  UNL1       -0.1991
     28 C         -21.1055    1.4388   27.4018 C.3     1  UNL1        0.0476
     29 C         -29.1695    0.3809   29.9938 C.3     1  UNL1        0.0987
     30 O         -23.3931    1.7496   26.9101 O.2     1  UNL1       -0.4778
     31 O         -30.5536    1.6168   27.0360 O.co2   1  UNL1       -0.2223
     32 C         -28.9595    3.5601   30.2269 C.3     1  UNL1        0.2036
     33 C         -23.2182    0.0538   28.6216 C.3     1  UNL1        0.0876
     34 C         -26.8391    0.0446   29.1249 C.3     1  UNL1        0.0926
     35 C         -24.6052    0.2760   28.5348 C.2     1  UNL1        0.0632
     36 C         -28.1799   -0.5371   29.2279 C.3     1  UNL1        0.0430
     37 O         -29.1687    2.9059   31.4978 O.3     1  UNL1       -0.2185
     38 C         -24.5534    1.2279   27.2837 C.2     1  UNL1        0.1500
     39 N         -29.8615    1.3515   29.1055 N.am    1  UNL1       -0.2404
     40 N         -25.4170   -0.1210   29.1099 N.pl3   1  UNL1       -0.3048
     41 C         -29.9216    2.8706   29.2273 C.3     1  UNL1        0.1323
     42 O         -30.3194   -0.3805   27.6489 O.co2   1  UNL1       -0.2223
     43 C         -22.5415    1.1116   27.8884 C.3     1  UNL1        0.1718
     44 C         -30.2726    0.8552   27.9526 C.2     1  UNL1        0.4473
@<TRIPOS>BOND
     1     1    40    1
     2     2     7    1
     3     2     1    1
     4     3     2    2
     5     4     3    1
     6     4     5    2
     7     5     6    1
     8     6     7    2
     9     8     1    1
    10     8     9    1
    11     8    12    1
    12     9    10    1
    13    10    11    1
    14    12    11    1
    15    13    38    1
    16    14    13    1
    17    14    15    1
    18    15    18    2
    19    16    17    1
    20    16    15    1
    21    19    14    2
    22    20    21    2
    23    20    19    1
    24    21    26    1
    25    22    21    1
    26    23    22    1
    27    24    23    1
    28    24    25    1
    29    26    27    1
    30    26    13    2
    31    30    38    1
    32    30    43    1
    33    31    44   ar
    34    32    37    1
    35    34    36    1
    36    35    33    1
    37    35    40    1
    38    36    29    1
    39    38    35    2
    40    39    41    1
    41    39    29    1
    42    40    34    1
    43    41    32    1
    44    42    44   ar
    45    43    28    1
    46    43    33    1
    47    44    39   am
