@<TRIPOS>MOLECULE
No_422-gen_results/8p0m/2024-11-27-11-27-31/
 15 16 0 0 0
SMALL
GASTEIGER

@<TRIPOS>ATOM
      1 C         -28.0162   -0.8135   28.8779 C.ar    1  UNL1        0.0065
      2 C         -28.4690   -0.7850   29.8287 C.ar    1  UNL1        0.0002
      3 C         -27.0871    0.2903   28.6377 C.ar    1  UNL1        0.0760
      4 C         -26.8317    1.2487   29.5869 C.ar    1  UNL1        0.0065
      5 C         -28.3914    0.0801   31.0065 C.ar    1  UNL1        0.0000
      6 C         -27.4940    1.1521   30.7841 C.ar    1  UNL1        0.0002
      7 C         -26.3172    0.3994   27.3653 C.2     1  UNL1        0.3457
      8 O         -26.8990    0.5820   26.4031 O.2     1  UNL1       -0.2445
      9 O         -24.9827    0.3252   27.4295 O.3     1  UNL1       -0.4210
     10 C         -24.2407    1.3664   26.9544 C.ar    1  UNL1        0.1488
     11 C         -23.0031    1.5454   27.7167 C.ar    1  UNL1        0.0376
     12 C         -21.9748    2.3789   27.1679 C.ar    1  UNL1        0.0031
     13 C         -22.2169    2.6799   25.8166 C.ar    1  UNL1        0.0002
     14 C         -23.3170    2.3143   25.0961 C.ar    1  UNL1        0.0031
     15 C         -24.2889    1.6450   25.6675 C.ar    1  UNL1        0.0376
@<TRIPOS>BOND
     1     3     7    1
     2     7     8    2
     3     7     9    1
     4     9    10    1
     5     1     2   ar
     6     2     5   ar
     7     5     6   ar
     8     6     4   ar
     9     4     3   ar
    10     3     1   ar
    11    10    11   ar
    12    11    12   ar
    13    12    13   ar
    14    13    14   ar
    15    14    15   ar
    16    15    10   ar
