@<TRIPOS>MOLECULE
outputs/IAG933/test6/raw/output_4220_IAG933_linker_design_.xyz
 38 41 0 0 0
SMALL
GASTEIGER

@<TRIPOS>ATOM
      1 C         -24.8550   -1.0120   30.1430 C.3     1  UNL1        0.1533
      2 C         -24.9730   -2.5050   29.7880 C.2     1  UNL1        0.0059
      3 C         -23.9060   -3.1730   29.1460 C.2     1  UNL1       -0.0019
      4 C         -23.9890   -4.5490   28.8530 C.2     1  UNL1       -0.0002
      5 C         -25.1370   -5.2800   29.2050 C.2     1  UNL1       -0.0000
      6 C         -26.2320   -4.6110   29.7840 C.2     1  UNL1       -0.0002
      7 C         -26.1550   -3.2320   30.0650 C.2     1  UNL1       -0.0019
      8 C         -25.3870   -0.6790   31.5710 C.3     1  UNL1        0.1041
      9 C         -25.1890    0.7730   32.0280 C.3     1  UNL1        0.0217
     10 C         -25.3360    0.6840   33.5440 C.3     1  UNL1        0.0203
     11 C         -24.8290   -0.7150   33.9050 C.3     1  UNL1        0.0888
     12 N         -24.7580   -1.4810   32.6460 N.3     1  UNL1       -0.2166
     13 C         -25.6880    1.6140   26.4610 C.3     1  UNL1        0.1456
     14 C         -26.2500    2.9200   26.3950 C.2     1  UNL1        0.0731
     15 C         -25.6420    4.0930   27.1230 C.2     1  UNL1        0.2640
     16 N         -25.6140    5.2520   26.4490 N.am    1  UNL1       -0.1999
     17 C         -25.0260    6.4790   26.9630 C.3     1  UNL1        0.1388
     18 O         -25.1430    3.9660   28.2430 O.2     1  UNL1       -0.2686
     19 C         -27.4380    3.0910   25.6450 C.2     1  UNL1        0.1038
     20 N         -28.0750    2.0890   25.0030 N.2     1  UNL1       -0.2118
     21 C         -27.5430    0.8490   25.0790 C.2     1  UNL1        0.2358
     22 O         -28.1930   -0.2080   24.4770 O.2     1  UNL1       -0.4585
     23 C         -29.4600    0.0050   23.8660 C.3     1  UNL1        0.2423
     24 C         -30.0650   -1.3770   23.5730 C.3     1  UNL1        0.2292
     25 O         -30.7290   -1.8780   24.7210 O.3     1  UNL1       -0.2162
     26 C         -26.3540    0.5760   25.7770 C.3     1  UNL1        0.2581
     27 F         -25.8600   -0.6810   25.7950 F       1  UNL1       -0.2251
     28 C         -24.9291    0.3116   28.5231 C.3     1  UNL1        0.1637
     29 C         -24.0710    0.9961   28.0182 C.3     1  UNL1        0.1244
     30 C         -22.7206    1.4237   28.3690 C.3     1  UNL1        0.1349
     31 C         -22.1045    1.8295   27.0202 C.3     1  UNL1        0.2539
     32 O         -25.7229   -0.3651   29.2975 O.3     1  UNL1       -0.3486
     33 O         -23.3647    2.8025   25.1624 O.2     1  UNL1       -0.2719
     34 N         -24.3909    1.5939   26.8897 N.am    1  UNL1       -0.2694
     35 C         -23.3543    2.1595   26.2255 C.2     1  UNL1        0.2602
     36 N         -21.9050    0.4367   28.7490 N.3     1  UNL1       -0.2129
     37 F         -21.0844    2.4309   27.7267 F       1  UNL1       -0.2258
     38 C         -22.1817   -0.0365   29.9197 C.3     1  UNL1        0.1076
@<TRIPOS>BOND
     1     1    32    1
     2     2     7    1
     3     2     1    1
     4     3     2    2
     5     4     3    1
     6     4     5    2
     7     5     6    1
     8     6     7    2
     9     8     1    1
    10     8     9    1
    11     8    12    1
    12     9    10    1
    13    10    11    1
    14    12    11    1
    15    13    34    1
    16    14    13    1
    17    14    15    1
    18    15    18    2
    19    16    17    1
    20    16    15    1
    21    19    14    2
    22    20    21    2
    23    20    19    1
    24    21    26    1
    25    22    21    1
    26    23    22    1
    27    24    23    1
    28    24    25    1
    29    26    27    1
    30    26    13    1
    31    28    32    1
    32    29    30    1
    33    29    28    1
    34    30    36    1
    35    31    37    1
    36    31    30    1
    37    33    35    2
    38    34    29    1
    39    35    34   am
    40    35    31    1
    41    36    38    1
