@<TRIPOS>MOLECULE
No_4225-gen_results/8p0m/2024-11-27-11-27-31/
 15 16 0 0 0
SMALL
GASTEIGER

@<TRIPOS>ATOM
      1 C         -28.0162   -0.8135   28.8779 C.ar    1  UNL1        0.0056
      2 C         -28.4690   -0.7850   29.8287 C.ar    1  UNL1        0.0678
      3 C         -26.5455   -0.8762   28.8500 C.ar    1  UNL1        0.0002
      4 C         -25.8041   -1.0324   30.0571 C.ar    1  UNL1        0.0000
      5 C         -27.9437   -0.9869   31.2075 C.ar    1  UNL1        0.0056
      6 C         -26.5825   -1.0386   31.2231 C.ar    1  UNL1        0.0002
      7 C         -30.0606   -0.7371   29.9024 C.2     1  UNL1        0.3334
      8 O         -30.5524   -0.2769   29.0111 O.2     1  UNL1       -0.2541
      9 F         -30.6781   -0.7389   31.0590 F       1  UNL1       -0.1586
     10 C         -24.3726   -1.0993   30.0699 C.ar    1  UNL1        0.0000
     11 C         -23.6845   -1.6868   30.5083 C.ar    1  UNL1        0.0000
     12 C         -23.7582    0.0003   29.1472 C.ar    1  UNL1        0.0000
     13 C         -22.3335    0.0477   29.0716 C.ar    1  UNL1        0.0000
     14 C         -22.2389   -1.7419   30.6026 C.ar    1  UNL1        0.0000
     15 C         -21.6243   -0.8147   29.7675 C.ar    1  UNL1        0.0000
@<TRIPOS>BOND
     1     2     7    1
     2     7     8    2
     3     7     9    1
     4     4    10    1
     5    10    11   ar
     6    11    14   ar
     7    14    15   ar
     8    15    13   ar
     9    13    12   ar
    10    12    10   ar
    11     1     2   ar
    12     2     5   ar
    13     5     6   ar
    14     6     4   ar
    15     4     3   ar
    16     3     1   ar
