@<TRIPOS>MOLECULE
outputs/IAG933/test6/raw/output_423_IAG933_linker_design_.xyz
 48 52 0 0 0
SMALL
GASTEIGER

@<TRIPOS>ATOM
      1 C         -24.8550   -1.0120   30.1430 C.3     1  UNL1        0.0560
      2 C         -24.9730   -2.5050   29.7880 C.2     1  UNL1       -0.0197
      3 C         -23.9060   -3.1730   29.1460 C.2     1  UNL1       -0.0042
      4 C         -23.9890   -4.5490   28.8530 C.2     1  UNL1       -0.0003
      5 C         -25.1370   -5.2800   29.2050 C.2     1  UNL1       -0.0000
      6 C         -26.2320   -4.6110   29.7840 C.2     1  UNL1       -0.0003
      7 C         -26.1550   -3.2320   30.0650 C.2     1  UNL1       -0.0042
      8 C         -25.3870   -0.6790   31.5710 C.3     1  UNL1        0.0782
      9 C         -25.1890    0.7730   32.0280 C.3     1  UNL1        0.0192
     10 C         -25.3360    0.6840   33.5440 C.3     1  UNL1        0.0202
     11 C         -24.8290   -0.7150   33.9050 C.3     1  UNL1        0.0887
     12 N         -24.7580   -1.4810   32.6460 N.3     1  UNL1       -0.2191
     13 C         -25.6880    1.6140   26.4610 C.2     1  UNL1        0.0880
     14 C         -26.2500    2.9200   26.3950 C.2     1  UNL1        0.0899
     15 C         -25.6420    4.0930   27.1230 C.2     1  UNL1        0.2676
     16 N         -25.6140    5.2520   26.4490 N.am    1  UNL1       -0.1997
     17 C         -25.0260    6.4790   26.9630 C.3     1  UNL1        0.1388
     18 O         -25.1430    3.9660   28.2430 O.2     1  UNL1       -0.2683
     19 C         -27.4380    3.0910   25.6450 C.2     1  UNL1        0.1080
     20 N         -28.0750    2.0890   25.0030 N.2     1  UNL1       -0.2080
     21 C         -27.5430    0.8490   25.0790 C.2     1  UNL1        0.2546
     22 O         -28.1930   -0.2080   24.4770 O.2     1  UNL1       -0.4558
     23 C         -29.4600    0.0050   23.8660 C.3     1  UNL1        0.2426
     24 C         -30.0650   -1.3770   23.5730 C.3     1  UNL1        0.2292
     25 O         -30.7290   -1.8780   24.7210 O.3     1  UNL1       -0.2162
     26 C         -26.3540    0.5760   25.7770 C.2     1  UNL1        0.2063
     27 F         -25.8600   -0.6810   25.7950 F       1  UNL1       -0.1979
     28 O         -21.5993    2.0937   26.9092 O.3     1  UNL1       -0.3222
     29 C         -22.0915    2.1328   25.5549 C.3     1  UNL1        0.2955
     30 C         -28.6259   -0.0595   30.2201 C.2     1  UNL1       -0.0121
     31 C         -24.8101    1.2163   28.7332 C.3     1  UNL1        0.1107
     32 O         -32.5930   -1.3457   32.3140 O.co2   1  UNL1       -0.2452
     33 C         -31.9839   -0.2643   32.2310 C.2     1  UNL1        0.3707
     34 N         -26.6838   -0.5215   28.4258 N.3     1  UNL1       -0.2118
     35 C         -27.9697   -0.6513   28.9590 C.3     1  UNL1        0.1237
     36 C         -29.7645   -0.6155   30.8937 C.2     1  UNL1       -0.0048
     37 C         -29.2057   -0.8322   28.3478 C.3     1  UNL1        0.1643
     38 C         -30.3976   -0.2773   32.0086 C.3     1  UNL1        0.1566
     39 O         -23.4058    1.6710   25.6512 O.3     1  UNL1       -0.3074
     40 O         -32.5553    0.7690   32.2766 O.co2   1  UNL1       -0.2452
     41 C         -25.5717   -0.0263   29.2083 C.3     1  UNL1        0.0983
     42 O         -28.3361   -0.4926   33.3389 O.3     1  UNL1       -0.2195
     43 C         -22.2043    1.2649   27.7641 C.3     1  UNL1        0.1956
     44 N         -24.7152    1.3829   27.3157 N.pl3   1  UNL1       -0.2805
     45 C         -29.6785   -0.9905   33.1140 C.3     1  UNL1        0.1974
     46 C         -23.4699    1.0860   26.9446 C.3     1  UNL1        0.2249
     47 O         -29.9956   -1.7425   28.7739 O.3     1  UNL1       -0.3475
     48 C         -30.1913   -2.0039   30.1668 C.3     1  UNL1        0.1648
@<TRIPOS>BOND
     1     1    41    1
     2     2     7    1
     3     2     1    1
     4     3     2    2
     5     4     3    1
     6     4     5    2
     7     5     6    1
     8     6     7    2
     9     8     1    1
    10     8     9    1
    11     8    12    1
    12     9    10    1
    13    10    11    1
    14    12    11    1
    15    13    44    1
    16    14    13    1
    17    14    15    1
    18    15    18    2
    19    16    17    1
    20    16    15    1
    21    19    14    2
    22    20    21    2
    23    20    19    1
    24    21    26    1
    25    22    21    1
    26    23    22    1
    27    24    23    1
    28    24    25    1
    29    26    27    1
    30    26    13    2
    31    28    43    1
    32    29    39    1
    33    29    28    1
    34    30    36    2
    35    33    40   ar
    36    33    32   ar
    37    34    41    1
    38    35    34    1
    39    35    30    1
    40    36    38    1
    41    37    47    1
    42    37    35    1
    43    38    33    1
    44    38    45    1
    45    39    46    1
    46    41    31    1
    47    44    31    1
    48    45    42    1
    49    46    44    1
    50    46    43    1
    51    47    48    1
    52    48    36    1
