@<TRIPOS>MOLECULE
outputs/IAG933/test6/raw/output_4230_IAG933_linker_design_.xyz
 40 43 0 0 0
SMALL
GASTEIGER

@<TRIPOS>ATOM
      1 C         -24.8550   -1.0120   30.1430 C.3     1  UNL1        0.1372
      2 C         -24.9730   -2.5050   29.7880 C.2     1  UNL1       -0.0106
      3 C         -23.9060   -3.1730   29.1460 C.2     1  UNL1       -0.0037
      4 C         -23.9890   -4.5490   28.8530 C.2     1  UNL1       -0.0003
      5 C         -25.1370   -5.2800   29.2050 C.2     1  UNL1       -0.0000
      6 C         -26.2320   -4.6110   29.7840 C.2     1  UNL1       -0.0003
      7 C         -26.1550   -3.2320   30.0650 C.2     1  UNL1       -0.0037
      8 C         -25.3870   -0.6790   31.5710 C.3     1  UNL1        0.0874
      9 C         -25.1890    0.7730   32.0280 C.3     1  UNL1        0.0198
     10 C         -25.3360    0.6840   33.5440 C.3     1  UNL1        0.0203
     11 C         -24.8290   -0.7150   33.9050 C.3     1  UNL1        0.0887
     12 N         -24.7580   -1.4810   32.6460 N.3     1  UNL1       -0.2186
     13 C         -25.6880    1.6140   26.4610 C.2     1  UNL1        0.0626
     14 C         -26.2500    2.9200   26.3950 C.2     1  UNL1        0.0764
     15 C         -25.6420    4.0930   27.1230 C.2     1  UNL1        0.2662
     16 N         -25.6140    5.2520   26.4490 N.am    1  UNL1       -0.1997
     17 C         -25.0260    6.4790   26.9630 C.3     1  UNL1        0.1388
     18 O         -25.1430    3.9660   28.2430 O.2     1  UNL1       -0.2683
     19 C         -27.4380    3.0910   25.6450 C.2     1  UNL1        0.1065
     20 N         -28.0750    2.0890   25.0030 N.2     1  UNL1       -0.2081
     21 C         -27.5430    0.8490   25.0790 C.2     1  UNL1        0.2531
     22 O         -28.1930   -0.2080   24.4770 O.2     1  UNL1       -0.4558
     23 C         -29.4600    0.0050   23.8660 C.3     1  UNL1        0.2426
     24 C         -30.0650   -1.3770   23.5730 C.3     1  UNL1        0.2292
     25 O         -30.7290   -1.8780   24.7210 O.3     1  UNL1       -0.2162
     26 C         -26.3540    0.5760   25.7770 C.2     1  UNL1        0.1929
     27 F         -25.8600   -0.6810   25.7950 F       1  UNL1       -0.1994
     28 C         -22.3518    1.2368   28.0873 C.3     1  UNL1        0.1710
     29 C         -24.6216    1.1907   27.4507 C.3     1  UNL1        0.2516
     30 C         -21.9585   -0.4548   29.8422 C.3     1  UNL1        0.1150
     31 O         -22.9895    2.3543   26.1229 O.2     1  UNL1       -0.2903
     32 C         -20.2237    0.0444   28.0937 C.2     1  UNL1        0.0072
     33 O         -24.9475    1.1311   28.8395 O.3     1  UNL1       -0.4396
     34 N         -22.6458    0.6721   29.2726 N.3     1  UNL1       -0.2041
     35 F         -20.4727    2.0871   26.9001 F       1  UNL1       -0.2305
     36 C         -20.9807    1.1211   27.7036 C.3     1  UNL1        0.2058
     37 C         -25.4727   -0.0929   29.0927 C.2     1  UNL1        0.3226
     38 C         -23.2531    1.7103   27.1891 C.2     1  UNL1        0.2134
     39 C         -20.6483   -0.5517   28.9352 C.2     1  UNL1       -0.0092
     40 O         -26.3517   -0.4288   28.3674 O.2     1  UNL1       -0.2497
@<TRIPOS>BOND
     1     1    37    1
     2     2     7    1
     3     2     1    1
     4     3     2    2
     5     4     3    1
     6     4     5    2
     7     5     6    1
     8     6     7    2
     9     8     1    1
    10     8     9    1
    11     8    12    1
    12     9    10    1
    13    10    11    1
    14    12    11    1
    15    13    29    1
    16    14    13    1
    17    14    15    1
    18    15    18    2
    19    16    17    1
    20    16    15    1
    21    19    14    2
    22    20    21    2
    23    20    19    1
    24    21    26    1
    25    22    21    1
    26    23    22    1
    27    24    23    1
    28    24    25    1
    29    26    27    1
    30    26    13    2
    31    28    38    1
    32    28    34    1
    33    29    38    1
    34    29    33    1
    35    31    38    2
    36    32    39    2
    37    33    37    1
    38    34    30    1
    39    36    35    1
    40    36    28    1
    41    36    32    1
    42    39    30    1
    43    40    37    2
