@<TRIPOS>MOLECULE
outputs/IAG933/test6/raw/output_4232_IAG933_linker_design_.xyz
 43 46 0 0 0
SMALL
GASTEIGER

@<TRIPOS>ATOM
      1 C         -24.8550   -1.0120   30.1430 C.3     1  UNL1        0.1140
      2 C         -24.9730   -2.5050   29.7880 C.2     1  UNL1       -0.0029
      3 C         -23.9060   -3.1730   29.1460 C.2     1  UNL1       -0.0026
      4 C         -23.9890   -4.5490   28.8530 C.2     1  UNL1       -0.0003
      5 C         -25.1370   -5.2800   29.2050 C.2     1  UNL1       -0.0000
      6 C         -26.2320   -4.6110   29.7840 C.2     1  UNL1       -0.0003
      7 C         -26.1550   -3.2320   30.0650 C.2     1  UNL1       -0.0026
      8 C         -25.3870   -0.6790   31.5710 C.3     1  UNL1        0.0951
      9 C         -25.1890    0.7730   32.0280 C.3     1  UNL1        0.0209
     10 C         -25.3360    0.6840   33.5440 C.3     1  UNL1        0.0203
     11 C         -24.8290   -0.7150   33.9050 C.3     1  UNL1        0.0888
     12 N         -24.7580   -1.4810   32.6460 N.3     1  UNL1       -0.2174
     13 C         -25.6880    1.6140   26.4610 C.2     1  UNL1        0.0362
     14 C         -26.2500    2.9200   26.3950 C.2     1  UNL1        0.0763
     15 C         -25.6420    4.0930   27.1230 C.2     1  UNL1        0.2664
     16 N         -25.6140    5.2520   26.4490 N.am    1  UNL1       -0.1997
     17 C         -25.0260    6.4790   26.9630 C.3     1  UNL1        0.1388
     18 O         -25.1430    3.9660   28.2430 O.2     1  UNL1       -0.2683
     19 C         -27.4380    3.0910   25.6450 C.2     1  UNL1        0.1067
     20 N         -28.0750    2.0890   25.0030 N.2     1  UNL1       -0.2081
     21 C         -27.5430    0.8490   25.0790 C.2     1  UNL1        0.2533
     22 O         -28.1930   -0.2080   24.4770 O.2     1  UNL1       -0.4558
     23 C         -29.4600    0.0050   23.8660 C.3     1  UNL1        0.2426
     24 C         -30.0650   -1.3770   23.5730 C.3     1  UNL1        0.2292
     25 O         -30.7290   -1.8780   24.7210 O.3     1  UNL1       -0.2162
     26 C         -26.3540    0.5760   25.7770 C.2     1  UNL1        0.1928
     27 F         -25.8600   -0.6810   25.7950 F       1  UNL1       -0.1992
     28 C         -29.0600    3.3335   29.6631 C.3     1  UNL1        0.0064
     29 O         -22.1726   -0.5667   29.9235 O.2     1  UNL1       -0.2729
     30 C         -26.8448    0.4927   28.6660 C.3     1  UNL1        0.0244
     31 N         -24.3171   -0.0491   29.2292 N.am    1  UNL1       -0.2724
     32 C         -29.4809    4.0432   28.5253 C.3     1  UNL1        0.0489
     33 N         -21.1397    1.0625   27.7942 N.3     1  UNL1       -0.1173
     34 C         -25.2084    0.7620   28.5567 C.3     1  UNL1        0.0988
     35 C         -24.7014    1.2819   27.3420 C.2     1  UNL1        0.0067
     36 N         -28.6966    6.2156   29.3017 N.2     1  UNL1       -0.1514
     37 C         -23.0087    0.0476   29.0381 C.2     1  UNL1        0.2486
     38 C         -22.4792    0.7984   27.9362 C.3     1  UNL1        0.2001
     39 CL        -22.7731    2.0203   25.5185 Cl      1  UNL1       -0.0852
     40 C         -23.3739    1.3323   27.0146 C.2     1  UNL1        0.0592
     41 C         -27.2701    1.7305   29.3797 C.3     1  UNL1        0.0021
     42 C         -29.0281    5.4318   28.3286 C.2     1  UNL1        0.0957
     43 C         -28.7606    1.9502   29.2637 C.3     1  UNL1        0.0005
@<TRIPOS>BOND
     1     1     2    1
     2     2     7    1
     3     3     2    2
     4     4     3    1
     5     4     5    2
     6     5     6    1
     7     6     7    2
     8     8     1    1
     9     8     9    1
    10     8    12    1
    11     9    10    1
    12    10    11    1
    13    12    11    1
    14    13    35    1
    15    14    13    1
    16    14    15    1
    17    15    18    2
    18    16    17    1
    19    16    15    1
    20    19    14    2
    21    20    21    2
    22    20    19    1
    23    21    26    1
    24    22    21    1
    25    23    22    1
    26    24    23    1
    27    24    25    1
    28    26    27    1
    29    26    13    2
    30    30    41    1
    31    31     1    1
    32    32    28    1
    33    34    30    1
    34    34    31    1
    35    35    34    1
    36    37    31   am
    37    37    29    2
    38    38    33    1
    39    38    37    1
    40    39    40    1
    41    40    35    2
    42    40    38    1
    43    42    32    1
    44    42    36    2
    45    43    41    1
    46    43    28    1
