@<TRIPOS>MOLECULE
outputs/IAG933/test6/raw/output_4234_IAG933_linker_design_.xyz
 44 47 0 0 0
SMALL
GASTEIGER

@<TRIPOS>ATOM
      1 C         -24.8550   -1.0120   30.1430 C.3     1  UNL1        0.0968
      2 C         -24.9730   -2.5050   29.7880 C.2     1  UNL1       -0.0064
      3 C         -23.9060   -3.1730   29.1460 C.2     1  UNL1       -0.0029
      4 C         -23.9890   -4.5490   28.8530 C.2     1  UNL1       -0.0003
      5 C         -25.1370   -5.2800   29.2050 C.2     1  UNL1       -0.0000
      6 C         -26.2320   -4.6110   29.7840 C.2     1  UNL1       -0.0003
      7 C         -26.1550   -3.2320   30.0650 C.2     1  UNL1       -0.0029
      8 C         -25.3870   -0.6790   31.5710 C.3     1  UNL1        0.0916
      9 C         -25.1890    0.7730   32.0280 C.3     1  UNL1        0.0206
     10 C         -25.3360    0.6840   33.5440 C.3     1  UNL1        0.0203
     11 C         -24.8290   -0.7150   33.9050 C.3     1  UNL1        0.0888
     12 N         -24.7580   -1.4810   32.6460 N.3     1  UNL1       -0.2178
     13 C         -25.6880    1.6140   26.4610 C.2     1  UNL1        0.0590
     14 C         -26.2500    2.9200   26.3950 C.2     1  UNL1        0.0803
     15 C         -25.6420    4.0930   27.1230 C.2     1  UNL1        0.2667
     16 N         -25.6140    5.2520   26.4490 N.am    1  UNL1       -0.1997
     17 C         -25.0260    6.4790   26.9630 C.3     1  UNL1        0.1388
     18 O         -25.1430    3.9660   28.2430 O.2     1  UNL1       -0.2683
     19 C         -27.4380    3.0910   25.6450 C.2     1  UNL1        0.1067
     20 N         -28.0750    2.0890   25.0030 N.2     1  UNL1       -0.2112
     21 C         -27.5430    0.8490   25.0790 C.2     1  UNL1        0.2389
     22 O         -28.1930   -0.2080   24.4770 O.2     1  UNL1       -0.4583
     23 C         -29.4600    0.0050   23.8660 C.3     1  UNL1        0.2423
     24 C         -30.0650   -1.3770   23.5730 C.3     1  UNL1        0.2292
     25 O         -30.7290   -1.8780   24.7210 O.3     1  UNL1       -0.2162
     26 C         -26.3540    0.5760   25.7770 C.3     1  UNL1        0.2653
     27 F         -25.8600   -0.6810   25.7950 F       1  UNL1       -0.2217
     28 C         -29.8479   -0.3978   30.6901 C.2     1  UNL1       -0.0000
     29 C         -29.1270    0.5488   31.3584 C.2     1  UNL1       -0.0003
     30 N         -25.0871    0.0201   29.1117 N.3     1  UNL1       -0.2611
     31 C         -24.5916    1.2247   27.2408 C.1     1  UNL1       -0.1059
     32 C         -28.3809   -0.3114   28.7851 C.2     1  UNL1       -0.0029
     33 C         -21.4850    0.6032   28.8564 C.3     1  UNL1        0.2081
     34 C         -21.3557    1.4006   27.6184 C.2     1  UNL1        0.0078
     35 C         -28.0302    1.0845   30.7368 C.2     1  UNL1       -0.0029
     36 C         -23.9462    0.4794   28.4444 C.3     1  UNL1        0.1071
     37 C         -23.6365    1.1341   27.4525 C.2     1  UNL1        0.0265
     38 C         -27.6038    0.6043   29.4780 C.2     1  UNL1       -0.0061
     39 C         -22.3922    2.1139   25.4339 C.3     1  UNL1        0.2198
     40 C         -22.3633    1.5924   26.8685 C.2     1  UNL1        0.0156
     41 C         -26.3112    0.9444   29.0215 C.3     1  UNL1        0.0997
     42 C         -29.4954   -0.8090   29.4136 C.2     1  UNL1       -0.0003
     43 F         -23.2341    3.2229   25.5156 F       1  UNL1       -0.2291
     44 O         -22.6640    0.0274   29.2381 O.3     1  UNL1       -0.2152
@<TRIPOS>BOND
     1     1    30    1
     2     2     7    1
     3     2     1    1
     4     3     2    2
     5     4     3    1
     6     4     5    2
     7     5     6    1
     8     6     7    2
     9     8     1    1
    10     8     9    1
    11     8    12    1
    12     9    10    1
    13    10    11    1
    14    12    11    1
    15    13    31    2
    16    14    13    1
    17    14    15    1
    18    15    18    2
    19    16    17    1
    20    16    15    1
    21    19    14    2
    22    20    21    2
    23    20    19    1
    24    21    26    1
    25    22    21    1
    26    23    22    1
    27    24    23    1
    28    24    25    1
    29    26    27    1
    30    26    13    1
    31    28    29    1
    32    31    37    2
    33    32    42    1
    34    32    38    2
    35    33    44    1
    36    34    33    1
    37    35    29    2
    38    36    30    1
    39    37    36    1
    40    38    35    1
    41    39    43    1
    42    39    40    1
    43    40    37    1
    44    40    34    2
    45    41    30    1
    46    41    38    1
    47    42    28    2
