@<TRIPOS>MOLECULE
No_4236-gen_results/8p0m/2024-11-27-11-27-31/
 23 24 0 0 0
SMALL
GASTEIGER

@<TRIPOS>ATOM
      1 C         -28.0162   -0.8135   28.8779 C.3     1  UNL1        0.1388
      2 C         -27.0636   -0.1190   28.6079 C.ar    1  UNL1       -0.0006
      3 C         -27.0010    0.6913   27.4910 C.ar    1  UNL1       -0.0023
      4 C         -25.8548    1.4825   27.0830 C.ar    1  UNL1        0.0063
      5 C         -24.6901    1.4526   27.8807 C.ar    1  UNL1        0.0798
      6 C         -24.7379    0.6010   29.0416 C.ar    1  UNL1        0.0063
      7 C         -25.8234   -0.1688   29.3887 C.ar    1  UNL1       -0.0023
      8 N         -29.2150   -0.1726   29.0132 N.pl3   1  UNL1       -0.2257
      9 C         -29.6839    0.2429   30.1438 C.2     1  UNL1        0.1595
     10 C         -29.1319    0.4205   31.1001 C.2     1  UNL1        0.0028
     11 C         -29.2073    0.8632   32.1754 C.3     1  UNL1        0.0539
     12 C         -28.6226    1.3837   33.0145 C.ar    1  UNL1       -0.0178
     13 C         -27.1040    1.1904   33.0259 C.ar    1  UNL1       -0.0039
     14 C         -26.1973    1.7437   33.8704 C.ar    1  UNL1       -0.0003
     15 C         -26.7427    2.5848   34.7939 C.ar    1  UNL1       -0.0000
     16 C         -28.0154    2.8807   34.9726 C.ar    1  UNL1       -0.0003
     17 C         -28.9125    2.2783   34.0672 C.ar    1  UNL1       -0.0039
     18 C         -30.9657    0.9159   29.8940 C.2     1  UNL1        0.4908
     19 C         -23.4942    2.1732   27.5627 C.2     1  UNL1        0.3878
     20 O         -22.6203    1.6878   27.1152 O.co2   1  UNL1       -0.2406
     21 O         -23.6653    3.5052   27.6757 O.co2   1  UNL1       -0.2406
     22 N         -31.6999    0.9104   28.9708 N.pl3   1  UNL1        0.2062
     23 N         -31.5118    1.5153   31.0679 N.pl3   1  UNL1        0.2062
@<TRIPOS>BOND
     1     1     2    1
     2     1     8    1
     3     8     9    1
     4     9    10    2
     5    10    11    1
     6     9    18    1
     7     5    19    1
     8    19    20   ar
     9    19    21   ar
    10    18    22    1
    11    18    23    2
    12    11    12    1
    13    12    13   ar
    14    13    14   ar
    15    14    15   ar
    16    15    16   ar
    17    16    17   ar
    18    17    12   ar
    19     2     3   ar
    20     3     4   ar
    21     4     5   ar
    22     5     6   ar
    23     6     7   ar
    24     7     2   ar
