@<TRIPOS>MOLECULE
outputs/IAG933/test6/raw/output_4237_IAG933_linker_design_.xyz
 46 50 0 0 0
SMALL
GASTEIGER

@<TRIPOS>ATOM
      1 C         -24.8550   -1.0120   30.1430 C.3     1  UNL1        0.0962
      2 C         -24.9730   -2.5050   29.7880 C.2     1  UNL1       -0.0064
      3 C         -23.9060   -3.1730   29.1460 C.2     1  UNL1       -0.0029
      4 C         -23.9890   -4.5490   28.8530 C.2     1  UNL1       -0.0003
      5 C         -25.1370   -5.2800   29.2050 C.2     1  UNL1       -0.0000
      6 C         -26.2320   -4.6110   29.7840 C.2     1  UNL1       -0.0003
      7 C         -26.1550   -3.2320   30.0650 C.2     1  UNL1       -0.0029
      8 C         -25.3870   -0.6790   31.5710 C.3     1  UNL1        0.0916
      9 C         -25.1890    0.7730   32.0280 C.3     1  UNL1        0.0206
     10 C         -25.3360    0.6840   33.5440 C.3     1  UNL1        0.0203
     11 C         -24.8290   -0.7150   33.9050 C.3     1  UNL1        0.0888
     12 N         -24.7580   -1.4810   32.6460 N.3     1  UNL1       -0.2178
     13 C         -25.6880    1.6140   26.4610 C.2     1  UNL1        0.0012
     14 C         -26.2500    2.9200   26.3950 C.2     1  UNL1        0.0524
     15 C         -25.6420    4.0930   27.1230 C.2     1  UNL1        0.2622
     16 N         -25.6140    5.2520   26.4490 N.am    1  UNL1       -0.2000
     17 C         -25.0260    6.4790   26.9630 C.3     1  UNL1        0.1388
     18 O         -25.1430    3.9660   28.2430 O.2     1  UNL1       -0.2687
     19 C         -27.4380    3.0910   25.6450 C.3     1  UNL1        0.1588
     20 N         -28.0750    2.0890   25.0030 N.2     1  UNL1       -0.2341
     21 C         -27.5430    0.8490   25.0790 C.2     1  UNL1        0.2338
     22 O         -28.1930   -0.2080   24.4770 O.2     1  UNL1       -0.4585
     23 C         -29.4600    0.0050   23.8660 C.3     1  UNL1        0.2423
     24 C         -30.0650   -1.3770   23.5730 C.3     1  UNL1        0.2292
     25 O         -30.7290   -1.8780   24.7210 O.3     1  UNL1       -0.2162
     26 C         -26.3540    0.5760   25.7770 C.3     1  UNL1        0.2539
     27 F         -25.8600   -0.6810   25.7950 F       1  UNL1       -0.2227
     28 CL        -22.0977    2.0483   25.9520 Cl      1  UNL1       -0.1146
     29 C         -23.1744    0.1041   29.2656 C.3     1  UNL1        0.0736
     30 C         -22.6069    1.4269   28.6455 C.3     1  UNL1        0.0339
     31 C         -29.6540   -0.9876   29.3849 C.2     1  UNL1        0.3644
     32 C         -27.7251    0.5458   29.7956 C.3     1  UNL1        0.0127
     33 C         -31.2012    3.4192   27.9319 C.3     1  UNL1        0.0322
     34 C         -26.7207    1.6475   29.2957 C.3     1  UNL1        0.0169
     35 C         -30.0153    1.6225   29.3298 C.3     1  UNL1        0.0404
     36 O         -30.8369    3.7516   30.2728 O.3     1  UNL1       -0.3538
     37 O         -29.2206   -1.7379   30.2962 O.co2   1  UNL1       -0.2457
     38 C         -23.2185    1.2808   27.1780 C.3     1  UNL1        0.0864
     39 C         -31.6842    4.0905   29.1920 C.3     1  UNL1        0.1422
     40 C         -29.7007    2.9980   29.9954 C.3     1  UNL1        0.1426
     41 O         -30.5801   -1.3412   28.6027 O.co2   1  UNL1       -0.2457
     42 N         -24.8312   -0.1486   29.0903 N.3     1  UNL1       -0.2701
     43 C         -25.4555    1.0773   28.6233 C.3     1  UNL1        0.0628
     44 C         -24.8129    1.3228   27.3229 C.3     1  UNL1        0.0510
     45 C         -29.0248    0.4102   29.1008 C.3     1  UNL1        0.1059
     46 C         -30.6390    2.0071   28.0497 C.3     1  UNL1        0.0056
@<TRIPOS>BOND
     1     1     2    1
     2     2     7    1
     3     3     2    2
     4     4     3    1
     5     4     5    2
     6     5     6    1
     7     6     7    2
     8     8     1    1
     9     8     9    1
    10     8    12    1
    11     9    10    1
    12    10    11    1
    13    12    11    1
    14    14    13    2
    15    14    15    1
    16    15    18    2
    17    16    17    1
    18    16    15    1
    19    19    14    1
    20    20    21    2
    21    20    19    1
    22    21    26    1
    23    22    21    1
    24    23    22    1
    25    24    23    1
    26    24    25    1
    27    26    27    1
    28    26    13    1
    29    30    29    1
    30    31    37   ar
    31    33    46    1
    32    33    39    1
    33    34    32    1
    34    35    45    1
    35    35    40    1
    36    38    28    1
    37    38    44    1
    38    38    30    1
    39    39    36    1
    40    40    36    1
    41    41    31   ar
    42    42    29    1
    43    42     1    1
    44    43    42    1
    45    43    34    1
    46    44    13    1
    47    44    43    1
    48    45    31    1
    49    45    32    1
    50    46    35    1
