@<TRIPOS>MOLECULE
No_4238-gen_results/8p0m/2024-11-27-11-27-31/
 14 14 0 0 0
SMALL
GASTEIGER

@<TRIPOS>ATOM
      1 C         -28.0162   -0.8135   28.8779 C.ar    1  UNL1       -0.0026
      2 C         -28.4690   -0.7850   29.8287 C.ar    1  UNL1       -0.0006
      3 C         -26.5042   -0.7777   28.8766 C.ar    1  UNL1       -0.0003
      4 C         -25.9150   -0.6580   29.9230 C.ar    1  UNL1       -0.0000
      5 C         -27.9691   -0.7243   31.2047 C.ar    1  UNL1       -0.0026
      6 C         -26.5847   -0.6393   31.2062 C.ar    1  UNL1       -0.0003
      7 C         -30.0752   -0.8832   29.9049 C.3     1  UNL1        0.1409
      8 N         -30.7509   -0.0157   30.5283 N.pl3   1  UNL1       -0.2058
      9 C         -31.4880    0.7308   30.3065 C.2     1  UNL1        0.2248
     10 C         -32.1775    1.6690   31.2124 C.2     1  UNL1        0.1322
     11 F         -31.8457    0.8668   28.9902 F       1  UNL1       -0.1849
     12 N         -31.9138    1.4653   32.4307 N.pl3   1  UNL1       -0.2061
     13 C         -32.2746    2.3339   33.4419 C.2     1  UNL1        0.0859
     14 C         -31.7542    2.1044   34.7496 C.2     1  UNL1        0.0192
@<TRIPOS>BOND
     1     2     7    1
     2     7     8    1
     3     8     9    1
     4     9    10    2
     5     9    11    1
     6    10    12    1
     7    12    13    1
     8    13    14    2
     9     1     2   ar
    10     2     5   ar
    11     5     6   ar
    12     6     4   ar
    13     4     3   ar
    14     3     1   ar
