@<TRIPOS>MOLECULE
No_4240-gen_results/8p0m/2024-11-27-11-27-31/
 35 39 0 0 0
SMALL
GASTEIGER

@<TRIPOS>ATOM
      1 C         -28.0162   -0.8135   28.8779 C.ar    1  UNL1        0.0042
      2 C         -28.4690   -0.7850   29.8287 C.ar    1  UNL1        0.0001
      3 C         -27.0871    0.2903   28.6377 C.ar    1  UNL1        0.0497
      4 C         -26.8317    1.2487   29.5869 C.ar    1  UNL1       -0.0165
      5 C         -28.3914    0.0801   31.0065 C.ar    1  UNL1       -0.0003
      6 C         -27.4940    1.1521   30.7841 C.ar    1  UNL1       -0.0041
      7 C         -26.3172    0.3994   27.3653 C.2     1  UNL1        0.2487
      8 N         -25.0720    0.1570   27.4305 N.am    1  UNL1       -0.2761
      9 O         -26.8935    0.6376   26.2796 O.2     1  UNL1       -0.2699
     10 C         -24.1818    0.3546   26.2850 C.3     1  UNL1        0.0937
     11 C         -24.3472   -0.2790   28.6064 C.3     1  UNL1        0.0937
     12 C         -23.1684    0.4991   28.9516 C.3     1  UNL1        0.0216
     13 C         -22.3463    0.9413   27.8099 C.3     1  UNL1        0.0034
     14 C         -23.0509    1.1758   26.6161 C.3     1  UNL1        0.0216
     15 C         -21.1283    1.6338   28.1006 C.3     1  UNL1        0.0001
     16 C         -25.9555    2.3810   29.4127 C.3     1  UNL1        0.0424
     17 C         -26.6491    3.7096   29.4223 C.3     1  UNL1        0.0617
     18 C         -25.9324    4.7591   28.9720 C.3     1  UNL1        0.0163
     19 C         -26.3458    5.5694   27.9893 C.3     1  UNL1        0.0028
     20 C         -27.5402    5.5471   27.6547 C.3     1  UNL1        0.0160
     21 C         -28.4607    4.5759   28.1841 C.3     1  UNL1        0.0575
     22 N         -27.8202    3.4992   28.5263 N.3     1  UNL1       -0.2762
     23 C         -28.8300    2.6794   29.1144 C.3     1  UNL1        0.0577
     24 C         -29.6896    3.4755   29.9501 C.3     1  UNL1        0.0185
     25 C         -29.6199    4.8577   29.2664 C.3     1  UNL1        0.0176
     26 C         -31.1228    3.0003   30.1378 C.3     1  UNL1        0.0233
     27 C         -29.0345    3.7631   31.3665 C.3     1  UNL1        0.0017
     28 C         -29.8617    3.6350   32.5503 C.3     1  UNL1        0.0001
     29 C         -31.7669    2.6484   28.9897 C.2     1  UNL1       -0.0264
     30 C         -31.7340    2.9543   31.3943 C.3     1  UNL1        0.0044
     31 C         -31.0845    3.1835   32.5523 C.3     1  UNL1        0.0003
     32 C         -31.9236    3.0267   28.0350 C.2     1  UNL1       -0.0046
     33 C         -29.3871    1.6438   28.4291 C.3     1  UNL1        0.0173
     34 C         -32.5975    2.5210   26.9003 C.2     1  UNL1       -0.0003
     35 C         -33.0751    1.2316   27.0661 C.2     1  UNL1       -0.0000
@<TRIPOS>BOND
     1     3     7    1
     2     7     8   am
     3     7     9    2
     4     8    10    1
     5     8    11    1
     6    11    12    1
     7    10    14    1
     8    13    14    1
     9    13    15    1
    10     4    16    1
    11    16    17    1
    12    18    19    1
    13    20    21    1
    14    17    22    1
    15    21    22    1
    16    22    23    1
    17    23    24    1
    18    21    25    1
    19    24    25    1
    20    24    26    1
    21    24    27    1
    22    26    29    1
    23    26    30    1
    24    28    31    1
    25    29    32    2
    26    23    33    1
    27    32    34    1
    28    34    35    2
    29    17    18    1
    30    19    20    1
    31    13    12    1
    32    30    31    1
    33    28    27    1
    34     1     2   ar
    35     2     5   ar
    36     5     6   ar
    37     6     4   ar
    38     4     3   ar
    39     3     1   ar
