@<TRIPOS>MOLECULE
No_4241-gen_results/8p0m/2024-11-27-11-27-31/
 16 17 0 0 0
SMALL
GASTEIGER

@<TRIPOS>ATOM
      1 C         -28.0162   -0.8135   28.8779 C.ar    1  UNL1       -0.0178
      2 C         -28.4690   -0.7850   29.8287 C.ar    1  UNL1       -0.0039
      3 C         -26.5042   -0.7777   28.8766 C.3     1  UNL1        0.0526
      4 C         -25.9500    0.1157   29.4052 C.ar    1  UNL1       -0.0176
      5 C         -29.9713   -0.8318   29.8595 C.ar    1  UNL1       -0.0003
      6 C         -24.4521    0.1950   29.4758 C.ar    1  UNL1       -0.0039
      7 C         -23.8116    1.4248   29.3432 C.ar    1  UNL1       -0.0001
      8 C         -24.6094    2.5882   29.5588 C.ar    1  UNL1        0.0066
      9 C         -25.9530    2.5542   29.5631 C.ar    1  UNL1        0.0795
     10 C         -26.5571    1.3141   29.4431 C.ar    1  UNL1        0.0026
     11 C         -30.5866   -0.6433   28.7106 C.ar    1  UNL1       -0.0000
     12 C         -29.9183   -0.4209   27.5658 C.ar    1  UNL1       -0.0003
     13 C         -28.5453   -0.4441   27.6074 C.ar    1  UNL1       -0.0039
     14 C         -26.6983    3.8064   29.6520 C.2     1  UNL1        0.3877
     15 O         -27.8795    3.8393   29.3920 O.co2   1  UNL1       -0.2406
     16 O         -26.0722    4.8628   29.9996 O.co2   1  UNL1       -0.2406
@<TRIPOS>BOND
     1     1     3    1
     2     9    14    1
     3    14    15   ar
     4    14    16   ar
     5     3     4    1
     6     1     2   ar
     7     2     5   ar
     8     5    11   ar
     9    11    12   ar
    10    12    13   ar
    11    13     1   ar
    12     4     6   ar
    13     6     7   ar
    14     7     8   ar
    15     8     9   ar
    16     9    10   ar
    17    10     4   ar
