@<TRIPOS>MOLECULE
No_4244-gen_results/8p0m/2024-11-27-11-27-31/
 35 39 0 0 0
SMALL
GASTEIGER

@<TRIPOS>ATOM
      1 C         -28.0162   -0.8135   28.8779 C.ar    1  UNL1        0.0228
      2 C         -28.4690   -0.7850   29.8287 C.ar    1  UNL1        0.0585
      3 C         -28.1960    0.3478   28.0550 C.ar    1  UNL1        0.0585
      4 C         -29.0191    1.3501   28.3782 C.ar    1  UNL1        0.0106
      5 C         -29.4107    0.1803   30.3782 C.ar    1  UNL1        0.0106
      6 C         -29.2236    2.4924   27.5425 C.ar    1  UNL1        0.0008
      7 C         -29.5873    1.2242   29.6185 C.ar    1  UNL1        0.0017
      8 C         -29.2305    2.7694   26.4507 C.ar    1  UNL1        0.0000
      9 C         -29.4381    4.0527   25.7412 C.ar    1  UNL1        0.0000
     10 C         -29.6457    5.1685   26.5511 C.ar    1  UNL1        0.0000
     11 C         -29.6874    5.0178   27.8768 C.ar    1  UNL1        0.0000
     12 C         -29.4524    3.8218   28.4701 C.ar    1  UNL1        0.0000
     13 CL        -27.3638    0.3544   26.5276 Cl      1  UNL1       -0.0822
     14 CL        -28.2348   -2.2742   30.9278 Cl      1  UNL1       -0.0822
     15 C         -30.1820    0.1264   31.6973 C.2     1  UNL1        0.0008
     16 C         -30.8481   -0.5631   32.0686 C.2     1  UNL1        0.0000
     17 C         -31.3395   -1.7481   31.3205 C.ar    1  UNL1       -0.0000
     18 C         -31.5942   -1.7032   30.1528 C.ar    1  UNL1       -0.0003
     19 C         -32.2008   -2.8470   29.4059 C.ar    1  UNL1       -0.0039
     20 C         -32.1535   -4.0490   30.0507 C.ar    1  UNL1       -0.0180
     21 C         -31.8195   -4.1349   31.3946 C.ar    1  UNL1       -0.0039
     22 C         -31.4526   -3.0269   32.1023 C.ar    1  UNL1       -0.0003
     23 C         -32.6795   -5.2386   29.2937 C.3     1  UNL1        0.0515
     24 C         -31.9764   -5.6187   28.3172 C.2     1  UNL1       -0.0023
     25 C         -30.8187   -4.9979   27.9489 C.2     1  UNL1        0.1713
     26 C         -32.0280   -7.0299   27.8764 C.3     1  UNL1        0.0259
     27 C         -32.7434   -7.2977   26.9509 C.3     1  UNL1        0.0092
     28 C         -33.3998   -6.4850   26.2925 C.3     1  UNL1        0.0298
     29 C         -33.4049   -5.1424   26.5783 C.ar    1  UNL1        0.0124
     30 C         -34.4932   -4.2842   26.3204 C.ar    1  UNL1       -0.0013
     31 C         -34.3868   -2.8804   26.3876 C.ar    1  UNL1       -0.0001
     32 C         -33.1662   -2.3086   26.0432 C.ar    1  UNL1        0.0031
     33 C         -31.9943   -3.1877   26.0592 C.ar    1  UNL1        0.0372
     34 C         -32.1519   -4.4348   26.2134 C.ar    1  UNL1        0.1414
     35 O         -31.0527   -5.1740   26.3677 O.3     1  UNL1       -0.4514
@<TRIPOS>BOND
     1     4     6    1
     2     3    13    1
     3     2    14    1
     4     5    15    1
     5    15    16    2
     6    16    17    1
     7    20    23    1
     8    23    24    1
     9    24    25    2
    10    24    26    1
    11    26    27    1
    12    27    28    1
    13    28    29    1
    14    25    35    1
    15    34    35    1
    16    17    18   ar
    17    18    19   ar
    18    19    20   ar
    19    20    21   ar
    20    21    22   ar
    21    22    17   ar
    22     6     8   ar
    23     8     9   ar
    24     9    10   ar
    25    10    11   ar
    26    11    12   ar
    27    12     6   ar
    28    29    30   ar
    29    30    31   ar
    30    31    32   ar
    31    32    33   ar
    32    33    34   ar
    33    34    29   ar
    34     1     2   ar
    35     2     5   ar
    36     5     7   ar
    37     7     4   ar
    38     4     3   ar
    39     3     1   ar
