@<TRIPOS>MOLECULE
outputs/IAG933/test6/raw/output_4247_IAG933_linker_design_.xyz
 44 48 0 0 0
SMALL
GASTEIGER

@<TRIPOS>ATOM
      1 C         -24.8550   -1.0120   30.1430 C.3     1  UNL1        0.0626
      2 C         -24.9730   -2.5050   29.7880 C.2     1  UNL1       -0.0191
      3 C         -23.9060   -3.1730   29.1460 C.2     1  UNL1       -0.0042
      4 C         -23.9890   -4.5490   28.8530 C.2     1  UNL1       -0.0003
      5 C         -25.1370   -5.2800   29.2050 C.2     1  UNL1       -0.0000
      6 C         -26.2320   -4.6110   29.7840 C.2     1  UNL1       -0.0003
      7 C         -26.1550   -3.2320   30.0650 C.2     1  UNL1       -0.0042
      8 C         -25.3870   -0.6790   31.5710 C.3     1  UNL1        0.0788
      9 C         -25.1890    0.7730   32.0280 C.3     1  UNL1        0.0193
     10 C         -25.3360    0.6840   33.5440 C.3     1  UNL1        0.0202
     11 C         -24.8290   -0.7150   33.9050 C.3     1  UNL1        0.0887
     12 N         -24.7580   -1.4810   32.6460 N.3     1  UNL1       -0.2191
     13 C         -25.6880    1.6140   26.4610 C.2     1  UNL1        0.0399
     14 C         -26.2500    2.9200   26.3950 C.2     1  UNL1        0.0766
     15 C         -25.6420    4.0930   27.1230 C.2     1  UNL1        0.2664
     16 N         -25.6140    5.2520   26.4490 N.am    1  UNL1       -0.1997
     17 C         -25.0260    6.4790   26.9630 C.3     1  UNL1        0.1388
     18 O         -25.1430    3.9660   28.2430 O.2     1  UNL1       -0.2683
     19 C         -27.4380    3.0910   25.6450 C.2     1  UNL1        0.1067
     20 N         -28.0750    2.0890   25.0030 N.2     1  UNL1       -0.2081
     21 C         -27.5430    0.8490   25.0790 C.2     1  UNL1        0.2533
     22 O         -28.1930   -0.2080   24.4770 O.2     1  UNL1       -0.4558
     23 C         -29.4600    0.0050   23.8660 C.3     1  UNL1        0.2426
     24 C         -30.0650   -1.3770   23.5730 C.3     1  UNL1        0.2292
     25 O         -30.7290   -1.8780   24.7210 O.3     1  UNL1       -0.2162
     26 C         -26.3540    0.5760   25.7770 C.2     1  UNL1        0.1931
     27 F         -25.8600   -0.6810   25.7950 F       1  UNL1       -0.1992
     28 C         -25.3497   -0.1911   29.0163 C.3     1  UNL1        0.1257
     29 O         -28.1250   -0.9680   29.2125 O.2     1  UNL1       -0.2733
     30 O         -22.3579   -0.5220   29.4007 O.2     1  UNL1       -0.2885
     31 O         -21.0976    1.8509   27.7441 O.3     1  UNL1       -0.2074
     32 C         -29.1196    2.2131   31.3831 C.3     1  UNL1        0.0340
     33 O         -31.0075    1.5724   29.7570 O.3     1  UNL1       -0.2226
     34 C         -28.1436    2.5610   30.2105 C.3     1  UNL1        0.0143
     35 C         -22.9281    0.3447   28.5161 C.2     1  UNL1        0.2075
     36 C         -24.4300    1.2443   27.0754 C.2     1  UNL1        0.0293
     37 F         -22.8089    2.3847   25.6042 F       1  UNL1       -0.2058
     38 C         -23.0852    1.6420   26.6080 C.2     1  UNL1        0.1553
     39 N         -26.4712    0.6365   29.0672 N.am    1  UNL1       -0.2021
     40 C         -28.6014    1.2500   29.4845 C.3     1  UNL1        0.1086
     41 C         -24.2586    0.5090   28.2616 C.2     1  UNL1        0.0375
     42 C         -22.1250    1.0858   27.4472 C.3     1  UNL1        0.2618
     43 C         -27.6579    0.1658   29.2375 C.2     1  UNL1        0.2437
     44 C         -29.8779    1.0316   30.1772 C.3     1  UNL1        0.1606
@<TRIPOS>BOND
     1     1    28    1
     2     2     7    1
     3     2     1    1
     4     3     2    2
     5     4     3    1
     6     4     5    2
     7     5     6    1
     8     6     7    2
     9     8     1    1
    10     8     9    1
    11     8    12    1
    12     9    10    1
    13    10    11    1
    14    12    11    1
    15    13    36    1
    16    14    13    1
    17    14    15    1
    18    15    18    2
    19    16    17    1
    20    16    15    1
    21    19    14    2
    22    20    21    2
    23    20    19    1
    24    21    26    1
    25    22    21    1
    26    23    22    1
    27    24    23    1
    28    24    25    1
    29    26    27    1
    30    26    13    2
    31    28    39    1
    32    29    43    2
    33    34    32    1
    34    35    30    1
    35    36    41    1
    36    37    38    1
    37    38    36    2
    38    38    42    1
    39    39    43    1
    40    40    43    1
    41    40    44    1
    42    40    34    1
    43    41    35    2
    44    41    28    1
    45    42    31    1
    46    42    35    1
    47    44    33    1
    48    44    32    1
