@<TRIPOS>MOLECULE
outputs/IAG933/test6/raw/output_4249_IAG933_linker_design_.xyz
 45 48 0 0 0
SMALL
GASTEIGER

@<TRIPOS>ATOM
      1 C         -24.8550   -1.0120   30.1430 C.3     1  UNL1        0.0950
      2 C         -24.9730   -2.5050   29.7880 C.2     1  UNL1       -0.0140
      3 C         -23.9060   -3.1730   29.1460 C.2     1  UNL1       -0.0038
      4 C         -23.9890   -4.5490   28.8530 C.2     1  UNL1       -0.0003
      5 C         -25.1370   -5.2800   29.2050 C.2     1  UNL1       -0.0000
      6 C         -26.2320   -4.6110   29.7840 C.2     1  UNL1       -0.0003
      7 C         -26.1550   -3.2320   30.0650 C.2     1  UNL1       -0.0038
      8 C         -25.3870   -0.6790   31.5710 C.3     1  UNL1        0.0839
      9 C         -25.1890    0.7730   32.0280 C.3     1  UNL1        0.0196
     10 C         -25.3360    0.6840   33.5440 C.3     1  UNL1        0.0203
     11 C         -24.8290   -0.7150   33.9050 C.3     1  UNL1        0.0887
     12 N         -24.7580   -1.4810   32.6460 N.3     1  UNL1       -0.2187
     13 C         -25.6880    1.6140   26.4610 C.2     1  UNL1        0.0379
     14 C         -26.2500    2.9200   26.3950 C.2     1  UNL1        0.0765
     15 C         -25.6420    4.0930   27.1230 C.2     1  UNL1        0.2664
     16 N         -25.6140    5.2520   26.4490 N.am    1  UNL1       -0.1997
     17 C         -25.0260    6.4790   26.9630 C.3     1  UNL1        0.1388
     18 O         -25.1430    3.9660   28.2430 O.2     1  UNL1       -0.2683
     19 C         -27.4380    3.0910   25.6450 C.2     1  UNL1        0.1067
     20 N         -28.0750    2.0890   25.0030 N.2     1  UNL1       -0.2081
     21 C         -27.5430    0.8490   25.0790 C.2     1  UNL1        0.2533
     22 O         -28.1930   -0.2080   24.4770 O.2     1  UNL1       -0.4558
     23 C         -29.4600    0.0050   23.8660 C.3     1  UNL1        0.2426
     24 C         -30.0650   -1.3770   23.5730 C.3     1  UNL1        0.2292
     25 O         -30.7290   -1.8780   24.7210 O.3     1  UNL1       -0.2162
     26 C         -26.3540    0.5760   25.7770 C.2     1  UNL1        0.1930
     27 F         -25.8600   -0.6810   25.7950 F       1  UNL1       -0.1992
     28 C         -24.6854    1.2158   27.1766 C.2     1  UNL1        0.0009
     29 C         -23.2409    1.4049   26.7175 C.2     1  UNL1       -0.0226
     30 C         -31.3670    0.3186   28.7800 C.2     1  UNL1        0.2082
     31 O         -29.1287    1.7526   30.1667 O.2     1  UNL1       -0.2835
     32 C         -24.3423   -0.0076   29.2745 C.2     1  UNL1        0.1209
     33 O         -22.9060    0.0782   29.5492 O.2     1  UNL1       -0.4790
     34 O         -30.0093    0.0850   26.9776 O.2     1  UNL1       -0.2879
     35 C         -26.5628   -0.0392   28.5745 C.2     1  UNL1        0.0021
     36 C         -27.8920    0.2221   28.8310 C.2     1  UNL1        0.0279
     37 C         -30.1349   -0.1020   28.2162 C.2     1  UNL1        0.2119
     38 C         -20.8874    1.7156   27.1763 C.3     1  UNL1        0.0085
     39 C         -32.1607   -0.7574   29.3841 C.3     1  UNL1        0.0804
     40 C         -22.5087    1.2570   28.9486 C.3     1  UNL1        0.2091
     41 C         -22.1454    0.8727   27.5601 C.3     1  UNL1        0.0657
     42 C         -29.0279   -0.6788   28.8073 C.3     1  UNL1        0.1018
     43 C         -25.1315    0.4619   28.3629 C.2     1  UNL1        0.0297
     44 O         -31.8497    1.4377   28.6255 O.2     1  UNL1       -0.2883
     45 C         -28.4715    1.5610   29.1399 C.2     1  UNL1        0.2303
@<TRIPOS>BOND
     1     1    32    1
     2     2     7    1
     3     2     1    1
     4     3     2    2
     5     4     3    1
     6     4     5    2
     7     5     6    1
     8     6     7    2
     9     8     1    1
    10     8     9    1
    11     8    12    1
    12     9    10    1
    13    10    11    1
    14    12    11    1
    15    13    28    1
    16    14    13    1
    17    14    15    1
    18    15    18    2
    19    16    17    1
    20    16    15    1
    21    19    14    2
    22    20    21    2
    23    20    19    1
    24    21    26    1
    25    22    21    1
    26    23    22    1
    27    24    23    1
    28    24    25    1
    29    26    27    1
    30    26    13    2
    31    28    43    1
    32    29    28    2
    33    29    41    1
    34    30    39    1
    35    32    33    1
    36    34    37    2
    37    35    36    2
    38    36    45    1
    39    37    30    1
    40    37    42    1
    41    40    33    1
    42    41    38    1
    43    41    40    1
    44    42    36    1
    45    43    35    1
    46    43    32    2
    47    44    30    2
    48    45    31    2
