@<TRIPOS>MOLECULE
No_425-gen_results/8p0m/2024-11-27-11-27-31/
 12 12 0 0 0
SMALL
GASTEIGER

@<TRIPOS>ATOM
      1 C         -28.0162   -0.8135   28.8779 C.3     1  UNL1        0.1404
      2 C         -27.0636   -0.1190   28.6079 C.ar    1  UNL1       -0.0109
      3 C         -27.0010    0.6913   27.4910 C.ar    1  UNL1       -0.0037
      4 C         -25.8548    1.4825   27.0830 C.ar    1  UNL1        0.0013
      5 C         -24.6901    1.4526   27.8807 C.ar    1  UNL1        0.0209
      6 C         -24.7379    0.6010   29.0416 C.ar    1  UNL1        0.0013
      7 C         -25.8234   -0.1688   29.3887 C.ar    1  UNL1       -0.0037
      8 C         -29.2252   -0.0469   29.2805 C.2     1  UNL1        0.3692
      9 O         -30.1961   -0.7956   29.6552 O.co2   1  UNL1       -0.2453
     10 O         -29.1962    1.1145   29.5788 O.co2   1  UNL1       -0.2453
     11 C         -23.5241    2.2169   27.5634 C.2     1  UNL1        0.1221
     12 N         -22.5271    2.2356   28.3659 N.2     1  UNL1       -0.1464
@<TRIPOS>BOND
     1     1     2    1
     2     1     8    1
     3     8     9   ar
     4     8    10   ar
     5     5    11    1
     6    11    12    2
     7     2     3   ar
     8     3     4   ar
     9     4     5   ar
    10     5     6   ar
    11     6     7   ar
    12     7     2   ar
