@<TRIPOS>MOLECULE
No_4250-gen_results/8p0m/2024-11-27-11-27-31/
 35 38 0 0 0
SMALL
GASTEIGER

@<TRIPOS>ATOM
      1 C         -28.0162   -0.8135   28.8779 C.3     1  UNL1        0.0304
      2 C         -27.0636   -0.1189   28.6079 C.ar    1  UNL1       -0.0255
      3 C         -27.0010    0.6913   27.4910 C.ar    1  UNL1       -0.0043
      4 C         -25.8548    1.4825   27.0830 C.ar    1  UNL1        0.0035
      5 C         -24.9008    1.3894   27.5922 C.ar    1  UNL1        0.0711
      6 C         -24.6783    0.5764   28.8299 C.ar    1  UNL1       -0.0004
      7 C         -25.7704   -0.2051   29.2800 C.ar    1  UNL1       -0.0227
      8 C         -27.9472   -1.4840   30.2151 C.3     1  UNL1        0.0273
      9 C         -29.1018   -2.2423   30.6432 C.ar    1  UNL1       -0.0224
     10 C         -28.9270   -3.4665   31.0984 C.ar    1  UNL1       -0.0043
     11 C         -30.0666   -4.1730   31.5395 C.ar    1  UNL1       -0.0006
     12 C         -31.3250   -3.6299   31.4382 C.ar    1  UNL1       -0.0029
     13 C         -31.4362   -2.3485   31.0093 C.ar    1  UNL1       -0.0051
     14 C         -30.3118   -1.6143   30.6193 C.ar    1  UNL1       -0.0071
     15 C         -27.2524   -0.7182   31.1823 C.3     1  UNL1        0.0131
     16 C         -25.8542   -0.3622   30.7278 C.3     1  UNL1        0.0406
     17 C         -23.5508    2.0888   27.1675 C.3     1  UNL1        0.4186
     18 F         -23.5493    2.6856   26.1267 F       1  UNL1       -0.1659
     19 F         -23.1509    3.0451   28.2026 F       1  UNL1       -0.1659
     20 F         -22.4088    1.2837   27.1944 F       1  UNL1       -0.1659
     21 C         -28.2278    0.8423   26.6217 C.ar    1  UNL1       -0.0005
     22 C         -28.2177    0.4558   25.3316 C.ar    1  UNL1       -0.0000
     23 C         -28.9802    0.9437   24.5698 C.ar    1  UNL1       -0.0002
     24 C         -30.1626    1.7176   24.8550 C.ar    1  UNL1       -0.0004
     25 C         -29.3891    1.4446   27.1813 C.ar    1  UNL1       -0.0004
     26 C         -30.3426    1.9335   26.2755 C.ar    1  UNL1        0.0255
     27 C         -24.7659   -0.1772   31.6605 C.2     1  UNL1       -0.0402
     28 C         -23.7049   -0.5196   31.3813 C.2     1  UNL1       -0.0088
     29 C         -24.9676    0.8321   32.7020 C.3     1  UNL1        0.0267
     30 C         -31.5511    2.6249   26.7201 C.3     1  UNL1        0.2619
     31 CL        -32.5677    2.5349   26.6051 Cl      1  UNL1       -0.0719
     32 F         -31.0180    3.8583   27.0240 F       1  UNL1       -0.2143
     33 C         -32.7966   -1.7130   30.9729 C.3     1  UNL1        0.1150
     34 N         -33.4070   -1.5206   30.0837 N.3     1  UNL1       -0.2118
     35 C         -33.0832   -1.8631   28.8938 C.3     1  UNL1        0.1079
@<TRIPOS>BOND
     1     1     2    1
     2     1     8    1
     3     8     9    1
     4     8    15    1
     5     7    16    1
     6    15    16    1
     7     5    17    1
     8    17    18    1
     9    17    19    1
    10    17    20    1
    11     3    21    1
    12    16    27    1
    13    27    28    2
    14    27    29    1
    15    26    30    1
    16    30    31    1
    17    30    32    1
    18    13    33    1
    19    33    34    1
    20    34    35    1
    21     2     3   ar
    22     3     4   ar
    23     4     5   ar
    24     5     6   ar
    25     6     7   ar
    26     7     2   ar
    27    21    22   ar
    28    22    23   ar
    29    23    24   ar
    30    24    26   ar
    31    26    25   ar
    32    25    21   ar
    33     9    10   ar
    34    10    11   ar
    35    11    12   ar
    36    12    13   ar
    37    13    14   ar
    38    14     9   ar
