@<TRIPOS>MOLECULE
outputs/IAG933/test6/raw/output_4251_IAG933_linker_design_.xyz
 47 51 0 0 0
SMALL
GASTEIGER

@<TRIPOS>ATOM
      1 C         -24.8550   -1.0120   30.1430 C.3     1  UNL1        0.1140
      2 C         -24.9730   -2.5050   29.7880 C.2     1  UNL1       -0.0029
      3 C         -23.9060   -3.1730   29.1460 C.2     1  UNL1       -0.0026
      4 C         -23.9890   -4.5490   28.8530 C.2     1  UNL1       -0.0003
      5 C         -25.1370   -5.2800   29.2050 C.2     1  UNL1       -0.0000
      6 C         -26.2320   -4.6110   29.7840 C.2     1  UNL1       -0.0003
      7 C         -26.1550   -3.2320   30.0650 C.2     1  UNL1       -0.0026
      8 C         -25.3870   -0.6790   31.5710 C.3     1  UNL1        0.0951
      9 C         -25.1890    0.7730   32.0280 C.3     1  UNL1        0.0209
     10 C         -25.3360    0.6840   33.5440 C.3     1  UNL1        0.0203
     11 C         -24.8290   -0.7150   33.9050 C.3     1  UNL1        0.0888
     12 N         -24.7580   -1.4810   32.6460 N.3     1  UNL1       -0.2174
     13 C         -25.6880    1.6140   26.4610 C.3     1  UNL1        0.1029
     14 C         -26.2500    2.9200   26.3950 C.2     1  UNL1        0.0597
     15 C         -25.6420    4.0930   27.1230 C.2     1  UNL1        0.2628
     16 N         -25.6140    5.2520   26.4490 N.am    1  UNL1       -0.2000
     17 C         -25.0260    6.4790   26.9630 C.3     1  UNL1        0.1388
     18 O         -25.1430    3.9660   28.2430 O.2     1  UNL1       -0.2686
     19 C         -27.4380    3.0910   25.6450 C.2     1  UNL1        0.1025
     20 N         -28.0750    2.0890   25.0030 N.2     1  UNL1       -0.2118
     21 C         -27.5430    0.8490   25.0790 C.2     1  UNL1        0.2345
     22 O         -28.1930   -0.2080   24.4770 O.2     1  UNL1       -0.4573
     23 C         -29.4600    0.0050   23.8660 C.3     1  UNL1        0.2540
     24 C         -30.0650   -1.3770   23.5730 C.3     1  UNL1        0.2555
     25 O         -30.7290   -1.8780   24.7210 O.3     1  UNL1       -0.4444
     26 C         -26.3540    0.5760   25.7770 C.3     1  UNL1        0.2448
     27 F         -25.8600   -0.6810   25.7950 F       1  UNL1       -0.2265
     28 C         -31.1464   -0.7619   28.3503 C.3     1  UNL1        0.0587
     29 C         -28.6324   -0.1151   28.1608 C.3     1  UNL1        0.0026
     30 C         -21.7064    1.5785   27.4512 C.3     1  UNL1        0.0364
     31 C         -23.5062    0.3024   28.6385 C.2     1  UNL1        0.2458
     32 C         -26.0427    0.5010   28.6665 C.3     1  UNL1        0.0940
     33 CL        -23.2525    2.5528   25.2545 Cl      1  UNL1       -0.0867
     34 C         -31.3614   -1.7353   25.8938 C.2     1  UNL1        0.3180
     35 C         -24.1616    1.5859   26.5227 C.2     1  UNL1        0.0429
     36 C         -30.8980    0.2549   31.0187 C.3     1  UNL1        0.0117
     37 C         -29.9847    0.1120   28.7642 C.3     1  UNL1        0.0106
     38 O         -32.3468   -2.4554   26.2307 O.2     1  UNL1       -0.2501
     39 C         -31.6327   -0.9972   30.8153 C.3     1  UNL1        0.0575
     40 S         -31.4861   -2.0462   29.5406 S.3     1  UNL1       -0.1405
     41 C         -29.6985    0.1562   30.2032 C.3     1  UNL1        0.0017
     42 C         -28.7304   -0.8189   30.8364 C.3     1  UNL1        0.0001
     43 N         -24.7153   -0.1503   28.9778 N.am    1  UNL1       -0.2728
     44 C         -23.1520    1.1246   27.4914 C.2     1  UNL1        0.0386
     45 O         -22.5701   -0.0682   29.3558 O.2     1  UNL1       -0.2702
     46 C         -30.9118   -0.7063   26.8960 C.3     1  UNL1        0.1203
     47 C         -27.2575   -0.5317   28.7274 C.3     1  UNL1        0.0216
@<TRIPOS>BOND
     1     1     2    1
     2     2     7    1
     3     3     2    2
     4     4     3    1
     5     4     5    2
     6     5     6    1
     7     6     7    2
     8     8     1    1
     9     8     9    1
    10     8    12    1
    11     9    10    1
    12    10    11    1
    13    12    11    1
    14    13    14    1
    15    13    35    1
    16    14    15    1
    17    15    18    2
    18    16    17    1
    19    16    15    1
    20    19    14    2
    21    20    21    2
    22    20    19    1
    23    21    26    1
    24    22    21    1
    25    23    22    1
    26    24    23    1
    27    24    25    1
    28    25    34    1
    29    26    27    1
    30    26    13    1
    31    28    46    1
    32    28    37    1
    33    28    40    1
    34    29    47    1
    35    30    44    1
    36    31    43   am
    37    31    45    2
    38    32    47    1
    39    32    43    1
    40    33    35    1
    41    34    38    2
    42    34    46    1
    43    35    44    2
    44    37    29    1
    45    37    41    1
    46    39    36    1
    47    40    39    1
    48    41    42    1
    49    41    36    1
    50    43     1    1
    51    44    31    1
