@<TRIPOS>MOLECULE
outputs/IAG933/test6/raw/output_4253_IAG933_linker_design_.xyz
 42 46 0 0 0
SMALL
GASTEIGER

@<TRIPOS>ATOM
      1 C         -24.8550   -1.0120   30.1430 C.3     1  UNL1        0.0980
      2 C         -24.9730   -2.5050   29.7880 C.2     1  UNL1       -0.0064
      3 C         -23.9060   -3.1730   29.1460 C.2     1  UNL1       -0.0029
      4 C         -23.9890   -4.5490   28.8530 C.2     1  UNL1       -0.0003
      5 C         -25.1370   -5.2800   29.2050 C.2     1  UNL1       -0.0000
      6 C         -26.2320   -4.6110   29.7840 C.2     1  UNL1       -0.0003
      7 C         -26.1550   -3.2320   30.0650 C.2     1  UNL1       -0.0029
      8 C         -25.3870   -0.6790   31.5710 C.3     1  UNL1        0.0916
      9 C         -25.1890    0.7730   32.0280 C.3     1  UNL1        0.0206
     10 C         -25.3360    0.6840   33.5440 C.3     1  UNL1        0.0203
     11 C         -24.8290   -0.7150   33.9050 C.3     1  UNL1        0.0888
     12 N         -24.7580   -1.4810   32.6460 N.3     1  UNL1       -0.2178
     13 C         -25.6880    1.6140   26.4610 C.2     1  UNL1        0.0246
     14 C         -26.2500    2.9200   26.3950 C.2     1  UNL1        0.0729
     15 C         -25.6420    4.0930   27.1230 C.2     1  UNL1        0.2661
     16 N         -25.6140    5.2520   26.4490 N.am    1  UNL1       -0.1997
     17 C         -25.0260    6.4790   26.9630 C.3     1  UNL1        0.1388
     18 O         -25.1430    3.9660   28.2430 O.2     1  UNL1       -0.2683
     19 C         -27.4380    3.0910   25.6450 C.2     1  UNL1        0.1064
     20 N         -28.0750    2.0890   25.0030 N.2     1  UNL1       -0.2081
     21 C         -27.5430    0.8490   25.0790 C.2     1  UNL1        0.2530
     22 O         -28.1930   -0.2080   24.4770 O.2     1  UNL1       -0.4558
     23 C         -29.4600    0.0050   23.8660 C.3     1  UNL1        0.2426
     24 C         -30.0650   -1.3770   23.5730 C.3     1  UNL1        0.2292
     25 O         -30.7290   -1.8780   24.7210 O.3     1  UNL1       -0.2162
     26 C         -26.3540    0.5760   25.7770 C.2     1  UNL1        0.1894
     27 F         -25.8600   -0.6810   25.7950 F       1  UNL1       -0.1996
     28 F         -19.8569    1.2139   28.2022 F       1  UNL1       -0.2319
     29 O         -22.0618    1.5016   26.2624 O.3     1  UNL1       -0.2796
     30 O         -22.5412    1.5060   28.4986 O.3     1  UNL1       -0.3150
     31 O         -23.3203    3.1476   25.4883 O.3     1  UNL1       -0.1595
     32 C         -22.9062    0.7585   29.7054 C.3     1  UNL1        0.1792
     33 C         -21.1038   -0.7008   28.9968 C.3     1  UNL1        0.0446
     34 C         -24.6617    0.0175   27.9355 C.3     1  UNL1        0.0718
     35 N         -24.1500    0.0431   29.3493 N.3     1  UNL1       -0.2478
     36 C         -23.3541    1.7607   25.7865 C.3     1  UNL1        0.3644
     37 C         -21.9355   -0.3153   30.0952 C.3     1  UNL1        0.0499
     38 C         -20.7026    0.0840   27.9068 C.3     1  UNL1        0.2171
     39 C         -22.0387    0.8335   27.5280 C.3     1  UNL1        0.2735
     40 C         -26.1499   -0.3670   28.1371 C.3     1  UNL1        0.0180
     41 C         -24.4867    1.1426   26.7743 C.3     1  UNL1        0.1276
     42 F         -23.5959    1.1393   24.5182 F       1  UNL1       -0.1762
@<TRIPOS>BOND
     1     1     2    1
     2     2     7    1
     3     3     2    2
     4     4     3    1
     5     4     5    2
     6     5     6    1
     7     6     7    2
     8     8     1    1
     9     8     9    1
    10     8    12    1
    11     9    10    1
    12    10    11    1
    13    12    11    1
    14    14    13    1
    15    14    15    1
    16    15    18    2
    17    16    17    1
    18    16    15    1
    19    19    14    2
    20    20    21    2
    21    20    19    1
    22    21    26    1
    23    22    21    1
    24    23    22    1
    25    24    23    1
    26    24    25    1
    27    26    27    1
    28    26    13    2
    29    30    32    1
    30    31    36    1
    31    32    37    1
    32    33    37    1
    33    34    40    1
    34    34    35    1
    35    35    32    1
    36    35     1    1
    37    36    42    1
    38    36    29    1
    39    36    41    1
    40    38    28    1
    41    38    33    1
    42    39    29    1
    43    39    38    1
    44    39    30    1
    45    41    13    1
    46    41    34    1
