@<TRIPOS>MOLECULE
outputs/IAG933/test6/raw/output_4255_IAG933_linker_design_.xyz
 39 42 0 0 0
SMALL
GASTEIGER

@<TRIPOS>ATOM
      1 C         -24.8550   -1.0120   30.1430 C.3     1  UNL1        0.0672
      2 C         -24.9730   -2.5050   29.7880 C.2     1  UNL1       -0.0190
      3 C         -23.9060   -3.1730   29.1460 C.2     1  UNL1       -0.0042
      4 C         -23.9890   -4.5490   28.8530 C.2     1  UNL1       -0.0003
      5 C         -25.1370   -5.2800   29.2050 C.2     1  UNL1       -0.0000
      6 C         -26.2320   -4.6110   29.7840 C.2     1  UNL1       -0.0003
      7 C         -26.1550   -3.2320   30.0650 C.2     1  UNL1       -0.0042
      8 C         -25.3870   -0.6790   31.5710 C.3     1  UNL1        0.0790
      9 C         -25.1890    0.7730   32.0280 C.3     1  UNL1        0.0193
     10 C         -25.3360    0.6840   33.5440 C.3     1  UNL1        0.0202
     11 C         -24.8290   -0.7150   33.9050 C.3     1  UNL1        0.0887
     12 N         -24.7580   -1.4810   32.6460 N.3     1  UNL1       -0.2191
     13 C         -25.6880    1.6140   26.4610 C.3     1  UNL1        0.0998
     14 C         -26.2500    2.9200   26.3950 C.2     1  UNL1        0.0594
     15 C         -25.6420    4.0930   27.1230 C.2     1  UNL1        0.2628
     16 N         -25.6140    5.2520   26.4490 N.am    1  UNL1       -0.2000
     17 C         -25.0260    6.4790   26.9630 C.3     1  UNL1        0.1388
     18 O         -25.1430    3.9660   28.2430 O.2     1  UNL1       -0.2686
     19 C         -27.4380    3.0910   25.6450 C.2     1  UNL1        0.1025
     20 N         -28.0750    2.0890   25.0030 N.2     1  UNL1       -0.2118
     21 C         -27.5430    0.8490   25.0790 C.2     1  UNL1        0.2344
     22 O         -28.1930   -0.2080   24.4770 O.2     1  UNL1       -0.4585
     23 C         -29.4600    0.0050   23.8660 C.3     1  UNL1        0.2423
     24 C         -30.0650   -1.3770   23.5730 C.3     1  UNL1        0.2292
     25 O         -30.7290   -1.8780   24.7210 O.3     1  UNL1       -0.2162
     26 C         -26.3540    0.5760   25.7770 C.3     1  UNL1        0.2445
     27 F         -25.8600   -0.6810   25.7950 F       1  UNL1       -0.2265
     28 F         -22.2844    0.3916   29.4266 F       1  UNL1       -0.1999
     29 N         -25.2141   -0.0984   28.1366 N.pl3   1  UNL1       -0.2271
     30 C         -24.1230    0.6796   27.8258 C.ar    1  UNL1        0.0984
     31 N         -27.8126    1.1358   29.3684 N.am    1  UNL1       -0.0863
     32 F         -20.7349    1.8108   27.4061 F       1  UNL1       -0.1946
     33 C         -25.8549   -0.3541   29.1497 C.3     1  UNL1        0.1769
     34 C         -22.0407    1.6268   27.3466 C.ar    1  UNL1        0.1981
     35 S         -23.0228    2.2877   26.0926 S.2     1  UNL1       -0.0581
     36 C         -27.2976   -0.1101   29.1479 C.2     1  UNL1        0.2808
     37 C         -24.4022    1.4787   26.7626 C.ar    1  UNL1        0.0336
     38 C         -22.7359    0.8585   28.2477 C.ar    1  UNL1        0.1885
     39 O         -28.0527   -1.0905   28.8826 O.2     1  UNL1       -0.2698
@<TRIPOS>BOND
     1     1    33    1
     2     2     7    1
     3     2     1    1
     4     3     2    2
     5     4     3    1
     6     4     5    2
     7     5     6    1
     8     6     7    2
     9     8     1    1
    10     8     9    1
    11     8    12    1
    12     9    10    1
    13    10    11    1
    14    12    11    1
    15    13    37    1
    16    14    13    1
    17    14    15    1
    18    15    18    2
    19    16    17    1
    20    16    15    1
    21    19    14    2
    22    20    21    2
    23    20    19    1
    24    21    26    1
    25    22    21    1
    26    23    22    1
    27    24    23    1
    28    24    25    1
    29    26    27    1
    30    26    13    1
    31    30    29    1
    32    30    38   ar
    33    33    29    1
    34    34    32    1
    35    34    38   ar
    36    35    37   ar
    37    35    34   ar
    38    36    33    1
    39    36    31    1
    40    37    30   ar
    41    38    28    1
    42    39    36    2
