@<TRIPOS>MOLECULE
No_4256-gen_results/8p0m/2024-11-27-11-27-31/
 35 38 0 0 0
SMALL
GASTEIGER

@<TRIPOS>ATOM
      1 C         -28.0162   -0.8135   28.8779 C.ar    1  UNL1        0.0369
      2 C         -27.0636   -0.1189   28.6079 C.ar    1  UNL1        0.0071
      3 C         -26.9716    0.7139   27.5060 C.ar    1  UNL1        0.0715
      4 C         -25.8205    1.4909   27.1160 C.ar    1  UNL1        0.0040
      5 C         -24.6562    1.4242   27.9180 C.ar    1  UNL1        0.0046
      6 C         -24.7114    0.5419   29.0507 C.ar    1  UNL1        0.0566
      7 C         -25.8042   -0.2058   29.3881 C.ar    1  UNL1        0.0046
      8 C         -28.0309   -1.5903   30.1490 C.ar    1  UNL1        0.1391
      9 C         -26.8104   -1.7964   30.8511 C.ar    1  UNL1        0.0369
     10 C         -25.6958   -1.0684   30.5035 C.ar    1  UNL1        0.0033
     11 C         -28.0906    0.8796   26.5377 C.3     1  UNL1        0.4186
     12 F         -27.7576    0.9788   25.3778 F       1  UNL1       -0.1659
     13 F         -28.7560    1.9293   26.9881 F       1  UNL1       -0.1659
     14 F         -28.9413   -0.1753   26.5959 F       1  UNL1       -0.1659
     15 C         -23.4281    0.5331   29.8431 C.2     1  UNL1        0.2842
     16 O         -22.8279    1.5074   30.0936 O.2     1  UNL1       -0.2667
     17 N         -22.9534   -0.7133   30.2092 N.am    1  UNL1       -0.0837
     18 O         -29.1260   -2.3430   30.4249 O.3     1  UNL1       -0.4684
     19 C         -29.0111   -3.6977   30.4674 C.3     1  UNL1        0.2588
     20 C         -28.3626   -4.3957   30.8873 C.3     1  UNL1        0.1436
     21 C         -30.3185   -4.2857   29.8403 C.2     1  UNL1        0.2721
     22 O         -31.0839   -3.6472   29.2573 O.2     1  UNL1       -0.2706
     23 N         -30.2499   -5.7134   29.7611 N.am    1  UNL1       -0.2398
     24 N         -28.3467   -5.7702   31.1403 N.3     1  UNL1       -0.1926
     25 C         -31.3445   -6.2815   29.2676 C.ar    1  UNL1        0.0552
     26 C         -29.3848   -6.3432   30.6011 C.3     1  UNL1        0.1897
     27 C         -31.6165   -6.1333   27.9352 C.ar    1  UNL1        0.0149
     28 C         -32.1951   -7.0095   27.1142 C.ar    1  UNL1        0.0013
     29 C         -32.6999   -8.1641   27.6957 C.ar    1  UNL1       -0.0002
     30 C         -32.4539   -8.3794   29.0817 C.ar    1  UNL1        0.0013
     31 C         -31.7178   -7.5317   29.8316 C.ar    1  UNL1        0.0149
     32 C         -33.4807   -9.0979   26.9035 C.2     1  UNL1       -0.0046
     33 C         -33.0392  -10.0519   26.3503 C.2     1  UNL1       -0.0261
     34 C         -31.6126  -10.3686   26.4975 C.3     1  UNL1        0.0260
     35 C         -30.9320  -10.1129   27.4178 C.3     1  UNL1        0.0050
@<TRIPOS>BOND
     1     3    11    1
     2    11    12    1
     3    11    13    1
     4    11    14    1
     5     6    15    1
     6    15    16    2
     7    15    17   am
     8     8    18    1
     9    18    19    1
    10    19    21    1
    11    21    22    2
    12    21    23   am
    13    20    24    1
    14    23    25    1
    15    23    26    1
    16    29    32    1
    17    32    33    2
    18    33    34    1
    19    34    35    1
    20    19    20    1
    21    24    26    1
    22    25    27   ar
    23    27    28   ar
    24    28    29   ar
    25    29    30   ar
    26    30    31   ar
    27    31    25   ar
    28     2     3   ar
    29     3     4   ar
    30     4     5   ar
    31     5     6   ar
    32     6     7   ar
    33     1     2   ar
    34     2     7   ar
    35     7    10   ar
    36    10     9   ar
    37     9     8   ar
    38     8     1   ar
