@<TRIPOS>MOLECULE
No_4258-gen_results/8p0m/2024-11-27-11-27-31/
 14 15 0 0 0
SMALL
GASTEIGER

@<TRIPOS>ATOM
      1 O         -28.1229   -1.3353   28.4874 O.2     1  UNL1       -0.2733
      2 C         -27.4806   -0.4044   28.7094 C.2     1  UNL1        0.2412
      3 C         -27.1904    0.2460   29.5268 C.3     1  UNL1        0.0826
      4 N         -26.6021   -0.1576   27.5515 N.am    1  UNL1       -0.2054
      5 C         -25.6421    0.9031   27.5822 C.3     1  UNL1        0.1152
      6 C         -26.2526    1.3734   29.7933 C.3     1  UNL1        0.0113
      7 C         -25.4742    1.6549   28.6932 C.3     1  UNL1        0.0239
      8 C         -28.0115    0.0221   30.9261 C.3     1  UNL1        0.0355
      9 C         -29.2561    0.4734   30.8467 C.ar    1  UNL1       -0.0217
     10 C         -29.6099    1.5104   30.5215 C.ar    1  UNL1       -0.0043
     11 C         -31.0515    1.9634   30.5406 C.ar    1  UNL1       -0.0003
     12 C         -31.9614    1.0076   30.9706 C.ar    1  UNL1       -0.0000
     13 C         -31.5599   -0.2411   31.3124 C.ar    1  UNL1       -0.0003
     14 C         -30.2361   -0.5999   31.3501 C.ar    1  UNL1       -0.0043
@<TRIPOS>BOND
     1     1     2    2
     2     2     3    1
     3     2     4   am
     4     3     6    1
     5     5     7    1
     6     3     8    1
     7     8     9    1
     8     6     7    1
     9     5     4    1
    10     9    10   ar
    11    10    11   ar
    12    11    12   ar
    13    12    13   ar
    14    13    14   ar
    15    14     9   ar
