@<TRIPOS>MOLECULE
outputs/IAG933/test6/raw/output_4259_IAG933_linker_design_.xyz
 42 46 0 0 0
SMALL
GASTEIGER

@<TRIPOS>ATOM
      1 C         -24.8550   -1.0120   30.1430 C.3     1  UNL1        0.1124
      2 C         -24.9730   -2.5050   29.7880 C.2     1  UNL1       -0.0030
      3 C         -23.9060   -3.1730   29.1460 C.2     1  UNL1       -0.0026
      4 C         -23.9890   -4.5490   28.8530 C.2     1  UNL1       -0.0003
      5 C         -25.1370   -5.2800   29.2050 C.2     1  UNL1       -0.0000
      6 C         -26.2320   -4.6110   29.7840 C.2     1  UNL1       -0.0003
      7 C         -26.1550   -3.2320   30.0650 C.2     1  UNL1       -0.0026
      8 C         -25.3870   -0.6790   31.5710 C.3     1  UNL1        0.0951
      9 C         -25.1890    0.7730   32.0280 C.3     1  UNL1        0.0209
     10 C         -25.3360    0.6840   33.5440 C.3     1  UNL1        0.0203
     11 C         -24.8290   -0.7150   33.9050 C.3     1  UNL1        0.0888
     12 N         -24.7580   -1.4810   32.6460 N.3     1  UNL1       -0.2174
     13 C         -25.6880    1.6140   26.4610 C.2     1  UNL1        0.0415
     14 C         -26.2500    2.9200   26.3950 C.2     1  UNL1        0.0767
     15 C         -25.6420    4.0930   27.1230 C.2     1  UNL1        0.2664
     16 N         -25.6140    5.2520   26.4490 N.am    1  UNL1       -0.1997
     17 C         -25.0260    6.4790   26.9630 C.3     1  UNL1        0.1388
     18 O         -25.1430    3.9660   28.2430 O.2     1  UNL1       -0.2683
     19 C         -27.4380    3.0910   25.6450 C.2     1  UNL1        0.1067
     20 N         -28.0750    2.0890   25.0030 N.2     1  UNL1       -0.2081
     21 C         -27.5430    0.8490   25.0790 C.2     1  UNL1        0.2533
     22 O         -28.1930   -0.2080   24.4770 O.2     1  UNL1       -0.4558
     23 C         -29.4600    0.0050   23.8660 C.3     1  UNL1        0.2426
     24 C         -30.0650   -1.3770   23.5730 C.3     1  UNL1        0.2292
     25 O         -30.7290   -1.8780   24.7210 O.3     1  UNL1       -0.2162
     26 C         -26.3540    0.5760   25.7770 C.2     1  UNL1        0.1932
     27 F         -25.8600   -0.6810   25.7950 F       1  UNL1       -0.1992
     28 C         -28.6715    2.5527   30.3357 C.3     1  UNL1        0.0189
     29 F         -23.8329    1.1241   24.6208 F       1  UNL1       -0.2018
     30 C         -28.3633    0.0167   29.7818 C.3     1  UNL1        0.0206
     31 C         -28.2720    1.4463   29.2740 C.3     1  UNL1        0.0747
     32 C         -21.7419    1.5233   27.4527 C.2     1  UNL1        0.0332
     33 C         -22.1996    1.7781   26.1634 C.2     1  UNL1        0.1675
     34 C         -23.4865    1.3895   25.8920 C.2     1  UNL1        0.1686
     35 C         -22.6067    1.0489   28.4400 C.2     1  UNL1        0.0170
     36 N         -26.7682    1.6915   29.1353 N.3     1  UNL1       -0.2015
     37 N         -24.9403    0.0814   29.1377 N.pl3   1  UNL1       -0.2917
     38 F         -21.4376    2.3720   25.2014 F       1  UNL1       -0.2018
     39 C         -24.3953    1.2374   26.9382 C.2     1  UNL1        0.0456
     40 C         -26.3109    0.4136   28.8678 C.3     1  UNL1        0.1477
     41 C         -27.3023   -0.6125   28.8781 C.3     1  UNL1        0.0395
     42 C         -23.9923    0.8043   28.1996 C.2     1  UNL1        0.0513
@<TRIPOS>BOND
     1     1    37    1
     2     2     7    1
     3     2     1    1
     4     3     2    2
     5     4     3    1
     6     4     5    2
     7     5     6    1
     8     6     7    2
     9     8     1    1
    10     8     9    1
    11     8    12    1
    12     9    10    1
    13    10    11    1
    14    12    11    1
    15    13    39    1
    16    14    13    1
    17    14    15    1
    18    15    18    2
    19    16    17    1
    20    16    15    1
    21    19    14    2
    22    20    21    2
    23    20    19    1
    24    21    26    1
    25    22    21    1
    26    23    22    1
    27    24    23    1
    28    24    25    1
    29    26    27    1
    30    26    13    2
    31    29    34    1
    32    31    30    1
    33    31    28    1
    34    32    35    1
    35    33    32    2
    36    34    33    1
    37    34    39    2
    38    36    31    1
    39    38    33    1
    40    39    42    1
    41    40    41    1
    42    40    36    1
    43    40    37    1
    44    41    30    1
    45    42    35    2
    46    42    37    1
