@<TRIPOS>MOLECULE
outputs/IAG933/test6/raw/output_426_IAG933_linker_design_.xyz
 41 45 0 0 0
SMALL
GASTEIGER

@<TRIPOS>ATOM
      1 C         -24.8550   -1.0120   30.1430 C.3     1  UNL1        0.0615
      2 C         -24.9730   -2.5050   29.7880 C.2     1  UNL1       -0.0194
      3 C         -23.9060   -3.1730   29.1460 C.2     1  UNL1       -0.0042
      4 C         -23.9890   -4.5490   28.8530 C.2     1  UNL1       -0.0003
      5 C         -25.1370   -5.2800   29.2050 C.2     1  UNL1       -0.0000
      6 C         -26.2320   -4.6110   29.7840 C.2     1  UNL1       -0.0003
      7 C         -26.1550   -3.2320   30.0650 C.2     1  UNL1       -0.0042
      8 C         -25.3870   -0.6790   31.5710 C.3     1  UNL1        0.0786
      9 C         -25.1890    0.7730   32.0280 C.3     1  UNL1        0.0193
     10 C         -25.3360    0.6840   33.5440 C.3     1  UNL1        0.0202
     11 C         -24.8290   -0.7150   33.9050 C.3     1  UNL1        0.0887
     12 N         -24.7580   -1.4810   32.6460 N.3     1  UNL1       -0.2191
     13 C         -25.6880    1.6140   26.4610 C.2     1  UNL1        0.0176
     14 C         -26.2500    2.9200   26.3950 C.2     1  UNL1        0.0726
     15 C         -25.6420    4.0930   27.1230 C.2     1  UNL1        0.2661
     16 N         -25.6140    5.2520   26.4490 N.am    1  UNL1       -0.1997
     17 C         -25.0260    6.4790   26.9630 C.3     1  UNL1        0.1388
     18 O         -25.1430    3.9660   28.2430 O.2     1  UNL1       -0.2683
     19 C         -27.4380    3.0910   25.6450 C.2     1  UNL1        0.1064
     20 N         -28.0750    2.0890   25.0030 N.2     1  UNL1       -0.2081
     21 C         -27.5430    0.8490   25.0790 C.2     1  UNL1        0.2530
     22 O         -28.1930   -0.2080   24.4770 O.2     1  UNL1       -0.4558
     23 C         -29.4600    0.0050   23.8660 C.3     1  UNL1        0.2426
     24 C         -30.0650   -1.3770   23.5730 C.3     1  UNL1        0.2292
     25 O         -30.7290   -1.8780   24.7210 O.3     1  UNL1       -0.2162
     26 C         -26.3540    0.5760   25.7770 C.2     1  UNL1        0.1892
     27 F         -25.8600   -0.6810   25.7950 F       1  UNL1       -0.1996
     28 O         -21.5594    2.3249   25.0629 O.co2   1  UNL1       -0.2456
     29 C         -22.3329    0.3350   28.7977 C.3     1  UNL1        0.1087
     30 O         -23.5250    3.4441   25.2902 O.co2   1  UNL1       -0.2456
     31 N         -24.7462    2.4808   30.1191 N.am    1  UNL1       -0.0866
     32 C         -22.6994    2.5337   25.6114 C.2     1  UNL1        0.3674
     33 C         -24.3795    1.1794   27.0415 C.3     1  UNL1        0.0548
     34 N         -23.0444   -0.6501   28.3528 N.3     1  UNL1       -0.2634
     35 C         -24.2796   -0.0963   27.8624 C.3     1  UNL1        0.0849
     36 C         -24.5915    0.0658   29.2249 C.3     1  UNL1        0.1367
     37 F         -20.8419    1.0549   27.3910 F       1  UNL1       -0.2352
     38 O         -26.4153    1.5458   29.1260 O.2     1  UNL1       -0.2702
     39 C         -25.2952    1.4115   29.5123 C.2     1  UNL1        0.2751
     40 C         -22.0655    1.1494   27.6554 C.3     1  UNL1        0.1878
     41 C         -23.1181    1.5867   26.8531 C.3     1  UNL1        0.1426
@<TRIPOS>BOND
     1     1     2    1
     2     2     7    1
     3     3     2    2
     4     4     3    1
     5     4     5    2
     6     5     6    1
     7     6     7    2
     8     8     1    1
     9     8     9    1
    10     8    12    1
    11     9    10    1
    12    10    11    1
    13    12    11    1
    14    14    13    1
    15    14    15    1
    16    15    18    2
    17    16    17    1
    18    16    15    1
    19    19    14    2
    20    20    21    2
    21    20    19    1
    22    21    26    1
    23    22    21    1
    24    23    22    1
    25    24    23    1
    26    24    25    1
    27    26    27    1
    28    26    13    2
    29    28    32   ar
    30    30    32   ar
    31    32    41    1
    32    33    13    1
    33    33    35    1
    34    34    29    1
    35    34    36    1
    36    35    34    1
    37    35    36    1
    38    36    39    1
    39    36     1    1
    40    37    40    1
    41    38    39    2
    42    39    31    1
    43    40    29    1
    44    41    33    1
    45    41    40    1
