@<TRIPOS>MOLECULE
outputs/IAG933/test6/raw/output_4261_IAG933_linker_design_.xyz
 40 43 0 0 0
SMALL
GASTEIGER

@<TRIPOS>ATOM
      1 C         -24.8550   -1.0120   30.1430 C.3     1  UNL1        0.1337
      2 C         -24.9730   -2.5050   29.7880 C.2     1  UNL1       -0.0012
      3 C         -23.9060   -3.1730   29.1460 C.2     1  UNL1       -0.0026
      4 C         -23.9890   -4.5490   28.8530 C.2     1  UNL1       -0.0003
      5 C         -25.1370   -5.2800   29.2050 C.2     1  UNL1       -0.0000
      6 C         -26.2320   -4.6110   29.7840 C.2     1  UNL1       -0.0003
      7 C         -26.1550   -3.2320   30.0650 C.2     1  UNL1       -0.0026
      8 C         -25.3870   -0.6790   31.5710 C.3     1  UNL1        0.0969
      9 C         -25.1890    0.7730   32.0280 C.3     1  UNL1        0.0210
     10 C         -25.3360    0.6840   33.5440 C.3     1  UNL1        0.0203
     11 C         -24.8290   -0.7150   33.9050 C.3     1  UNL1        0.0888
     12 N         -24.7580   -1.4810   32.6460 N.3     1  UNL1       -0.2174
     13 C         -25.6880    1.6140   26.4610 C.3     1  UNL1        0.0972
     14 C         -26.2500    2.9200   26.3950 C.2     1  UNL1        0.0589
     15 C         -25.6420    4.0930   27.1230 C.2     1  UNL1        0.2627
     16 N         -25.6140    5.2520   26.4490 N.am    1  UNL1       -0.2000
     17 C         -25.0260    6.4790   26.9630 C.3     1  UNL1        0.1388
     18 O         -25.1430    3.9660   28.2430 O.2     1  UNL1       -0.2686
     19 C         -27.4380    3.0910   25.6450 C.2     1  UNL1        0.1025
     20 N         -28.0750    2.0890   25.0030 N.2     1  UNL1       -0.2118
     21 C         -27.5430    0.8490   25.0790 C.2     1  UNL1        0.2344
     22 O         -28.1930   -0.2080   24.4770 O.2     1  UNL1       -0.4585
     23 C         -29.4600    0.0050   23.8660 C.3     1  UNL1        0.2423
     24 C         -30.0650   -1.3770   23.5730 C.3     1  UNL1        0.2292
     25 O         -30.7290   -1.8780   24.7210 O.3     1  UNL1       -0.2162
     26 C         -26.3540    0.5760   25.7770 C.3     1  UNL1        0.2440
     27 F         -25.8600   -0.6810   25.7950 F       1  UNL1       -0.2265
     28 C         -25.2060   -0.0992   28.3305 C.2     1  UNL1        0.2638
     29 F         -23.3476    1.7142   24.7105 F       1  UNL1       -0.1590
     30 O         -21.9134    1.9824   26.4662 O.2     1  UNL1       -0.4096
     31 C         -24.0503    0.6644   27.7544 C.2     1  UNL1        0.0752
     32 O         -26.2921   -0.4092   28.0632 O.2     1  UNL1       -0.2686
     33 N         -20.5334    1.3639   28.2120 N.2     1  UNL1       -0.1087
     34 C         -22.7875    0.5950   28.2932 C.3     1  UNL1        0.2640
     35 F         -22.4830   -0.1120   29.3902 F       1  UNL1       -0.2221
     36 C         -23.3082    2.1751   26.0449 C.3     1  UNL1        0.4273
     37 C         -21.6938    1.3298   27.6851 C.2     1  UNL1        0.2612
     38 F         -23.4463    3.5101   25.8999 F       1  UNL1       -0.1590
     39 N         -24.8172   -0.1404   29.3760 N.am    1  UNL1       -0.1977
     40 C         -24.2713    1.4685   26.7829 C.2     1  UNL1        0.0687
@<TRIPOS>BOND
     1     1    39    1
     2     2     7    1
     3     2     1    1
     4     3     2    2
     5     4     3    1
     6     4     5    2
     7     5     6    1
     8     6     7    2
     9     8     1    1
    10     8     9    1
    11     8    12    1
    12     9    10    1
    13    10    11    1
    14    12    11    1
    15    13    40    1
    16    14    13    1
    17    14    15    1
    18    15    18    2
    19    16    17    1
    20    16    15    1
    21    19    14    2
    22    20    21    2
    23    20    19    1
    24    21    26    1
    25    22    21    1
    26    23    22    1
    27    24    23    1
    28    24    25    1
    29    26    27    1
    30    26    13    1
    31    28    39    1
    32    29    36    1
    33    30    37    1
    34    31    34    1
    35    31    28    1
    36    32    28    2
    37    34    35    1
    38    36    30    1
    39    36    40    1
    40    37    33    2
    41    37    34    1
    42    38    36    1
    43    40    31    2
