@<TRIPOS>MOLECULE
outputs/IAG933/test6/raw/output_4262_IAG933_linker_design_.xyz
 43 47 0 0 0
SMALL
GASTEIGER

@<TRIPOS>ATOM
      1 C         -24.8550   -1.0120   30.1430 C.3     1  UNL1        0.0438
      2 C         -24.9730   -2.5050   29.7880 C.2     1  UNL1       -0.0208
      3 C         -23.9060   -3.1730   29.1460 C.2     1  UNL1       -0.0042
      4 C         -23.9890   -4.5490   28.8530 C.2     1  UNL1       -0.0003
      5 C         -25.1370   -5.2800   29.2050 C.2     1  UNL1       -0.0000
      6 C         -26.2320   -4.6110   29.7840 C.2     1  UNL1       -0.0003
      7 C         -26.1550   -3.2320   30.0650 C.2     1  UNL1       -0.0042
      8 C         -25.3870   -0.6790   31.5710 C.3     1  UNL1        0.0791
      9 C         -25.1890    0.7730   32.0280 C.3     1  UNL1        0.0420
     10 C         -25.3360    0.6840   33.5440 C.3     1  UNL1        0.0223
     11 C         -24.8290   -0.7150   33.9050 C.3     1  UNL1        0.0888
     12 N         -24.7580   -1.4810   32.6460 N.3     1  UNL1       -0.2191
     13 C         -25.6880    1.6140   26.4610 C.3     1  UNL1        0.1450
     14 C         -26.2500    2.9200   26.3950 C.2     1  UNL1        0.0710
     15 C         -25.6420    4.0930   27.1230 C.2     1  UNL1        0.2638
     16 N         -25.6140    5.2520   26.4490 N.am    1  UNL1       -0.2000
     17 C         -25.0260    6.4790   26.9630 C.3     1  UNL1        0.1388
     18 O         -25.1430    3.9660   28.2430 O.2     1  UNL1       -0.2686
     19 C         -27.4380    3.0910   25.6450 C.2     1  UNL1        0.1035
     20 N         -28.0750    2.0890   25.0030 N.2     1  UNL1       -0.2118
     21 C         -27.5430    0.8490   25.0790 C.2     1  UNL1        0.2356
     22 O         -28.1930   -0.2080   24.4770 O.2     1  UNL1       -0.4585
     23 C         -29.4600    0.0050   23.8660 C.3     1  UNL1        0.2423
     24 C         -30.0650   -1.3770   23.5730 C.3     1  UNL1        0.2292
     25 O         -30.7290   -1.8780   24.7210 O.3     1  UNL1       -0.2162
     26 C         -26.3540    0.5760   25.7770 C.3     1  UNL1        0.2560
     27 F         -25.8600   -0.6810   25.7950 F       1  UNL1       -0.2253
     28 N         -24.4566    1.2790   26.6251 N.3     1  UNL1       -0.1822
     29 C         -26.9555    3.2164   32.0746 C.2     1  UNL1       -0.0026
     30 C         -24.7983    4.0957   32.7016 C.2     1  UNL1       -0.0026
     31 C         -25.5535    3.1511   32.0020 C.2     1  UNL1       -0.0025
     32 O         -22.4078    0.1135   29.8858 O.2     1  UNL1       -0.2731
     33 C         -22.6629    1.4712   27.9383 C.3     1  UNL1        0.1582
     34 C         -27.5764    4.3188   32.6662 C.2     1  UNL1       -0.0003
     35 C         -21.3279    1.6012   27.3691 C.3     1  UNL1        0.1953
     36 C         -24.7796    2.0398   31.2122 C.3     1  UNL1        0.1188
     37 C         -25.4134    5.1908   33.3676 C.2     1  UNL1       -0.0003
     38 N         -24.0282    1.8774   30.0591 N.am    1  UNL1       -0.2025
     39 O         -22.5940    2.1866   25.7774 O.3     1  UNL1       -0.2043
     40 C         -23.4247    1.6947   26.8349 C.3     1  UNL1        0.2371
     41 C         -23.1349    1.1240   29.3384 C.2     1  UNL1        0.2477
     42 O         -21.4486    1.9656   26.0334 O.3     1  UNL1       -0.2185
     43 C         -26.8134    5.3276   33.3175 C.2     1  UNL1       -0.0000
@<TRIPOS>BOND
     1     2     7    1
     2     2     1    1
     3     3     2    2
     4     4     3    1
     5     4     5    2
     6     5     6    1
     7     6     7    2
     8     8     1    1
     9     8     9    1
    10     8    12    1
    11     9    36    1
    12     9    10    1
    13    10    11    1
    14    12    11    1
    15    13    28    1
    16    14    13    1
    17    14    15    1
    18    15    18    2
    19    16    17    1
    20    16    15    1
    21    19    14    2
    22    20    21    2
    23    20    19    1
    24    21    26    1
    25    22    21    1
    26    23    22    1
    27    24    23    1
    28    24    25    1
    29    26    27    1
    30    26    13    1
    31    29    34    1
    32    30    37    2
    33    31    29    2
    34    31    30    1
    35    33    41    1
    36    34    43    2
    37    35    33    1
    38    36    38    1
    39    36    31    1
    40    39    42    1
    41    39    40    1
    42    40    28    1
    43    40    33    1
    44    41    32    2
    45    41    38    1
    46    42    35    1
    47    43    37    1
