@<TRIPOS>MOLECULE
outputs/IAG933/test6/raw/output_4263_IAG933_linker_design_.xyz
 43 48 0 0 0
SMALL
GASTEIGER

@<TRIPOS>ATOM
      1 C         -24.8550   -1.0120   30.1430 C.3     1  UNL1        0.2029
      2 C         -24.9730   -2.5050   29.7880 C.2     1  UNL1        0.0217
      3 C         -23.9060   -3.1730   29.1460 C.2     1  UNL1       -0.0004
      4 C         -23.9890   -4.5490   28.8530 C.2     1  UNL1       -0.0002
      5 C         -25.1370   -5.2800   29.2050 C.2     1  UNL1       -0.0000
      6 C         -26.2320   -4.6110   29.7840 C.2     1  UNL1       -0.0002
      7 C         -26.1550   -3.2320   30.0650 C.2     1  UNL1       -0.0004
      8 C         -25.3870   -0.6790   31.5710 C.3     1  UNL1        0.1201
      9 C         -25.1890    0.7730   32.0280 C.3     1  UNL1        0.0233
     10 C         -25.3360    0.6840   33.5440 C.3     1  UNL1        0.0204
     11 C         -24.8290   -0.7150   33.9050 C.3     1  UNL1        0.0889
     12 N         -24.7580   -1.4810   32.6460 N.3     1  UNL1       -0.2150
     13 C         -25.6880    1.6140   26.4610 C.2     1  UNL1        0.0450
     14 C         -26.2500    2.9200   26.3950 C.2     1  UNL1        0.0768
     15 C         -25.6420    4.0930   27.1230 C.2     1  UNL1        0.2664
     16 N         -25.6140    5.2520   26.4490 N.am    1  UNL1       -0.1997
     17 C         -25.0260    6.4790   26.9630 C.3     1  UNL1        0.1388
     18 O         -25.1430    3.9660   28.2430 O.2     1  UNL1       -0.2683
     19 C         -27.4380    3.0910   25.6450 C.2     1  UNL1        0.1067
     20 N         -28.0750    2.0890   25.0030 N.2     1  UNL1       -0.2081
     21 C         -27.5430    0.8490   25.0790 C.2     1  UNL1        0.2533
     22 O         -28.1930   -0.2080   24.4770 O.2     1  UNL1       -0.4558
     23 C         -29.4600    0.0050   23.8660 C.3     1  UNL1        0.2426
     24 C         -30.0650   -1.3770   23.5730 C.3     1  UNL1        0.2292
     25 O         -30.7290   -1.8780   24.7210 O.3     1  UNL1       -0.2162
     26 C         -26.3540    0.5760   25.7770 C.2     1  UNL1        0.1933
     27 F         -25.8600   -0.6810   25.7950 F       1  UNL1       -0.1992
     28 N         -25.4976   -0.0966   29.1028 N.pl3   1  UNL1       -0.1732
     29 C         -28.3649    1.6276   30.7979 C.2     1  UNL1        0.0035
     30 C         -24.4900    1.3605   27.1319 C.2     1  UNL1        0.0816
     31 C         -27.8251   -0.7352   29.3760 C.2     1  UNL1        0.0403
     32 C         -22.0969    1.5820   27.2778 C.2     1  UNL1        0.1731
     33 F         -20.7271    2.0687   27.1384 F       1  UNL1       -0.2041
     34 C         -28.9244   -0.6674   30.2906 C.2     1  UNL1        0.0035
     35 C         -27.2436    1.5178   29.9469 C.2     1  UNL1        0.0403
     36 C         -22.2996    0.6629   28.3288 C.3     1  UNL1        0.3277
     37 C         -23.2827    1.8627   26.6118 C.2     1  UNL1        0.0370
     38 C         -29.1806    0.5025   30.9937 C.2     1  UNL1        0.0002
     39 C         -26.8426    0.2722   29.3628 C.2     1  UNL1        0.1387
     40 C         -21.9588    0.0844   29.0234 C.2     1  UNL1        0.4100
     41 N         -23.1978    0.1830   28.8096 N.pl3   1  UNL1       -0.1210
     42 C         -24.5345    0.5339   28.3683 C.2     1  UNL1        0.2831
     43 N         -21.3383   -0.6949   29.7735 N.2     1  UNL1        0.1934
@<TRIPOS>BOND
     1     1    28    1
     2     2     7    1
     3     2     1    1
     4     3     2    2
     5     4     3    1
     6     4     5    2
     7     5     6    1
     8     6     7    2
     9     8     1    1
    10     8     9    1
    11     8    12    1
    12     9    10    1
    13    10    11    1
    14    12    11    1
    15    13    30    1
    16    14    13    1
    17    14    15    1
    18    15    18    2
    19    16    17    1
    20    16    15    1
    21    19    14    2
    22    20    21    2
    23    20    19    1
    24    21    26    1
    25    22    21    1
    26    23    22    1
    27    24    23    1
    28    24    25    1
    29    26    27    1
    30    26    13    2
    31    28    39    1
    32    29    38    1
    33    30    42    2
    34    31    34    1
    35    33    32    1
    36    34    38    2
    37    35    29    2
    38    36    32    1
    39    36    41    1
    40    36    40    1
    41    37    30    1
    42    37    32    2
    43    39    31    2
    44    39    35    1
    45    40    43    2
    46    41    40    1
    47    42    41    1
    48    42    28    1
