@<TRIPOS>MOLECULE
outputs/IAG933/test6/raw/output_4264_IAG933_linker_design_.xyz
 51 55 0 0 0
SMALL
GASTEIGER

@<TRIPOS>ATOM
      1 C         -24.8550   -1.0120   30.1430 C.3     1  UNL1        0.1114
      2 C         -24.9730   -2.5050   29.7880 C.2     1  UNL1       -0.0030
      3 C         -23.9060   -3.1730   29.1460 C.2     1  UNL1       -0.0026
      4 C         -23.9890   -4.5490   28.8530 C.2     1  UNL1       -0.0003
      5 C         -25.1370   -5.2800   29.2050 C.2     1  UNL1       -0.0000
      6 C         -26.2320   -4.6110   29.7840 C.2     1  UNL1       -0.0003
      7 C         -26.1550   -3.2320   30.0650 C.2     1  UNL1       -0.0026
      8 C         -25.3870   -0.6790   31.5710 C.3     1  UNL1        0.0950
      9 C         -25.1890    0.7730   32.0280 C.3     1  UNL1        0.0209
     10 C         -25.3360    0.6840   33.5440 C.3     1  UNL1        0.0203
     11 C         -24.8290   -0.7150   33.9050 C.3     1  UNL1        0.0888
     12 N         -24.7580   -1.4810   32.6460 N.3     1  UNL1       -0.2174
     13 C         -25.6880    1.6140   26.4610 C.2     1  UNL1        0.0739
     14 C         -26.2500    2.9200   26.3950 C.2     1  UNL1        0.0795
     15 C         -25.6420    4.0930   27.1230 C.2     1  UNL1        0.2665
     16 N         -25.6140    5.2520   26.4490 N.am    1  UNL1       -0.1997
     17 C         -25.0260    6.4790   26.9630 C.3     1  UNL1        0.1388
     18 O         -25.1430    3.9660   28.2430 O.2     1  UNL1       -0.2683
     19 C         -27.4380    3.0910   25.6450 C.2     1  UNL1        0.1068
     20 N         -28.0750    2.0890   25.0030 N.2     1  UNL1       -0.2081
     21 C         -27.5430    0.8490   25.0790 C.2     1  UNL1        0.2534
     22 O         -28.1930   -0.2080   24.4770 O.2     1  UNL1       -0.4558
     23 C         -29.4600    0.0050   23.8660 C.3     1  UNL1        0.2426
     24 C         -30.0650   -1.3770   23.5730 C.3     1  UNL1        0.2292
     25 O         -30.7290   -1.8780   24.7210 O.3     1  UNL1       -0.2162
     26 C         -26.3540    0.5760   25.7770 C.2     1  UNL1        0.1960
     27 F         -25.8600   -0.6810   25.7950 F       1  UNL1       -0.1991
     28 C         -30.7828    3.4941   36.5733 C.2     1  UNL1        0.4734
     29 N         -30.0567    2.8844   35.6127 N.am    1  UNL1        0.0534
     30 N         -24.8786   -0.2505   28.9212 N.pl3   1  UNL1       -0.3011
     31 O         -23.1127    1.9351   26.4707 O.2     1  UNL1       -0.4355
     32 C         -26.9482    4.6766   30.5897 C.3     1  UNL1        0.0556
     33 O         -28.2682    3.2483   31.8506 O.2     1  UNL1       -0.4385
     34 C         -23.9940    0.5505   28.0530 C.2     1  UNL1        0.0877
     35 C         -26.3299   -0.2422   28.5450 C.3     1  UNL1        0.0990
     36 C         -28.5304    4.9402   35.6418 C.2     1  UNL1        0.0941
     37 C         -29.0311    3.7067   35.0943 C.2     1  UNL1        0.3742
     38 C         -22.6102    0.6271   28.3273 C.2     1  UNL1        0.0742
     39 C         -24.2954    1.3963   26.9628 C.2     1  UNL1        0.1628
     40 N         -20.7369    1.9768   27.6231 N.pl3   1  UNL1       -0.0877
     41 C         -27.3292    5.3006   33.4775 C.2     1  UNL1        0.0872
     42 C         -26.6213    1.0184   29.4070 C.3     1  UNL1        0.0897
     43 O         -28.8810    1.3897   29.5939 O.2     1  UNL1       -0.2922
     44 C         -27.5588    5.6952   34.8784 C.2     1  UNL1        0.0150
     45 N         -28.5638    3.3042   33.9761 N.2     1  UNL1        0.0022
     46 N         -32.0371    3.8599   36.2722 N.am    1  UNL1       -0.0416
     47 C         -27.8568    1.8738   29.8887 C.2     1  UNL1        0.1921
     48 C         -27.9881    3.9950   32.9954 C.2     1  UNL1        0.3401
     49 C         -27.5934    3.2849   30.6144 C.3     1  UNL1        0.2263
     50 C         -21.9781    1.6114   27.3961 C.2     1  UNL1        0.2360
     51 O         -30.2899    3.7269   37.6804 O.2     1  UNL1       -0.2159
@<TRIPOS>BOND
     1     1    30    1
     2     2     7    1
     3     2     1    1
     4     3     2    2
     5     4     3    1
     6     4     5    2
     7     5     6    1
     8     6     7    2
     9     8     1    1
    10     8     9    1
    11     8    12    1
    12     9    10    1
    13    10    11    1
    14    12    11    1
    15    13    39    1
    16    14    13    1
    17    14    15    1
    18    15    18    2
    19    16    17    1
    20    16    15    1
    21    19    14    2
    22    20    21    2
    23    20    19    1
    24    21    26    1
    25    22    21    1
    26    23    22    1
    27    24    23    1
    28    24    25    1
    29    26    27    1
    30    26    13    2
    31    28    51    2
    32    29    28    1
    33    31    39    1
    34    31    50    1
    35    33    48    1
    36    34    38    1
    37    34    30    1
    38    35    30    1
    39    35    42    1
    40    37    29    1
    41    37    36    2
    42    39    34    2
    43    41    44    2
    44    42    47    1
    45    43    47    2
    46    44    36    1
    47    45    37    1
    48    46    28    1
    49    47    49    1
    50    48    41    1
    51    48    45    2
    52    49    32    1
    53    49    33    1
    54    50    40    1
    55    50    38    2
