@<TRIPOS>MOLECULE
outputs/IAG933/test6/raw/output_4265_IAG933_linker_design_.xyz
 46 50 0 0 0
SMALL
GASTEIGER

@<TRIPOS>ATOM
      1 C         -24.8550   -1.0120   30.1430 C.3     1  UNL1        0.1237
      2 C         -24.9730   -2.5050   29.7880 C.2     1  UNL1       -0.0042
      3 C         -23.9060   -3.1730   29.1460 C.2     1  UNL1       -0.0029
      4 C         -23.9890   -4.5490   28.8530 C.2     1  UNL1       -0.0003
      5 C         -25.1370   -5.2800   29.2050 C.2     1  UNL1       -0.0000
      6 C         -26.2320   -4.6110   29.7840 C.2     1  UNL1       -0.0003
      7 C         -26.1550   -3.2320   30.0650 C.2     1  UNL1       -0.0029
      8 C         -25.3870   -0.6790   31.5710 C.3     1  UNL1        0.0939
      9 C         -25.1890    0.7730   32.0280 C.3     1  UNL1        0.0207
     10 C         -25.3360    0.6840   33.5440 C.3     1  UNL1        0.0203
     11 C         -24.8290   -0.7150   33.9050 C.3     1  UNL1        0.0888
     12 N         -24.7580   -1.4810   32.6460 N.3     1  UNL1       -0.2177
     13 C         -25.6880    1.6140   26.4610 C.3     1  UNL1        0.0754
     14 C         -26.2500    2.9200   26.3950 C.2     1  UNL1        0.0550
     15 C         -25.6420    4.0930   27.1230 C.2     1  UNL1        0.2624
     16 N         -25.6140    5.2520   26.4490 N.am    1  UNL1       -0.2000
     17 C         -25.0260    6.4790   26.9630 C.3     1  UNL1        0.1388
     18 O         -25.1430    3.9660   28.2430 O.2     1  UNL1       -0.2687
     19 C         -27.4380    3.0910   25.6450 C.2     1  UNL1        0.1021
     20 N         -28.0750    2.0890   25.0030 N.2     1  UNL1       -0.2119
     21 C         -27.5430    0.8490   25.0790 C.2     1  UNL1        0.2341
     22 O         -28.1930   -0.2080   24.4770 O.2     1  UNL1       -0.4585
     23 C         -29.4600    0.0050   23.8660 C.3     1  UNL1        0.2423
     24 C         -30.0650   -1.3770   23.5730 C.3     1  UNL1        0.2292
     25 O         -30.7290   -1.8780   24.7210 O.3     1  UNL1       -0.2162
     26 C         -26.3540    0.5760   25.7770 C.3     1  UNL1        0.2402
     27 F         -25.8600   -0.6810   25.7950 F       1  UNL1       -0.2269
     28 N         -27.3615   -0.6376   28.4913 N.3     1  UNL1       -0.2013
     29 C         -28.5663   -0.7942   29.0799 C.3     1  UNL1        0.0928
     30 O         -23.5850    0.3234   28.6552 O.3     1  UNL1       -0.2807
     31 C         -22.5567    1.6316   27.3805 C.3     1  UNL1        0.1445
     32 C         -21.1791    1.3674   27.6348 C.3     1  UNL1        0.0347
     33 C         -31.2382    2.7230   28.7660 C.3     1  UNL1        0.1448
     34 C         -30.2910    2.0244   27.7833 C.3     1  UNL1        0.0650
     35 C         -25.1570    1.1937   27.5599 C.3     1  UNL1        0.0725
     36 O         -29.9084   -0.3695   26.8857 O.3     1  UNL1       -0.2230
     37 C         -30.7331    1.7873   30.8575 C.3     1  UNL1        0.1423
     38 C         -22.8055    1.7705   25.0067 C.3     1  UNL1        0.1741
     39 C         -26.1117    0.1221   28.5574 C.3     1  UNL1        0.1593
     40 C         -30.6154    0.3080   30.3137 C.3     1  UNL1        0.0360
     41 C         -29.5637    0.1530   29.1690 C.3     1  UNL1        0.0505
     42 O         -30.5763    3.0061   30.0113 O.3     1  UNL1       -0.3537
     43 O         -22.8199    2.4852   26.3364 O.3     1  UNL1       -0.3510
     44 C         -23.8007    1.1083   28.0913 C.3     1  UNL1        0.1677
     45 N         -25.0973   -0.1236   29.1114 N.3     1  UNL1       -0.1468
     46 C         -30.3074    0.5183   27.9411 C.3     1  UNL1        0.1559
@<TRIPOS>BOND
     1     1     2    1
     2     2     7    1
     3     3     2    2
     4     4     3    1
     5     4     5    2
     6     5     6    1
     7     6     7    2
     8     8     1    1
     9     8     9    1
    10     8    12    1
    11     9    10    1
    12    10    11    1
    13    12    11    1
    14    13    14    1
    15    14    15    1
    16    15    18    2
    17    16    17    1
    18    16    15    1
    19    19    14    2
    20    20    21    2
    21    20    19    1
    22    21    26    1
    23    22    21    1
    24    23    22    1
    25    24    23    1
    26    24    25    1
    27    26    27    1
    28    26    13    1
    29    28    29    1
    30    30    45    1
    31    31    32    1
    32    33    42    1
    33    34    46    1
    34    34    33    1
    35    35    13    1
    36    35    44    1
    37    35    39    1
    38    38    43    1
    39    39    28    1
    40    39    45    1
    41    40    37    1
    42    41    29    1
    43    41    40    1
    44    42    37    1
    45    43    31    1
    46    44    31    1
    47    44    30    1
    48    45     1    1
    49    46    36    1
    50    46    41    1
