@<TRIPOS>MOLECULE
outputs/IAG933/test6/raw/output_4267_IAG933_linker_design_.xyz
 43 48 0 0 0
SMALL
GASTEIGER

@<TRIPOS>ATOM
      1 C         -24.8550   -1.0120   30.1430 C.3     1  UNL1        0.0721
      2 C         -24.9730   -2.5050   29.7880 C.2     1  UNL1       -0.0181
      3 C         -23.9060   -3.1730   29.1460 C.2     1  UNL1       -0.0041
      4 C         -23.9890   -4.5490   28.8530 C.2     1  UNL1       -0.0003
      5 C         -25.1370   -5.2800   29.2050 C.2     1  UNL1       -0.0000
      6 C         -26.2320   -4.6110   29.7840 C.2     1  UNL1       -0.0003
      7 C         -26.1550   -3.2320   30.0650 C.2     1  UNL1       -0.0041
      8 C         -25.3870   -0.6790   31.5710 C.3     1  UNL1        0.0798
      9 C         -25.1890    0.7730   32.0280 C.3     1  UNL1        0.0193
     10 C         -25.3360    0.6840   33.5440 C.3     1  UNL1        0.0202
     11 C         -24.8290   -0.7150   33.9050 C.3     1  UNL1        0.0887
     12 N         -24.7580   -1.4810   32.6460 N.3     1  UNL1       -0.2190
     13 C         -25.6880    1.6140   26.4610 C.2     1  UNL1        0.0444
     14 C         -26.2500    2.9200   26.3950 C.2     1  UNL1        0.0750
     15 C         -25.6420    4.0930   27.1230 C.2     1  UNL1        0.2662
     16 N         -25.6140    5.2520   26.4490 N.am    1  UNL1       -0.1997
     17 C         -25.0260    6.4790   26.9630 C.3     1  UNL1        0.1388
     18 O         -25.1430    3.9660   28.2430 O.2     1  UNL1       -0.2683
     19 C         -27.4380    3.0910   25.6450 C.2     1  UNL1        0.1065
     20 N         -28.0750    2.0890   25.0030 N.2     1  UNL1       -0.2081
     21 C         -27.5430    0.8490   25.0790 C.2     1  UNL1        0.2530
     22 O         -28.1930   -0.2080   24.4770 O.2     1  UNL1       -0.4558
     23 C         -29.4600    0.0050   23.8660 C.3     1  UNL1        0.2426
     24 C         -30.0650   -1.3770   23.5730 C.3     1  UNL1        0.2292
     25 O         -30.7290   -1.8780   24.7210 O.3     1  UNL1       -0.2162
     26 C         -26.3540    0.5760   25.7770 C.2     1  UNL1        0.1915
     27 F         -25.8600   -0.6810   25.7950 F       1  UNL1       -0.1995
     28 O         -28.8249   -1.0887   28.9604 O.3     1  UNL1       -0.3421
     29 S         -23.0960    1.5752   26.5197 S.3     1  UNL1       -0.0707
     30 C         -23.0107    0.4059   28.8097 C.2     1  UNL1        0.0879
     31 C         -24.5047    1.2002   27.2922 C.3     1  UNL1        0.1532
     32 C         -22.2570    1.0834   27.8207 C.2     1  UNL1        0.1308
     33 C         -27.6520   -0.7371   28.2803 C.3     1  UNL1        0.2210
     34 C         -31.3661   -1.2036   27.6111 C.3     1  UNL1        0.0297
     35 N         -24.4100    0.5532   28.3883 N.pl3   1  UNL1       -0.2820
     36 C         -25.4529   -0.0095   29.0816 C.3     1  UNL1        0.1423
     37 C         -29.3847    1.6806   29.3169 C.3     1  UNL1        0.0199
     38 C         -29.8079    1.0170   27.9713 C.3     1  UNL1        0.0287
     39 C         -30.0062   -0.5178   28.1566 C.3     1  UNL1        0.0946
     40 N         -20.8966    1.5219   27.9694 N.pl3   1  UNL1       -0.1199
     41 N         -26.8817    0.3687   28.9519 N.3     1  UNL1       -0.2325
     42 C         -31.2623   -0.6781   28.9915 C.3     1  UNL1        0.0297
     43 C         -27.9830    1.1554   29.7691 C.3     1  UNL1        0.0759
@<TRIPOS>BOND
     1     1    36    1
     2     2     7    1
     3     2     1    1
     4     3     2    2
     5     4     3    1
     6     4     5    2
     7     5     6    1
     8     6     7    2
     9     8     1    1
    10     8     9    1
    11     8    12    1
    12     9    10    1
    13    10    11    1
    14    12    11    1
    15    14    13    1
    16    14    15    1
    17    15    18    2
    18    16    17    1
    19    16    15    1
    20    19    14    2
    21    20    21    2
    22    20    19    1
    23    21    26    1
    24    22    21    1
    25    23    22    1
    26    24    23    1
    27    24    25    1
    28    26    27    1
    29    26    13    2
    30    29    31    1
    31    29    32    1
    32    31    13    1
    33    31    35    1
    34    32    40    1
    35    32    30    2
    36    33    41    1
    37    33    28    1
    38    34    39    1
    39    34    42    1
    40    35    30    1
    41    36    35    1
    42    37    43    1
    43    38    39    1
    44    38    37    1
    45    39    28    1
    46    39    42    1
    47    41    36    1
    48    41    43    1
