@<TRIPOS>MOLECULE
outputs/IAG933/test6/raw/output_4268_IAG933_linker_design_.xyz
 42 45 0 0 0
SMALL
GASTEIGER

@<TRIPOS>ATOM
      1 C         -24.8550   -1.0120   30.1430 C.3     1  UNL1        0.1990
      2 C         -24.9730   -2.5050   29.7880 C.2     1  UNL1        0.0213
      3 C         -23.9060   -3.1730   29.1460 C.2     1  UNL1       -0.0004
      4 C         -23.9890   -4.5490   28.8530 C.2     1  UNL1       -0.0002
      5 C         -25.1370   -5.2800   29.2050 C.2     1  UNL1       -0.0000
      6 C         -26.2320   -4.6110   29.7840 C.2     1  UNL1       -0.0002
      7 C         -26.1550   -3.2320   30.0650 C.2     1  UNL1       -0.0004
      8 C         -25.3870   -0.6790   31.5710 C.3     1  UNL1        0.1197
      9 C         -25.1890    0.7730   32.0280 C.3     1  UNL1        0.0233
     10 C         -25.3360    0.6840   33.5440 C.3     1  UNL1        0.0204
     11 C         -24.8290   -0.7150   33.9050 C.3     1  UNL1        0.0889
     12 N         -24.7580   -1.4810   32.6460 N.3     1  UNL1       -0.2150
     13 C         -25.6880    1.6140   26.4610 C.2     1  UNL1        0.0381
     14 C         -26.2500    2.9200   26.3950 C.2     1  UNL1        0.0764
     15 C         -25.6420    4.0930   27.1230 C.2     1  UNL1        0.2664
     16 N         -25.6140    5.2520   26.4490 N.am    1  UNL1       -0.1997
     17 C         -25.0260    6.4790   26.9630 C.3     1  UNL1        0.1388
     18 O         -25.1430    3.9660   28.2430 O.2     1  UNL1       -0.2683
     19 C         -27.4380    3.0910   25.6450 C.2     1  UNL1        0.1067
     20 N         -28.0750    2.0890   25.0030 N.2     1  UNL1       -0.2081
     21 C         -27.5430    0.8490   25.0790 C.2     1  UNL1        0.2533
     22 O         -28.1930   -0.2080   24.4770 O.2     1  UNL1       -0.4558
     23 C         -29.4600    0.0050   23.8660 C.3     1  UNL1        0.2426
     24 C         -30.0650   -1.3770   23.5730 C.3     1  UNL1        0.2292
     25 O         -30.7290   -1.8780   24.7210 O.3     1  UNL1       -0.2162
     26 C         -26.3540    0.5760   25.7770 C.2     1  UNL1        0.1929
     27 F         -25.8600   -0.6810   25.7950 F       1  UNL1       -0.1992
     28 C         -24.5401    1.3267   27.2562 C.2     1  UNL1        0.0309
     29 O         -27.2162    3.3029   29.5575 O.3     1  UNL1       -0.2150
     30 C         -22.3701    0.8428   27.9455 C.2     1  UNL1        0.2225
     31 C         -27.1380    1.9447   30.0066 C.3     1  UNL1        0.2132
     32 F         -20.9732    1.1251   28.0713 F       1  UNL1       -0.1966
     33 C         -28.5483    1.5777   30.4139 C.3     1  UNL1        0.0438
     34 C         -22.7307    2.1164   25.8720 C.3     1  UNL1        0.2220
     35 C         -26.6044    0.9384   28.9964 C.2     1  UNL1        0.2272
     36 C         -23.2073    1.4518   27.0418 C.2     1  UNL1        0.0481
     37 F         -21.4595    2.1164   25.6486 F       1  UNL1       -0.2290
     38 C         -25.1230    0.8179   28.5496 C.3     1  UNL1        0.2427
     39 N         -24.3074   -0.1111   29.1628 N.pl3   1  UNL1       -0.1788
     40 O         -27.3317    0.0024   28.6579 O.2     1  UNL1       -0.2888
     41 N         -22.1160   -0.9750   29.4685 N.pl3   1  UNL1        0.2122
     42 C         -22.9459   -0.0923   28.8883 C.2     1  UNL1        0.3922
@<TRIPOS>BOND
     1     1     2    1
     2     2     7    1
     3     3     2    2
     4     4     3    1
     5     4     5    2
     6     5     6    1
     7     6     7    2
     8     8     1    1
     9     8     9    1
    10     8    12    1
    11     9    10    1
    12    10    11    1
    13    12    11    1
    14    13    28    1
    15    14    13    1
    16    14    15    1
    17    15    18    2
    18    16    17    1
    19    16    15    1
    20    19    14    2
    21    20    21    2
    22    20    19    1
    23    21    26    1
    24    22    21    1
    25    23    22    1
    26    24    23    1
    27    24    25    1
    28    26    27    1
    29    26    13    2
    30    28    38    1
    31    29    31    1
    32    30    32    1
    33    30    42    2
    34    31    33    1
    35    34    36    1
    36    35    31    1
    37    36    28    2
    38    36    30    1
    39    37    34    1
    40    38    35    1
    41    38    39    1
    42    39     1    1
    43    40    35    2
    44    42    39    1
    45    42    41    1
