@<TRIPOS>MOLECULE
No_4269-gen_results/8p0m/2024-11-27-11-27-31/
 25 25 0 0 0
SMALL
GASTEIGER

@<TRIPOS>ATOM
      1 C         -28.0162   -0.8135   28.8779 C.3     1  UNL1        0.1417
      2 C         -27.0636   -0.1190   28.6079 C.ar    1  UNL1       -0.0009
      3 C         -26.9287    1.1713   29.0083 C.ar    1  UNL1       -0.0064
      4 C         -25.7702    2.0341   28.6884 C.ar    1  UNL1       -0.0103
      5 C         -24.7141    1.4431   27.9188 C.ar    1  UNL1        0.0760
      6 C         -24.8590    0.0783   27.5836 C.ar    1  UNL1        0.0060
      7 C         -25.9647   -0.6606   27.9164 C.ar    1  UNL1       -0.0024
      8 N         -28.6995   -0.6441   30.0766 N.am    1  UNL1       -0.1935
      9 C         -29.8035   -1.3645   30.5061 C.2     1  UNL1        0.3370
     10 C         -30.3751   -2.1790   29.7448 C.3     1  UNL1        0.4711
     11 F         -30.0540   -3.4092   29.8712 F       1  UNL1       -0.1620
     12 F         -31.7719   -2.2150   29.9408 F       1  UNL1       -0.1620
     13 O         -29.5090   -1.8160   31.8089 O.2     1  UNL1       -0.2642
     14 C         -23.5219    2.1593   27.5731 C.2     1  UNL1        0.3874
     15 O         -22.4590    1.9082   27.6149 O.co2   1  UNL1       -0.2406
     16 O         -23.8639    3.1278   26.5496 O.co2   1  UNL1       -0.2406
     17 C         -25.6623    3.4208   29.0982 C.3     1  UNL1        0.1020
     18 C         -25.7979    3.5443   30.4380 C.3     1  UNL1        0.3530
     19 C         -25.9907    4.8826   30.9557 C.3     1  UNL1        0.4548
     20 F         -25.6180    4.9322   32.2373 F       1  UNL1       -0.1649
     21 F         -25.1061    5.7777   30.3930 F       1  UNL1       -0.1649
     22 F         -27.2145    5.3067   30.7608 F       1  UNL1       -0.1649
     23 F         -30.3212   -1.9141   28.4468 F       1  UNL1       -0.1620
     24 F         -24.5499    3.0776   31.0642 F       1  UNL1       -0.1948
     25 F         -26.7211    2.7948   31.0041 F       1  UNL1       -0.1948
@<TRIPOS>BOND
     1     1     2    1
     2     1     8    1
     3     8     9   am
     4     9    10    1
     5    10    11    1
     6    10    12    1
     7     9    13    2
     8     5    14    1
     9    14    15   ar
    10    14    16   ar
    11     4    17    1
    12    17    18    1
    13    18    19    1
    14    19    20    1
    15    19    21    1
    16    19    22    1
    17    10    23    1
    18    18    24    1
    19    18    25    1
    20     2     3   ar
    21     3     4   ar
    22     4     5   ar
    23     5     6   ar
    24     6     7   ar
    25     7     2   ar
