@<TRIPOS>MOLECULE
No_427-gen_results/8p0m/2024-11-27-11-27-31/
 17 18 0 0 0
SMALL
GASTEIGER

@<TRIPOS>ATOM
      1 C         -28.0162   -0.8135   28.8779 C.ar    1  UNL1       -0.0039
      2 C         -28.4690   -0.7850   29.8287 C.ar    1  UNL1       -0.0003
      3 C         -28.1816    0.4277   28.1134 C.ar    1  UNL1       -0.0181
      4 C         -28.9841    1.4155   28.5154 C.ar    1  UNL1       -0.0039
      5 C         -29.3802    0.1384   30.4612 C.ar    1  UNL1       -0.0000
      6 C         -29.5415    1.2736   29.7242 C.ar    1  UNL1       -0.0003
      7 C         -27.4586    0.4934   26.7701 C.3     1  UNL1        0.0483
      8 C         -26.0264    0.3840   26.7617 C.3     1  UNL1        0.0350
      9 C         -25.2257    1.3507   27.3721 C.ar    1  UNL1       -0.0215
     10 C         -23.8545    1.0997   27.5822 C.ar    1  UNL1       -0.0042
     11 C         -22.9465    2.1788   27.6417 C.ar    1  UNL1       -0.0003
     12 C         -23.4695    3.4464   27.5659 C.ar    1  UNL1       -0.0000
     13 C         -25.4640    2.7818   27.1679 C.ar    1  UNL1       -0.0042
     14 C         -24.6413    3.7380   27.2407 C.ar    1  UNL1       -0.0003
     15 C         -28.1313    0.7511   25.6086 C.2     1  UNL1       -0.0263
     16 C         -29.1872    1.5466   25.4997 C.2     1  UNL1       -0.0300
     17 C         -29.8740    1.7192   24.2823 C.3     1  UNL1        0.0304
@<TRIPOS>BOND
     1     3     7    1
     2     7     8    1
     3     8     9    1
     4     7    15    1
     5    15    16    2
     6    16    17    1
     7     1     2   ar
     8     2     5   ar
     9     5     6   ar
    10     6     4   ar
    11     4     3   ar
    12     3     1   ar
    13     9    10   ar
    14    10    11   ar
    15    11    12   ar
    16    12    14   ar
    17    14    13   ar
    18    13     9   ar
