@<TRIPOS>MOLECULE
outputs/IAG933/test6/raw/output_4275_IAG933_linker_design_.xyz
 46 50 0 0 0
SMALL
GASTEIGER

@<TRIPOS>ATOM
      1 C         -24.8550   -1.0120   30.1430 C.3     1  UNL1        0.1536
      2 C         -24.9730   -2.5050   29.7880 C.2     1  UNL1        0.0059
      3 C         -23.9060   -3.1730   29.1460 C.2     1  UNL1       -0.0019
      4 C         -23.9890   -4.5490   28.8530 C.2     1  UNL1       -0.0002
      5 C         -25.1370   -5.2800   29.2050 C.2     1  UNL1       -0.0000
      6 C         -26.2320   -4.6110   29.7840 C.2     1  UNL1       -0.0002
      7 C         -26.1550   -3.2320   30.0650 C.2     1  UNL1       -0.0019
      8 C         -25.3870   -0.6790   31.5710 C.3     1  UNL1        0.1041
      9 C         -25.1890    0.7730   32.0280 C.3     1  UNL1        0.0217
     10 C         -25.3360    0.6840   33.5440 C.3     1  UNL1        0.0203
     11 C         -24.8290   -0.7150   33.9050 C.3     1  UNL1        0.0888
     12 N         -24.7580   -1.4810   32.6460 N.3     1  UNL1       -0.2166
     13 C         -25.6880    1.6140   26.4610 C.2     1  UNL1        0.0183
     14 C         -26.2500    2.9200   26.3950 C.2     1  UNL1        0.0727
     15 C         -25.6420    4.0930   27.1230 C.2     1  UNL1        0.2661
     16 N         -25.6140    5.2520   26.4490 N.am    1  UNL1       -0.1997
     17 C         -25.0260    6.4790   26.9630 C.3     1  UNL1        0.1388
     18 O         -25.1430    3.9660   28.2430 O.2     1  UNL1       -0.2683
     19 C         -27.4380    3.0910   25.6450 C.2     1  UNL1        0.1064
     20 N         -28.0750    2.0890   25.0030 N.2     1  UNL1       -0.2081
     21 C         -27.5430    0.8490   25.0790 C.2     1  UNL1        0.2530
     22 O         -28.1930   -0.2080   24.4770 O.2     1  UNL1       -0.4558
     23 C         -29.4600    0.0050   23.8660 C.3     1  UNL1        0.2426
     24 C         -30.0650   -1.3770   23.5730 C.3     1  UNL1        0.2292
     25 O         -30.7290   -1.8780   24.7210 O.3     1  UNL1       -0.2162
     26 C         -26.3540    0.5760   25.7770 C.2     1  UNL1        0.1892
     27 F         -25.8600   -0.6810   25.7950 F       1  UNL1       -0.1996
     28 C         -23.2752    1.7103   26.1162 C.3     1  UNL1        0.0119
     29 C         -24.1058    6.5802   32.3421 C.3     1  UNL1        0.0307
     30 C         -22.9315    8.8452   35.0639 C.3     1  UNL1        0.0738
     31 O         -22.1520    6.6959   34.4104 O.2     1  UNL1       -0.2946
     32 C         -24.1692    0.3803   28.3212 C.3     1  UNL1        0.1418
     33 C         -23.0666    7.5316   34.4041 C.2     1  UNL1        0.1667
     34 C         -23.4550    1.2633   29.3410 C.2     1  UNL1        0.0045
     35 C         -21.8325    1.0954   28.9876 C.2     1  UNL1       -0.0065
     36 C         -24.4941    1.2917   27.1698 C.3     1  UNL1        0.0567
     37 C         -25.8190    5.3812   33.4554 C.3     1  UNL1        0.0935
     38 C         -24.9672    5.3429   32.4118 C.3     1  UNL1        0.0413
     39 C         -24.3559    7.1968   33.7078 C.3     1  UNL1        0.1302
     40 C         -24.5264    2.1353   30.0769 C.2     1  UNL1       -0.0023
     41 O         -25.2279   -0.2016   29.0512 O.3     1  UNL1       -0.3482
     42 C         -22.0428    2.1399   26.3811 C.3     1  UNL1        0.0265
     43 C         -24.7150    3.1570   30.9144 C.2     1  UNL1       -0.0048
     44 C         -24.3069    3.9320   32.0873 C.2     1  UNL1       -0.0250
     45 N         -25.3136    6.3836   34.3398 N.3     1  UNL1       -0.2117
     46 C         -21.2108    1.4564   27.5306 C.2     1  UNL1       -0.0264
@<TRIPOS>BOND
     1     1    41    1
     2     2     7    1
     3     2     1    1
     4     3     2    2
     5     4     3    1
     6     4     5    2
     7     5     6    1
     8     6     7    2
     9     8     1    1
    10     8     9    1
    11     8    12    1
    12     9    10    1
    13    10    11    1
    14    12    11    1
    15    14    13    1
    16    14    15    1
    17    15    18    2
    18    16    17    1
    19    16    15    1
    20    19    14    2
    21    20    21    2
    22    20    19    1
    23    21    26    1
    24    22    21    1
    25    23    22    1
    26    24    23    1
    27    24    25    1
    28    26    27    1
    29    26    13    2
    30    28    42    1
    31    28    36    1
    32    29    38    1
    33    29    39    1
    34    32    41    1
    35    32    34    1
    36    33    31    2
    37    33    30    1
    38    34    40    2
    39    35    34    1
    40    36    13    1
    41    36    32    1
    42    37    45    1
    43    38    44    1
    44    38    37    1
    45    39    45    1
    46    39    33    1
    47    40    43    1
    48    42    46    1
    49    43    44    2
    50    46    35    2
