@<TRIPOS>MOLECULE
outputs/IAG933/test6/raw/output_428_IAG933_linker_design_.xyz
 40 43 0 0 0
SMALL
GASTEIGER

@<TRIPOS>ATOM
      1 C         -24.8550   -1.0120   30.1430 C.3     1  UNL1        0.1185
      2 C         -24.9730   -2.5050   29.7880 C.2     1  UNL1       -0.0026
      3 C         -23.9060   -3.1730   29.1460 C.2     1  UNL1       -0.0026
      4 C         -23.9890   -4.5490   28.8530 C.2     1  UNL1       -0.0003
      5 C         -25.1370   -5.2800   29.2050 C.2     1  UNL1       -0.0000
      6 C         -26.2320   -4.6110   29.7840 C.2     1  UNL1       -0.0003
      7 C         -26.1550   -3.2320   30.0650 C.2     1  UNL1       -0.0026
      8 C         -25.3870   -0.6790   31.5710 C.3     1  UNL1        0.0955
      9 C         -25.1890    0.7730   32.0280 C.3     1  UNL1        0.0209
     10 C         -25.3360    0.6840   33.5440 C.3     1  UNL1        0.0203
     11 C         -24.8290   -0.7150   33.9050 C.3     1  UNL1        0.0888
     12 N         -24.7580   -1.4810   32.6460 N.3     1  UNL1       -0.2174
     13 C         -25.6880    1.6140   26.4610 C.2     1  UNL1        0.0396
     14 C         -26.2500    2.9200   26.3950 C.2     1  UNL1        0.0766
     15 C         -25.6420    4.0930   27.1230 C.2     1  UNL1        0.2664
     16 N         -25.6140    5.2520   26.4490 N.am    1  UNL1       -0.1997
     17 C         -25.0260    6.4790   26.9630 C.3     1  UNL1        0.1388
     18 O         -25.1430    3.9660   28.2430 O.2     1  UNL1       -0.2683
     19 C         -27.4380    3.0910   25.6450 C.2     1  UNL1        0.1067
     20 N         -28.0750    2.0890   25.0030 N.2     1  UNL1       -0.2081
     21 C         -27.5430    0.8490   25.0790 C.2     1  UNL1        0.2533
     22 O         -28.1930   -0.2080   24.4770 O.2     1  UNL1       -0.4558
     23 C         -29.4600    0.0050   23.8660 C.3     1  UNL1        0.2426
     24 C         -30.0650   -1.3770   23.5730 C.3     1  UNL1        0.2292
     25 O         -30.7290   -1.8780   24.7210 O.3     1  UNL1       -0.2162
     26 C         -26.3540    0.5760   25.7770 C.2     1  UNL1        0.1931
     27 F         -25.8600   -0.6810   25.7950 F       1  UNL1       -0.1992
     28 O         -27.3493   -0.9393   28.7494 O.2     1  UNL1       -0.2646
     29 C         -24.3484    1.3234   27.0021 C.2     1  UNL1        0.0248
     30 O         -24.1306    1.2838   24.0417 O.co2   1  UNL1       -0.2406
     31 C         -21.9112    1.7208   26.8349 C.2     1  UNL1        0.0090
     32 O         -22.1667    2.3956   24.2272 O.co2   1  UNL1       -0.2406
     33 C         -23.2023    1.6320   26.2404 C.2     1  UNL1        0.0812
     34 N         -25.2530    0.0908   29.2862 N.am    1  UNL1       -0.2457
     35 C         -22.9626    0.8176   28.8509 C.2     1  UNL1        0.1537
     36 C         -26.6112    0.0622   28.8519 C.2     1  UNL1        0.3073
     37 C         -24.2759    0.7364   28.3356 C.2     1  UNL1        0.0823
     38 F         -22.7041    0.6086   30.1197 F       1  UNL1       -0.2029
     39 C         -21.8289    1.2444   28.1405 C.2     1  UNL1        0.0311
     40 C         -23.1089    1.7951   24.7612 C.2     1  UNL1        0.3878
@<TRIPOS>BOND
     1     1    34    1
     2     2     7    1
     3     2     1    1
     4     3     2    2
     5     4     3    1
     6     4     5    2
     7     5     6    1
     8     6     7    2
     9     8     1    1
    10     8     9    1
    11     8    12    1
    12     9    10    1
    13    10    11    1
    14    12    11    1
    15    13    29    1
    16    14    13    1
    17    14    15    1
    18    15    18    2
    19    16    17    1
    20    16    15    1
    21    19    14    2
    22    20    21    2
    23    20    19    1
    24    21    26    1
    25    22    21    1
    26    23    22    1
    27    24    23    1
    28    24    25    1
    29    26    27    1
    30    26    13    2
    31    28    36    2
    32    29    37    1
    33    30    40   ar
    34    31    39    2
    35    32    40   ar
    36    33    31    1
    37    33    29    2
    38    35    38    1
    39    36    34   am
    40    37    35    2
    41    37    34    1
    42    39    35    1
    43    40    33    1
