@<TRIPOS>MOLECULE
outputs/IAG933/test6/raw/output_4282_IAG933_linker_design_.xyz
 45 47 0 0 0
SMALL
GASTEIGER

@<TRIPOS>ATOM
      1 C         -24.8550   -1.0120   30.1430 C.3     1  UNL1        0.1983
      2 C         -24.9730   -2.5050   29.7880 C.2     1  UNL1        0.0213
      3 C         -23.9060   -3.1730   29.1460 C.2     1  UNL1       -0.0004
      4 C         -23.9890   -4.5490   28.8530 C.2     1  UNL1       -0.0002
      5 C         -25.1370   -5.2800   29.2050 C.2     1  UNL1       -0.0000
      6 C         -26.2320   -4.6110   29.7840 C.2     1  UNL1       -0.0002
      7 C         -26.1550   -3.2320   30.0650 C.2     1  UNL1       -0.0004
      8 C         -25.3870   -0.6790   31.5710 C.3     1  UNL1        0.1197
      9 C         -25.1890    0.7730   32.0280 C.3     1  UNL1        0.0233
     10 C         -25.3360    0.6840   33.5440 C.3     1  UNL1        0.0204
     11 C         -24.8290   -0.7150   33.9050 C.3     1  UNL1        0.0889
     12 N         -24.7580   -1.4810   32.6460 N.3     1  UNL1       -0.2150
     13 C         -25.6880    1.6140   26.4610 C.2     1  UNL1        0.0272
     14 C         -26.2500    2.9200   26.3950 C.2     1  UNL1        0.0731
     15 C         -25.6420    4.0930   27.1230 C.2     1  UNL1        0.2661
     16 N         -25.6140    5.2520   26.4490 N.am    1  UNL1       -0.1997
     17 C         -25.0260    6.4790   26.9630 C.3     1  UNL1        0.1388
     18 O         -25.1430    3.9660   28.2430 O.2     1  UNL1       -0.2683
     19 C         -27.4380    3.0910   25.6450 C.2     1  UNL1        0.1064
     20 N         -28.0750    2.0890   25.0030 N.2     1  UNL1       -0.2081
     21 C         -27.5430    0.8490   25.0790 C.2     1  UNL1        0.2530
     22 O         -28.1930   -0.2080   24.4770 O.2     1  UNL1       -0.4558
     23 C         -29.4600    0.0050   23.8660 C.3     1  UNL1        0.2426
     24 C         -30.0650   -1.3770   23.5730 C.3     1  UNL1        0.2292
     25 O         -30.7290   -1.8780   24.7210 O.3     1  UNL1       -0.2162
     26 C         -26.3540    0.5760   25.7770 C.2     1  UNL1        0.1897
     27 F         -25.8600   -0.6810   25.7950 F       1  UNL1       -0.1996
     28 S         -27.4835    3.8299   30.5199 S.3     1  UNL1       -0.1169
     29 C         -23.0072    1.5250   26.6584 C.3     1  UNL1        0.0159
     30 C         -28.3754    0.2055   29.6739 C.3     1  UNL1        0.0517
     31 C         -28.4807    2.3795   30.9205 C.3     1  UNL1        0.0594
     32 O         -23.4287    4.1954   32.1903 O.3     1  UNL1        0.0328
     33 C         -25.4354    5.1517   33.0442 C.2     1  UNL1        0.4549
     34 N         -25.4644   -0.2160   29.1000 N.pl3   1  UNL1       -0.1889
     35 C         -23.0657    2.3013   25.2964 C.3     1  UNL1        0.0009
     36 O         -24.1262    5.0440   33.0261 O.3     1  UNL1       -0.2430
     37 O         -26.0870    6.1741   33.3067 O.2     1  UNL1       -0.2216
     38 C         -25.9597    3.4044   31.3904 C.3     1  UNL1        0.1762
     39 C         -28.8789    1.6788   29.6160 C.3     1  UNL1        0.0160
     40 N         -23.2222    0.1191   28.7107 N.2     1  UNL1        0.1882
     41 C         -21.6354    1.8437   27.3345 C.3     1  UNL1        0.0009
     42 C         -24.3893    1.2609   27.1788 C.3     1  UNL1        0.1351
     43 N         -26.0823    3.9162   32.7574 N.am    1  UNL1       -0.1543
     44 C         -24.4859    0.2875   28.3308 C.2     1  UNL1        0.3563
     45 C         -27.0573   -0.1339   28.9458 C.3     1  UNL1        0.2024
@<TRIPOS>BOND
     1     1    34    1
     2     2     7    1
     3     2     1    1
     4     3     2    2
     5     4     3    1
     6     4     5    2
     7     5     6    1
     8     6     7    2
     9     8     1    1
    10     8     9    1
    11     8    12    1
    12     9    10    1
    13    10    11    1
    14    12    11    1
    15    13    42    1
    16    14    13    1
    17    14    15    1
    18    15    18    2
    19    16    17    1
    20    16    15    1
    21    19    14    2
    22    20    21    2
    23    20    19    1
    24    21    26    1
    25    22    21    1
    26    23    22    1
    27    24    23    1
    28    24    25    1
    29    26    27    1
    30    26    13    2
    31    28    31    1
    32    28    38    1
    33    29    41    1
    34    32    36    1
    35    33    37    2
    36    35    29    1
    37    36    33    1
    38    38    43    1
    39    39    30    1
    40    39    31    1
    41    42    29    1
    42    42    44    1
    43    43    33    1
    44    44    40    2
    45    44    34    1
    46    45    34    1
    47    45    30    1
