@<TRIPOS>MOLECULE
No_4285-gen_results/8p0m/2024-11-27-11-27-31/
 15 16 0 0 0
SMALL
GASTEIGER

@<TRIPOS>ATOM
      1 C         -28.0162   -0.8135   28.8779 C.ar    1  UNL1        0.0066
      2 C         -27.0636   -0.1190   28.6079 C.ar    1  UNL1        0.0002
      3 C         -25.7647   -0.3897   29.0360 C.ar    1  UNL1        0.0000
      4 C         -25.5296   -1.5302   29.9014 C.ar    1  UNL1        0.0002
      5 C         -26.6888   -2.2893   30.1810 C.ar    1  UNL1        0.0066
      6 C         -27.8727   -1.9508   29.7373 C.ar    1  UNL1        0.0798
      7 C         -29.0901   -2.6445   30.1599 C.2     1  UNL1        0.3878
      8 O         -29.2889   -2.7260   31.4202 O.co2   1  UNL1       -0.2406
      9 C         -24.5122    0.3910   28.6952 C.ar    1  UNL1        0.0000
     10 C         -24.5082    1.2538   27.6622 C.ar    1  UNL1        0.0000
     11 C         -23.2893    1.9314   27.3402 C.ar    1  UNL1        0.0000
     12 C         -22.1835    1.5720   28.0108 C.ar    1  UNL1        0.0000
     13 C         -23.1824    0.2332   29.2344 C.ar    1  UNL1        0.0000
     14 C         -22.0584    0.7685   28.9566 C.ar    1  UNL1        0.0000
     15 O         -30.0074   -2.9095   29.4435 O.co2   1  UNL1       -0.2406
@<TRIPOS>BOND
     1     6     7    1
     2     7     8   ar
     3     3     9    1
     4     7    15   ar
     5     1     2   ar
     6     2     3   ar
     7     3     4   ar
     8     4     5   ar
     9     5     6   ar
    10     6     1   ar
    11     9    10   ar
    12    10    11   ar
    13    11    12   ar
    14    12    14   ar
    15    14    13   ar
    16    13     9   ar
