@<TRIPOS>MOLECULE
No_4288-gen_results/8p0m/2024-11-27-11-27-31/
 16 16 0 0 0
SMALL
GASTEIGER

@<TRIPOS>ATOM
      1 C         -28.0162   -0.8135   28.8779 C.ar    1  UNL1        0.0045
      2 C         -28.4690   -0.7850   29.8287 C.ar    1  UNL1        0.0555
      3 C         -26.5455   -0.8762   28.8500 C.ar    1  UNL1        0.0040
      4 C         -25.8041   -1.0324   30.0571 C.ar    1  UNL1        0.0714
      5 C         -27.9437   -0.9869   31.2075 C.ar    1  UNL1        0.0045
      6 C         -26.5825   -1.0386   31.2231 C.ar    1  UNL1        0.0040
      7 C         -30.0606   -0.7371   29.9024 C.2     1  UNL1        0.2722
      8 N         -30.6056   -0.0348   29.0093 N.am    1  UNL1       -0.1269
      9 C         -31.5026    0.4445   28.7787 C.2     1  UNL1        0.3327
     10 CL        -32.7231    0.4404   29.9007 Cl      1  UNL1       -0.0204
     11 O         -31.9170    1.1240   27.6774 O.2     1  UNL1       -0.2547
     12 C         -24.3565   -1.1024   30.0638 C.3     1  UNL1        0.4186
     13 F         -23.9325   -2.0443   29.3635 F       1  UNL1       -0.1659
     14 F         -23.9146    0.1447   29.7434 F       1  UNL1       -0.1659
     15 F         -23.9011   -1.2900   31.3676 F       1  UNL1       -0.1659
     16 O         -30.6875   -1.3760   30.7256 O.2     1  UNL1       -0.2679
@<TRIPOS>BOND
     1     2     7    1
     2     7     8   am
     3     8     9   am
     4     9    10    1
     5     9    11    2
     6     4    12    1
     7    12    13    1
     8    12    14    1
     9    12    15    1
    10     7    16    2
    11     1     2   ar
    12     2     5   ar
    13     5     6   ar
    14     6     4   ar
    15     4     3   ar
    16     3     1   ar
