@<TRIPOS>MOLECULE
outputs/IAG933/test6/raw/output_4289_IAG933_linker_design_.xyz
 42 47 0 0 0
SMALL
GASTEIGER

@<TRIPOS>ATOM
      1 C         -24.8550   -1.0120   30.1430 C.3     1  UNL1        0.0437
      2 C         -24.9730   -2.5050   29.7880 C.2     1  UNL1       -0.0210
      3 C         -23.9060   -3.1730   29.1460 C.2     1  UNL1       -0.0042
      4 C         -23.9890   -4.5490   28.8530 C.2     1  UNL1       -0.0003
      5 C         -25.1370   -5.2800   29.2050 C.2     1  UNL1       -0.0000
      6 C         -26.2320   -4.6110   29.7840 C.2     1  UNL1       -0.0003
      7 C         -26.1550   -3.2320   30.0650 C.2     1  UNL1       -0.0042
      8 C         -25.3870   -0.6790   31.5710 C.3     1  UNL1        0.0770
      9 C         -25.1890    0.7730   32.0280 C.3     1  UNL1        0.0192
     10 C         -25.3360    0.6840   33.5440 C.3     1  UNL1        0.0202
     11 C         -24.8290   -0.7150   33.9050 C.3     1  UNL1        0.0887
     12 N         -24.7580   -1.4810   32.6460 N.3     1  UNL1       -0.2191
     13 C         -25.6880    1.6140   26.4610 C.2     1  UNL1        0.0088
     14 C         -26.2500    2.9200   26.3950 C.2     1  UNL1        0.0528
     15 C         -25.6420    4.0930   27.1230 C.2     1  UNL1        0.2622
     16 N         -25.6140    5.2520   26.4490 N.am    1  UNL1       -0.2000
     17 C         -25.0260    6.4790   26.9630 C.3     1  UNL1        0.1388
     18 O         -25.1430    3.9660   28.2430 O.2     1  UNL1       -0.2687
     19 C         -27.4380    3.0910   25.6450 C.3     1  UNL1        0.1588
     20 N         -28.0750    2.0890   25.0030 N.2     1  UNL1       -0.2341
     21 C         -27.5430    0.8490   25.0790 C.2     1  UNL1        0.2338
     22 O         -28.1930   -0.2080   24.4770 O.2     1  UNL1       -0.4585
     23 C         -29.4600    0.0050   23.8660 C.3     1  UNL1        0.2423
     24 C         -30.0650   -1.3770   23.5730 C.3     1  UNL1        0.2292
     25 O         -30.7290   -1.8780   24.7210 O.3     1  UNL1       -0.2162
     26 C         -26.3540    0.5760   25.7770 C.3     1  UNL1        0.2544
     27 F         -25.8600   -0.6810   25.7950 F       1  UNL1       -0.2227
     28 O         -22.9902    2.2045   25.7680 O.2     1  UNL1       -0.2915
     29 C         -23.3769    1.6651   26.9516 C.2     1  UNL1        0.1736
     30 C         -20.0834    0.2714   28.3508 C.3     1  UNL1        0.0933
     31 C         -26.4575    1.5216   29.4762 C.2     1  UNL1        0.2859
     32 N         -20.9697   -0.6010   28.9452 N.3     1  UNL1       -0.2149
     33 C         -24.5726    0.0194   29.0734 C.3     1  UNL1        0.0696
     34 C         -22.8376    0.8035   29.1860 C.3     1  UNL1        0.1298
     35 N         -26.5433    2.6807   29.9627 N.am    1  UNL1       -0.0857
     36 O         -24.0947    1.4258   29.6440 O.3     1  UNL1       -0.3483
     37 C         -20.9099    1.3999   27.5031 C.3     1  UNL1        0.0460
     38 C         -25.0836    1.1574   28.6236 C.3     1  UNL1        0.1770
     39 O         -27.4286    0.7541   29.3795 O.2     1  UNL1       -0.2691
     40 C         -24.7964    1.3560   27.3862 C.3     1  UNL1        0.1159
     41 C         -22.0556   -0.5096   29.6041 C.3     1  UNL1        0.1198
     42 C         -22.3883    1.3042   27.8157 C.2     1  UNL1        0.0178
@<TRIPOS>BOND
     1     1     2    1
     2     2     7    1
     3     3     2    2
     4     4     3    1
     5     4     5    2
     6     5     6    1
     7     6     7    2
     8     8     1    1
     9     8     9    1
    10     8    12    1
    11     9    10    1
    12    10    11    1
    13    12    11    1
    14    14    13    2
    15    14    15    1
    16    15    18    2
    17    16    17    1
    18    16    15    1
    19    19    14    1
    20    20    21    2
    21    20    19    1
    22    21    26    1
    23    22    21    1
    24    23    22    1
    25    24    23    1
    26    24    25    1
    27    26    27    1
    28    26    13    1
    29    28    29    1
    30    29    40    1
    31    29    42    2
    32    30    32    1
    33    31    35    1
    34    32    41    1
    35    33    34    1
    36    33     1    1
    37    34    41    1
    38    34    36    1
    39    37    42    1
    40    37    30    1
    41    38    33    1
    42    38    31    1
    43    38    36    1
    44    39    31    2
    45    40    13    1
    46    40    38    1
    47    42    34    1
