@<TRIPOS>MOLECULE
No_4290-gen_results/8p0m/2024-11-27-11-27-31/
 19 21 0 0 0
SMALL
GASTEIGER

@<TRIPOS>ATOM
      1 C         -28.0162   -0.8135   28.8779 C.ar    1  UNL1        0.0069
      2 C         -27.0636   -0.1189   28.6079 C.ar    1  UNL1        0.0298
      3 C         -26.8756    1.1325   28.9134 C.ar    1  UNL1        0.1414
      4 C         -27.9014    1.8066   29.6436 C.ar    1  UNL1        0.0443
      5 C         -28.9449    1.0388   30.0360 C.ar    1  UNL1        0.0545
      6 C         -29.0273   -0.2890   29.7051 C.ar    1  UNL1        0.0571
      7 F         -25.8229    1.8477   28.5391 F       1  UNL1       -0.2041
      8 C         -30.1454   -1.1949   30.1072 C.2     1  UNL1        0.2499
      9 C         -30.6045   -1.1092   31.3617 C.2     1  UNL1        0.2893
     10 O         -30.6858   -2.0197   29.3306 O.2     1  UNL1       -0.2817
     11 N         -30.3168   -0.4816   32.2878 N.am    1  UNL1       -0.2587
     12 O         -31.3928   -2.0947   31.6898 O.2     1  UNL1       -0.2664
     13 C         -30.7584   -0.4614   33.6968 C.3     1  UNL1        0.0953
     14 C         -30.0777    0.2399   34.4399 C.3     1  UNL1        0.0217
     15 C         -29.0025    1.1315   34.0912 C.3     1  UNL1        0.0053
     16 C         -28.5488    1.0375   32.7893 C.3     1  UNL1        0.0409
     17 C         -29.0977    0.2752   31.9910 C.3     1  UNL1        0.1524
     18 N         -28.8033    0.5832   30.7290 N.pl3   1  UNL1       -0.2914
     19 C         -27.5465   -0.0750   31.0754 C.3     1  UNL1        0.1136
@<TRIPOS>BOND
     1     3     7    1
     2     6     8    1
     3     8     9    1
     4     8    10    2
     5     9    11   am
     6     9    12    2
     7    11    13    1
     8    14    15    1
     9    11    17    1
    10    16    17    1
    11     5    18    1
    12    17    18    1
    13    18    19    1
    14    13    14    1
    15    15    16    1
    16     1     2   ar
    17     2     3   ar
    18     3     4   ar
    19     4     5   ar
    20     5     6   ar
    21     6     1   ar
