@<TRIPOS>MOLECULE
outputs/IAG933/test6/raw/output_4292_IAG933_linker_design_.xyz
 45 50 0 0 0
SMALL
GASTEIGER

@<TRIPOS>ATOM
      1 C         -24.8550   -1.0120   30.1430 C.3     1  UNL1        0.1236
      2 C         -24.9730   -2.5050   29.7880 C.2     1  UNL1       -0.0004
      3 C         -23.9060   -3.1730   29.1460 C.2     1  UNL1       -0.0024
      4 C         -23.9890   -4.5490   28.8530 C.2     1  UNL1       -0.0003
      5 C         -25.1370   -5.2800   29.2050 C.2     1  UNL1       -0.0000
      6 C         -26.2320   -4.6110   29.7840 C.2     1  UNL1       -0.0003
      7 C         -26.1550   -3.2320   30.0650 C.2     1  UNL1       -0.0024
      8 C         -25.3870   -0.6790   31.5710 C.3     1  UNL1        0.0976
      9 C         -25.1890    0.7730   32.0280 C.3     1  UNL1        0.0211
     10 C         -25.3360    0.6840   33.5440 C.3     1  UNL1        0.0203
     11 C         -24.8290   -0.7150   33.9050 C.3     1  UNL1        0.0888
     12 N         -24.7580   -1.4810   32.6460 N.3     1  UNL1       -0.2172
     13 C         -25.6880    1.6140   26.4610 C.2     1  UNL1        0.0392
     14 C         -26.2500    2.9200   26.3950 C.2     1  UNL1        0.0766
     15 C         -25.6420    4.0930   27.1230 C.2     1  UNL1        0.2664
     16 N         -25.6140    5.2520   26.4490 N.am    1  UNL1       -0.1997
     17 C         -25.0260    6.4790   26.9630 C.3     1  UNL1        0.1388
     18 O         -25.1430    3.9660   28.2430 O.2     1  UNL1       -0.2683
     19 C         -27.4380    3.0910   25.6450 C.2     1  UNL1        0.1067
     20 N         -28.0750    2.0890   25.0030 N.2     1  UNL1       -0.2081
     21 C         -27.5430    0.8490   25.0790 C.2     1  UNL1        0.2533
     22 O         -28.1930   -0.2080   24.4770 O.2     1  UNL1       -0.4558
     23 C         -29.4600    0.0050   23.8660 C.3     1  UNL1        0.2426
     24 C         -30.0650   -1.3770   23.5730 C.3     1  UNL1        0.2292
     25 O         -30.7290   -1.8780   24.7210 O.3     1  UNL1       -0.2162
     26 C         -26.3540    0.5760   25.7770 C.2     1  UNL1        0.1931
     27 F         -25.8600   -0.6810   25.7950 F       1  UNL1       -0.1992
     28 C         -20.8974    1.5771   27.1137 C.ar    1  UNL1        0.1440
     29 C         -22.9926   -0.2118   29.0989 C.ar    1  UNL1        0.0600
     30 N         -24.1917   -0.1623   29.2645 N.ar    1  UNL1       -0.3250
     31 C         -20.5945   -0.1942   28.6810 C.2     1  UNL1        0.0038
     32 C         -22.5664    0.4823   28.1648 C.ar    1  UNL1        0.0180
     33 F         -23.6786    1.7819   24.4539 F       1  UNL1       -0.1658
     34 O         -24.7603    2.2738   30.1674 O.3     1  UNL1       -0.2135
     35 C         -25.6836    1.5742   29.3469 C.3     1  UNL1        0.2255
     36 C         -21.9708   -0.8302   29.7743 C.2     1  UNL1        0.0173
     37 F         -19.7502    1.8170   27.7290 F       1  UNL1       -0.2042
     38 C         -24.5479    1.3165   27.2701 C.ar    1  UNL1        0.0168
     39 F         -23.4361    3.7417   25.1173 F       1  UNL1       -0.1658
     40 C         -21.2520    0.5395   28.0566 C.ar    1  UNL1        0.0289
     41 C         -23.1768    1.2943   27.1966 C.ar    1  UNL1        0.0088
     42 F         -21.9105    2.7214   24.4125 F       1  UNL1       -0.1658
     43 C         -22.2481    1.9481   26.4411 C.ar    1  UNL1        0.0989
     44 C         -22.8981    2.5176   25.2246 C.3     1  UNL1        0.4207
     45 C         -24.9292    0.6666   28.4950 C.ar    1  UNL1        0.0707
@<TRIPOS>BOND
     1     1     2    1
     2     2     7    1
     3     3     2    2
     4     4     3    1
     5     4     5    2
     6     5     6    1
     7     6     7    2
     8     8     1    1
     9     8     9    1
    10     8    12    1
    11     9    10    1
    12    10    11    1
    13    12    11    1
    14    13    38    1
    15    14    13    1
    16    14    15    1
    17    15    18    2
    18    16    17    1
    19    16    15    1
    20    19    14    2
    21    20    21    2
    22    20    19    1
    23    21    26    1
    24    22    21    1
    25    23    22    1
    26    24    23    1
    27    24    25    1
    28    26    27    1
    29    26    13    2
    30    28    37    1
    31    28    40   ar
    32    29    30   ar
    33    29    36    2
    34    30     1    1
    35    31    36    1
    36    32    29   ar
    37    33    44    1
    38    35    34    1
    39    38    45   ar
    40    39    44    1
    41    40    32   ar
    42    40    31    2
    43    41    38   ar
    44    41    32    2
    45    42    44    1
    46    43    28   ar
    47    43    41   ar
    48    44    43    1
    49    45    30   ar
    50    45    35    1
