@<TRIPOS>MOLECULE
outputs/IAG933/test6/raw/output_4293_IAG933_linker_design_.xyz
 43 47 0 0 0
SMALL
GASTEIGER

@<TRIPOS>ATOM
      1 C         -24.8550   -1.0120   30.1430 C.3     1  UNL1        0.1155
      2 C         -24.9730   -2.5050   29.7880 C.2     1  UNL1       -0.0027
      3 C         -23.9060   -3.1730   29.1460 C.2     1  UNL1       -0.0026
      4 C         -23.9890   -4.5490   28.8530 C.2     1  UNL1       -0.0003
      5 C         -25.1370   -5.2800   29.2050 C.2     1  UNL1       -0.0000
      6 C         -26.2320   -4.6110   29.7840 C.2     1  UNL1       -0.0003
      7 C         -26.1550   -3.2320   30.0650 C.2     1  UNL1       -0.0026
      8 C         -25.3870   -0.6790   31.5710 C.3     1  UNL1        0.0954
      9 C         -25.1890    0.7730   32.0280 C.3     1  UNL1        0.0209
     10 C         -25.3360    0.6840   33.5440 C.3     1  UNL1        0.0203
     11 C         -24.8290   -0.7150   33.9050 C.3     1  UNL1        0.0888
     12 N         -24.7580   -1.4810   32.6460 N.3     1  UNL1       -0.2174
     13 C         -25.6880    1.6140   26.4610 C.2     1  UNL1        0.0424
     14 C         -26.2500    2.9200   26.3950 C.2     1  UNL1        0.0767
     15 C         -25.6420    4.0930   27.1230 C.2     1  UNL1        0.2664
     16 N         -25.6140    5.2520   26.4490 N.am    1  UNL1       -0.1997
     17 C         -25.0260    6.4790   26.9630 C.3     1  UNL1        0.1388
     18 O         -25.1430    3.9660   28.2430 O.2     1  UNL1       -0.2683
     19 C         -27.4380    3.0910   25.6450 C.2     1  UNL1        0.1067
     20 N         -28.0750    2.0890   25.0030 N.2     1  UNL1       -0.2081
     21 C         -27.5430    0.8490   25.0790 C.2     1  UNL1        0.2533
     22 O         -28.1930   -0.2080   24.4770 O.2     1  UNL1       -0.4558
     23 C         -29.4600    0.0050   23.8660 C.3     1  UNL1        0.2426
     24 C         -30.0650   -1.3770   23.5730 C.3     1  UNL1        0.2292
     25 O         -30.7290   -1.8780   24.7210 O.3     1  UNL1       -0.2162
     26 C         -26.3540    0.5760   25.7770 C.2     1  UNL1        0.1932
     27 F         -25.8600   -0.6810   25.7950 F       1  UNL1       -0.1992
     28 F         -20.9617    2.2280   27.4915 F       1  UNL1       -0.2008
     29 N         -24.5954    0.0727   29.3402 N.pl3   1  UNL1       -0.2820
     30 C         -22.2143    0.7511   28.8225 C.2     1  UNL1        0.0490
     31 C         -26.5746    1.6867   29.5500 C.2     1  UNL1        0.0137
     32 C         -27.9138    1.1284   29.5063 C.2     1  UNL1        0.0012
     33 C         -24.6328    1.4071   27.4219 C.2     1  UNL1        0.0566
     34 C         -28.7409    2.8968   31.0533 C.2     1  UNL1        0.0000
     35 C         -23.2536   -0.1049   29.1138 C.2     1  UNL1        0.0681
     36 O         -23.1864    2.5049   25.7792 O.2     1  UNL1       -0.2896
     37 C         -28.9677    1.7371   30.2689 C.2     1  UNL1        0.0000
     38 C         -25.3357    1.0056   28.7456 C.2     1  UNL1        0.0550
     39 C         -26.4050    2.9223   30.3502 C.2     1  UNL1        0.0012
     40 C         -23.2656    1.8243   26.9602 C.2     1  UNL1        0.2173
     41 F         -22.0232    2.5251   25.2707 F       1  UNL1        0.0139
     42 C         -27.4635    3.4895   31.0948 C.2     1  UNL1        0.0000
     43 C         -22.1375    1.6341   27.6882 C.2     1  UNL1        0.1794
@<TRIPOS>BOND
     1     1     2    1
     2     2     7    1
     3     3     2    2
     4     4     3    1
     5     4     5    2
     6     5     6    1
     7     6     7    2
     8     8     1    1
     9     8     9    1
    10     8    12    1
    11     9    10    1
    12    10    11    1
    13    12    11    1
    14    13    33    1
    15    14    13    1
    16    14    15    1
    17    15    18    2
    18    16    17    1
    19    16    15    1
    20    19    14    2
    21    20    21    2
    22    20    19    1
    23    21    26    1
    24    22    21    1
    25    23    22    1
    26    24    23    1
    27    24    25    1
    28    26    27    1
    29    26    13    2
    30    28    43    1
    31    29     1    1
    32    30    35    2
    33    31    39    1
    34    32    31    2
    35    32    37    1
    36    33    38    2
    37    34    42    1
    38    35    29    1
    39    36    40    1
    40    37    34    2
    41    38    29    1
    42    38    31    1
    43    39    42    2
    44    40    33    1
    45    40    43    2
    46    41    36    1
    47    43    30    1
