@<TRIPOS>MOLECULE
No_4297-gen_results/8p0m/2024-11-27-11-27-31/
 7 6 0 0 0
SMALL
GASTEIGER

@<TRIPOS>ATOM
      1 C         -28.0162   -0.8135   28.8779 C.2     1  UNL1       -0.0307
      2 C         -27.0636   -0.1189   28.6079 C.2     1  UNL1       -0.0307
      3 C         -26.8756    1.1325   28.9134 C.3     1  UNL1        0.0257
      4 C         -25.6883    1.9515   28.5672 C.3     1  UNL1        0.0047
      5 C         -25.5093    3.3042   28.8859 C.3     1  UNL1        0.0004
      6 C         -29.0972   -0.2347   29.6994 C.3     1  UNL1        0.0257
      7 C         -30.1941   -1.0484   30.0385 C.3     1  UNL1        0.0050
@<TRIPOS>BOND
     1     1     2    2
     2     2     3    1
     3     3     4    1
     4     4     5    1
     5     1     6    1
     6     6     7    1
