@<TRIPOS>MOLECULE
outputs/IAG933/test6/raw/output_4299_IAG933_linker_design_.xyz
 46 50 0 0 0
SMALL
GASTEIGER

@<TRIPOS>ATOM
      1 C         -24.8550   -1.0120   30.1430 C.3     1  UNL1        0.0625
      2 C         -24.9730   -2.5050   29.7880 C.2     1  UNL1       -0.0191
      3 C         -23.9060   -3.1730   29.1460 C.2     1  UNL1       -0.0042
      4 C         -23.9890   -4.5490   28.8530 C.2     1  UNL1       -0.0003
      5 C         -25.1370   -5.2800   29.2050 C.2     1  UNL1       -0.0000
      6 C         -26.2320   -4.6110   29.7840 C.2     1  UNL1       -0.0003
      7 C         -26.1550   -3.2320   30.0650 C.2     1  UNL1       -0.0042
      8 C         -25.3870   -0.6790   31.5710 C.3     1  UNL1        0.0788
      9 C         -25.1890    0.7730   32.0280 C.3     1  UNL1        0.0193
     10 C         -25.3360    0.6840   33.5440 C.3     1  UNL1        0.0202
     11 C         -24.8290   -0.7150   33.9050 C.3     1  UNL1        0.0887
     12 N         -24.7580   -1.4810   32.6460 N.3     1  UNL1       -0.2191
     13 C         -25.6880    1.6140   26.4610 C.3     1  UNL1        0.0922
     14 C         -26.2500    2.9200   26.3950 C.2     1  UNL1        0.0589
     15 C         -25.6420    4.0930   27.1230 C.2     1  UNL1        0.2628
     16 N         -25.6140    5.2520   26.4490 N.am    1  UNL1       -0.2000
     17 C         -25.0260    6.4790   26.9630 C.3     1  UNL1        0.1388
     18 O         -25.1430    3.9660   28.2430 O.2     1  UNL1       -0.2686
     19 C         -27.4380    3.0910   25.6450 C.2     1  UNL1        0.1025
     20 N         -28.0750    2.0890   25.0030 N.2     1  UNL1       -0.2118
     21 C         -27.5430    0.8490   25.0790 C.2     1  UNL1        0.2344
     22 O         -28.1930   -0.2080   24.4770 O.2     1  UNL1       -0.4585
     23 C         -29.4600    0.0050   23.8660 C.3     1  UNL1        0.2423
     24 C         -30.0650   -1.3770   23.5730 C.3     1  UNL1        0.2292
     25 O         -30.7290   -1.8780   24.7210 O.3     1  UNL1       -0.2162
     26 C         -26.3540    0.5760   25.7770 C.3     1  UNL1        0.2440
     27 F         -25.8600   -0.6810   25.7950 F       1  UNL1       -0.2265
     28 C         -21.9917    2.0742   26.5733 C.2     1  UNL1        0.0020
     29 C         -27.1857    1.4741   29.6595 C.2     1  UNL1        0.2420
     30 C         -29.3426    6.5071   29.2001 C.2     1  UNL1       -0.0003
     31 C         -26.7640    6.1817   30.3257 C.2     1  UNL1       -0.0043
     32 C         -27.2010    7.4194   29.8399 C.2     1  UNL1       -0.0003
     33 C         -22.6345    0.6964   28.4966 C.2     1  UNL1        0.1374
     34 C         -24.0067    0.7169   28.1581 C.2     1  UNL1        0.0217
     35 C         -25.0214    0.0651   29.0051 C.3     1  UNL1        0.1246
     36 C         -24.3223    1.4631   26.9159 C.2     1  UNL1       -0.0152
     37 C         -23.3398    2.1277   26.1584 C.2     1  UNL1       -0.0040
     38 C         -21.6383    1.3547   27.7379 C.2     1  UNL1        0.0293
     39 C         -27.5962    5.0763   30.2122 C.2     1  UNL1       -0.0217
     40 C         -27.3488    2.8540   29.3340 C.3     1  UNL1        0.0915
     41 C         -27.0793    3.6901   30.5954 C.3     1  UNL1        0.0360
     42 O         -27.8320    1.0779   30.6781 O.2     1  UNL1       -0.2733
     43 C         -28.9203    5.2878   29.7438 C.2     1  UNL1       -0.0043
     44 C         -28.4586    7.5930   29.2398 C.2     1  UNL1       -0.0000
     45 F         -22.2710    0.0362   29.6195 F       1  UNL1       -0.2045
     46 N         -26.3887    0.7010   28.9276 N.am    1  UNL1       -0.2022
@<TRIPOS>BOND
     1     1    35    1
     2     2     7    1
     3     2     1    1
     4     3     2    2
     5     4     3    1
     6     4     5    2
     7     5     6    1
     8     6     7    2
     9     8     1    1
    10     8     9    1
    11     8    12    1
    12     9    10    1
    13    10    11    1
    14    12    11    1
    15    13    36    1
    16    14    13    1
    17    14    15    1
    18    15    18    2
    19    16    17    1
    20    16    15    1
    21    19    14    2
    22    20    21    2
    23    20    19    1
    24    21    26    1
    25    22    21    1
    26    23    22    1
    27    24    23    1
    28    24    25    1
    29    26    27    1
    30    26    13    1
    31    28    38    1
    32    29    42    2
    33    30    44    2
    34    30    43    1
    35    32    31    2
    36    33    45    1
    37    34    33    1
    38    34    35    1
    39    35    46    1
    40    36    34    2
    41    37    28    2
    42    37    36    1
    43    38    33    2
    44    39    31    1
    45    39    41    1
    46    40    29    1
    47    40    41    1
    48    43    39    2
    49    44    32    1
    50    46    29    1
