@<TRIPOS>MOLECULE
No_43-gen_results/8p0m/2024-11-27-11-27-31/
 28 30 0 0 0
SMALL
GASTEIGER

@<TRIPOS>ATOM
      1 C         -28.0162   -0.8135   28.8779 C.2     1  UNL1       -0.0150
      2 C         -28.4690   -0.7850   29.8287 C.2     1  UNL1        0.0864
      3 C         -28.1960    0.3478   28.0550 C.3     1  UNL1        0.0270
      4 C         -27.4421    0.5100   26.7946 C.3     1  UNL1        0.0113
      5 C         -26.1689   -0.0794   26.6787 C.3     1  UNL1        0.0227
      6 C         -25.7312   -0.9607   27.6875 C.ar    1  UNL1       -0.0228
      7 C         -24.3594   -1.3766   27.7515 C.ar    1  UNL1       -0.0043
      8 C         -26.6133   -1.1911   28.8226 C.ar    1  UNL1       -0.0077
      9 C         -23.9410   -2.1741   28.8449 C.ar    1  UNL1       -0.0003
     10 C         -26.0213   -2.0843   29.8067 C.ar    1  UNL1       -0.0006
     11 C         -24.7538   -2.5297   29.8670 C.ar    1  UNL1       -0.0000
     12 P         -29.7202   -0.0738   30.4403 P.3     1  UNL1        0.4070
     13 O         -30.2497   -0.5232   31.6836 O.3     1  UNL1       -0.1912
     14 O         -30.8356    0.1841   29.4110 O.2     1  UNL1       -0.2495
     15 O         -29.4117    1.4205   30.9769 O.3     1  UNL1       -0.1353
     16 C         -27.3303    1.9246   26.2916 C.3     1  UNL1        0.0008
     17 C         -25.5880   -0.1209   25.4216 C.3     1  UNL1        0.0047
     18 CL        -30.5343   -2.0132   32.0390 Cl      1  UNL1        0.0699
     19 C         -28.3672   -0.1500   25.6455 C.3     1  UNL1        0.0442
     20 C         -29.7083    0.2449   25.6199 C.3     1  UNL1        0.1660
     21 C         -30.1135    0.5126   24.4267 C.3     1  UNL1        0.0472
     22 O         -30.4695   -0.8463   26.2099 O.3     1  UNL1       -0.4792
     23 C         -31.7088   -0.7269   26.5280 C.ar    1  UNL1        0.1384
     24 C         -32.1718   -1.4826   27.3952 C.ar    1  UNL1        0.0369
     25 C         -33.4714   -1.2193   27.9859 C.ar    1  UNL1        0.0031
     26 C         -34.0907   -0.1765   27.4216 C.ar    1  UNL1        0.0002
     27 C         -33.5974    0.6756   26.4824 C.ar    1  UNL1        0.0031
     28 C         -32.1656    0.6675   26.3669 C.ar    1  UNL1        0.0369
@<TRIPOS>BOND
     1     1     2    2
     2     1     3    1
     3     3     4    1
     4     4     5    1
     5     5     6    1
     6     1     8    1
     7     2    12    1
     8    12    13    1
     9    12    14    2
    10    12    15    1
    11     4    16    1
    12     5    17    1
    13    13    18    1
    14     4    19    1
    15    19    20    1
    16    20    21    1
    17    20    22    1
    18    22    23    1
    19     6     7   ar
    20     7     9   ar
    21     9    11   ar
    22    11    10   ar
    23    10     8   ar
    24     8     6   ar
    25    23    24   ar
    26    24    25   ar
    27    25    26   ar
    28    26    27   ar
    29    27    28   ar
    30    28    23   ar
