@<TRIPOS>MOLECULE
No_430-gen_results/8p0m/2024-11-27-11-27-31/
 18 20 0 0 0
SMALL
GASTEIGER

@<TRIPOS>ATOM
      1 C         -28.0162   -0.8135   28.8779 C.ar    1  UNL1        0.0059
      2 C         -27.0636   -0.1189   28.6079 C.ar    1  UNL1        0.0390
      3 C         -25.7647   -0.3897   29.0360 C.ar    1  UNL1        0.1604
      4 C         -25.5296   -1.5302   29.9014 C.ar    1  UNL1        0.1051
      5 C         -26.6888   -2.2893   30.1810 C.ar    1  UNL1        0.0223
      6 C         -27.8727   -1.9508   29.7373 C.ar    1  UNL1        0.0303
      7 O         -24.6590    0.3822   28.7692 O.3     1  UNL1       -0.4509
      8 C         -23.4062    0.0733   29.1011 C.ar    1  UNL1        0.1604
      9 C         -22.3943    1.0175   28.7490 C.ar    1  UNL1        0.0388
     10 C         -21.0876    0.6094   28.5542 C.ar    1  UNL1        0.0032
     11 C         -20.7770   -0.7249   29.0207 C.ar    1  UNL1        0.0015
     12 C         -21.8082   -1.5865   29.3984 C.ar    1  UNL1        0.0196
     13 C         -23.1105   -1.2027   29.3818 C.ar    1  UNL1        0.1050
     14 N         -24.1959   -1.9880   29.8363 N.pl3   1  UNL1       -0.2063
     15 P         -29.3320   -2.8749   30.3106 P.3     1  UNL1        0.1396
     16 O         -29.2068   -4.1502   29.8628 O.3     1  UNL1       -0.3542
     17 O         -30.5522   -2.1168   30.1737 O.2     1  UNL1       -0.4557
     18 O         -28.9607   -2.8492   31.9259 O.3     1  UNL1       -0.3542
@<TRIPOS>BOND
     1     3     7    1
     2     7     8    1
     3     4    14    1
     4    13    14    1
     5     6    15    1
     6    15    16    1
     7    15    17    2
     8    15    18    1
     9     1     2   ar
    10     2     3   ar
    11     3     4   ar
    12     4     5   ar
    13     5     6   ar
    14     6     1   ar
    15     8     9   ar
    16     9    10   ar
    17    10    11   ar
    18    11    12   ar
    19    12    13   ar
    20    13     8   ar
