@<TRIPOS>MOLECULE
outputs/IAG933/test6/raw/output_4300_IAG933_linker_design_.xyz
 43 45 0 0 0
SMALL
GASTEIGER

@<TRIPOS>ATOM
      1 C         -24.8550   -1.0120   30.1430 C.3     1  UNL1        0.0607
      2 C         -24.9730   -2.5050   29.7880 C.2     1  UNL1       -0.0194
      3 C         -23.9060   -3.1730   29.1460 C.2     1  UNL1       -0.0042
      4 C         -23.9890   -4.5490   28.8530 C.2     1  UNL1       -0.0003
      5 C         -25.1370   -5.2800   29.2050 C.2     1  UNL1       -0.0000
      6 C         -26.2320   -4.6110   29.7840 C.2     1  UNL1       -0.0003
      7 C         -26.1550   -3.2320   30.0650 C.2     1  UNL1       -0.0042
      8 C         -25.3870   -0.6790   31.5710 C.3     1  UNL1        0.0785
      9 C         -25.1890    0.7730   32.0280 C.3     1  UNL1        0.0192
     10 C         -25.3360    0.6840   33.5440 C.3     1  UNL1        0.0202
     11 C         -24.8290   -0.7150   33.9050 C.3     1  UNL1        0.0887
     12 N         -24.7580   -1.4810   32.6460 N.3     1  UNL1       -0.2191
     13 C         -25.6880    1.6140   26.4610 C.2     1  UNL1        0.0184
     14 C         -26.2500    2.9200   26.3950 C.2     1  UNL1        0.0727
     15 C         -25.6420    4.0930   27.1230 C.2     1  UNL1        0.2661
     16 N         -25.6140    5.2520   26.4490 N.am    1  UNL1       -0.1997
     17 C         -25.0260    6.4790   26.9630 C.3     1  UNL1        0.1388
     18 O         -25.1430    3.9660   28.2430 O.2     1  UNL1       -0.2683
     19 C         -27.4380    3.0910   25.6450 C.2     1  UNL1        0.1064
     20 N         -28.0750    2.0890   25.0030 N.2     1  UNL1       -0.2081
     21 C         -27.5430    0.8490   25.0790 C.2     1  UNL1        0.2530
     22 O         -28.1930   -0.2080   24.4770 O.2     1  UNL1       -0.4558
     23 C         -29.4600    0.0050   23.8660 C.3     1  UNL1        0.2426
     24 C         -30.0650   -1.3770   23.5730 C.3     1  UNL1        0.2292
     25 O         -30.7290   -1.8780   24.7210 O.3     1  UNL1       -0.2162
     26 C         -26.3540    0.5760   25.7770 C.2     1  UNL1        0.1892
     27 F         -25.8600   -0.6810   25.7950 F       1  UNL1       -0.1996
     28 C         -28.7374    4.2884   28.7541 C.3     1  UNL1        0.0005
     29 C         -24.0029    0.3886   28.1406 C.3     1  UNL1        0.1398
     30 C         -30.3222    2.6329   29.6447 C.3     1  UNL1        0.0005
     31 C         -21.6248    1.6614   26.9927 C.3     1  UNL1        0.0346
     32 C         -28.4481    1.2455   29.4499 C.3     1  UNL1        0.0868
     33 O         -28.0180   -0.8245   28.6347 O.2     1  UNL1       -0.2733
     34 O         -22.7688    0.3415   28.8480 O.3     1  UNL1       -0.3541
     35 C         -27.6482    0.2725   28.9584 C.2     1  UNL1        0.2414
     36 C         -30.6686    3.5718   30.8328 C.3     1  UNL1        0.0000
     37 C         -28.7978    2.7750   29.3174 C.3     1  UNL1        0.0091
     38 C         -25.2355   -0.1488   28.9869 C.3     1  UNL1        0.1279
     39 C         -31.0124    2.8408   28.2701 C.3     1  UNL1        0.0000
     40 C         -21.5614    0.9974   28.3857 C.3     1  UNL1        0.1422
     41 N         -26.3866    0.7750   28.8801 N.am    1  UNL1       -0.2043
     42 C         -30.9037    1.2864   30.2045 C.3     1  UNL1        0.0000
     43 C         -24.3143    1.4029   27.0222 C.3     1  UNL1        0.0603
@<TRIPOS>BOND
     1     1    38    1
     2     2     7    1
     3     2     1    1
     4     3     2    2
     5     4     3    1
     6     4     5    2
     7     5     6    1
     8     6     7    2
     9     8     1    1
    10     8     9    1
    11     8    12    1
    12     9    10    1
    13    10    11    1
    14    12    11    1
    15    13    43    1
    16    14    13    1
    17    14    15    1
    18    15    18    2
    19    16    17    1
    20    16    15    1
    21    19    14    2
    22    20    21    2
    23    20    19    1
    24    21    26    1
    25    22    21    1
    26    23    22    1
    27    24    23    1
    28    24    25    1
    29    26    27    1
    30    26    13    2
    31    29    43    1
    32    29    34    1
    33    29    38    1
    34    30    42    1
    35    30    36    1
    36    31    40    1
    37    33    35    2
    38    35    32    1
    39    37    28    1
    40    37    32    1
    41    37    30    1
    42    38    41    1
    43    39    30    1
    44    40    34    1
    45    41    35    1
