@<TRIPOS>MOLECULE
No_4301-gen_results/8p0m/2024-11-27-11-27-31/
 13 13 0 0 0
SMALL
GASTEIGER

@<TRIPOS>ATOM
      1 C         -28.0162   -0.8135   28.8779 C.ar    1  UNL1        0.0054
      2 C         -28.4690   -0.7850   29.8287 C.ar    1  UNL1        0.0554
      3 C         -26.5455   -0.8762   28.8500 C.ar    1  UNL1        0.0115
      4 C         -25.8041   -1.0324   30.0571 C.ar    1  UNL1        0.0577
      5 C         -27.9437   -0.9869   31.2075 C.ar    1  UNL1        0.0054
      6 C         -26.5825   -1.0386   31.2231 C.ar    1  UNL1        0.0115
      7 C         -30.0606   -0.7371   29.9024 C.2     1  UNL1        0.2690
      8 O         -30.5524   -0.2769   29.0111 O.2     1  UNL1       -0.2680
      9 N         -30.7428   -1.2890   30.9939 N.am    1  UNL1       -0.1745
     10 C         -32.1712   -1.2601   30.9750 C.2     1  UNL1        0.0844
     11 CL        -24.1309   -1.0949   30.0912 Cl      1  UNL1       -0.0822
     12 C         -32.8979   -0.5475   30.6352 C.2     1  UNL1       -0.0079
     13 C         -32.4276    0.7994   30.2384 C.3     1  UNL1        0.0321
@<TRIPOS>BOND
     1     2     7    1
     2     7     8    2
     3     7     9   am
     4     9    10    1
     5     4    11    1
     6    10    12    2
     7    12    13    1
     8     1     2   ar
     9     2     5   ar
    10     5     6   ar
    11     6     4   ar
    12     4     3   ar
    13     3     1   ar
