@<TRIPOS>MOLECULE
outputs/IAG933/test6/raw/output_4302_IAG933_linker_design_.xyz
 41 44 0 0 0
SMALL
GASTEIGER

@<TRIPOS>ATOM
      1 C         -24.8550   -1.0120   30.1430 C.3     1  UNL1        0.0478
      2 C         -24.9730   -2.5050   29.7880 C.2     1  UNL1       -0.0205
      3 C         -23.9060   -3.1730   29.1460 C.2     1  UNL1       -0.0042
      4 C         -23.9890   -4.5490   28.8530 C.2     1  UNL1       -0.0003
      5 C         -25.1370   -5.2800   29.2050 C.2     1  UNL1       -0.0000
      6 C         -26.2320   -4.6110   29.7840 C.2     1  UNL1       -0.0003
      7 C         -26.1550   -3.2320   30.0650 C.2     1  UNL1       -0.0042
      8 C         -25.3870   -0.6790   31.5710 C.3     1  UNL1        0.0775
      9 C         -25.1890    0.7730   32.0280 C.3     1  UNL1        0.0192
     10 C         -25.3360    0.6840   33.5440 C.3     1  UNL1        0.0202
     11 C         -24.8290   -0.7150   33.9050 C.3     1  UNL1        0.0887
     12 N         -24.7580   -1.4810   32.6460 N.3     1  UNL1       -0.2191
     13 C         -25.6880    1.6140   26.4610 C.3     1  UNL1        0.0934
     14 C         -26.2500    2.9200   26.3950 C.2     1  UNL1        0.0589
     15 C         -25.6420    4.0930   27.1230 C.2     1  UNL1        0.2628
     16 N         -25.6140    5.2520   26.4490 N.am    1  UNL1       -0.2000
     17 C         -25.0260    6.4790   26.9630 C.3     1  UNL1        0.1388
     18 O         -25.1430    3.9660   28.2430 O.2     1  UNL1       -0.2686
     19 C         -27.4380    3.0910   25.6450 C.2     1  UNL1        0.1025
     20 N         -28.0750    2.0890   25.0030 N.2     1  UNL1       -0.2118
     21 C         -27.5430    0.8490   25.0790 C.2     1  UNL1        0.2344
     22 O         -28.1930   -0.2080   24.4770 O.2     1  UNL1       -0.4585
     23 C         -29.4600    0.0050   23.8660 C.3     1  UNL1        0.2423
     24 C         -30.0650   -1.3770   23.5730 C.3     1  UNL1        0.2292
     25 O         -30.7290   -1.8780   24.7210 O.3     1  UNL1       -0.2162
     26 C         -26.3540    0.5760   25.7770 C.3     1  UNL1        0.2440
     27 F         -25.8600   -0.6810   25.7950 F       1  UNL1       -0.2265
     28 C         -22.1949    1.5612   27.1625 C.2     1  UNL1        0.0803
     29 O         -28.2741    1.4473   29.5471 O.3     1  UNL1       -0.0509
     30 C         -23.1949    0.2970   28.8037 C.2     1  UNL1       -0.0193
     31 O         -28.6363   -0.9735   29.7170 O.3     1  UNL1       -0.0509
     32 C         -25.5528    0.2783   28.2427 C.2     1  UNL1        0.0692
     33 N         -21.0283    1.4459   27.7891 N.2     1  UNL1       -0.1527
     34 C         -22.2054    2.2715   25.8593 C.3     1  UNL1        0.0540
     35 C         -24.6131   -0.0998   29.0966 C.3     1  UNL1        0.0663
     36 N         -26.8784   -0.1644   28.2281 N.pl3   1  UNL1       -0.1010
     37 S         -28.3051    0.1642   28.9592 S.3     1  UNL1        0.0823
     38 O         -29.2302    0.2103   27.7607 O.3     1  UNL1       -0.2230
     39 C         -24.8751    1.1207   27.3696 C.2     1  UNL1       -0.0012
     40 C         -23.3730    1.0423   27.6965 C.2     1  UNL1        0.0088
     41 C         -30.5645    0.5982   27.9627 C.3     1  UNL1        0.2087
@<TRIPOS>BOND
     1     1     2    1
     2     2     7    1
     3     3     2    2
     4     4     3    1
     5     4     5    2
     6     5     6    1
     7     6     7    2
     8     8     1    1
     9     8     9    1
    10     8    12    1
    11     9    10    1
    12    10    11    1
    13    12    11    1
    14    13    39    1
    15    14    13    1
    16    14    15    1
    17    15    18    2
    18    16    17    1
    19    16    15    1
    20    19    14    2
    21    20    21    2
    22    20    19    1
    23    21    26    1
    24    22    21    1
    25    23    22    1
    26    24    23    1
    27    24    25    1
    28    26    27    1
    29    26    13    1
    30    28    40    1
    31    28    33    2
    32    30    35    1
    33    32    35    1
    34    34    28    1
    35    35     1    1
    36    36    32    1
    37    36    37    1
    38    37    29    1
    39    37    31    1
    40    38    41    1
    41    38    37    1
    42    39    40    1
    43    39    32    2
    44    40    30    2
