@<TRIPOS>MOLECULE
outputs/IAG933/test6/raw/output_4307_IAG933_linker_design_.xyz
 45 48 0 0 0
SMALL
GASTEIGER

@<TRIPOS>ATOM
      1 C         -24.8550   -1.0120   30.1430 C.3     1  UNL1        0.0438
      2 C         -24.9730   -2.5050   29.7880 C.2     1  UNL1       -0.0208
      3 C         -23.9060   -3.1730   29.1460 C.2     1  UNL1       -0.0042
      4 C         -23.9890   -4.5490   28.8530 C.2     1  UNL1       -0.0003
      5 C         -25.1370   -5.2800   29.2050 C.2     1  UNL1       -0.0000
      6 C         -26.2320   -4.6110   29.7840 C.2     1  UNL1       -0.0003
      7 C         -26.1550   -3.2320   30.0650 C.2     1  UNL1       -0.0042
      8 C         -25.3870   -0.6790   31.5710 C.3     1  UNL1        0.0799
      9 C         -25.1890    0.7730   32.0280 C.3     1  UNL1        0.0504
     10 C         -25.3360    0.6840   33.5440 C.3     1  UNL1        0.0230
     11 C         -24.8290   -0.7150   33.9050 C.3     1  UNL1        0.0888
     12 N         -24.7580   -1.4810   32.6460 N.3     1  UNL1       -0.2190
     13 C         -25.6880    1.6140   26.4610 C.2     1  UNL1        0.0161
     14 C         -26.2500    2.9200   26.3950 C.2     1  UNL1        0.0726
     15 C         -25.6420    4.0930   27.1230 C.2     1  UNL1        0.2661
     16 N         -25.6140    5.2520   26.4490 N.am    1  UNL1       -0.1997
     17 C         -25.0260    6.4790   26.9630 C.3     1  UNL1        0.1388
     18 O         -25.1430    3.9660   28.2430 O.2     1  UNL1       -0.2683
     19 C         -27.4380    3.0910   25.6450 C.2     1  UNL1        0.1064
     20 N         -28.0750    2.0890   25.0030 N.2     1  UNL1       -0.2081
     21 C         -27.5430    0.8490   25.0790 C.2     1  UNL1        0.2530
     22 O         -28.1930   -0.2080   24.4770 O.2     1  UNL1       -0.4558
     23 C         -29.4600    0.0050   23.8660 C.3     1  UNL1        0.2426
     24 C         -30.0650   -1.3770   23.5730 C.3     1  UNL1        0.2292
     25 O         -30.7290   -1.8780   24.7210 O.3     1  UNL1       -0.2162
     26 C         -26.3540    0.5760   25.7770 C.2     1  UNL1        0.1891
     27 F         -25.8600   -0.6810   25.7950 F       1  UNL1       -0.1996
     28 N         -23.4719    1.3535   30.4483 N.3     1  UNL1       -0.2020
     29 C         -25.2285    7.2117   31.0352 C.2     1  UNL1        0.0366
     30 C         -24.5093    1.2287   27.3152 C.3     1  UNL1        0.0359
     31 C         -22.1642    1.7397   26.9787 C.3     1  UNL1        0.3113
     32 N         -25.0349    2.8990   31.0410 N.3     1  UNL1       -0.1974
     33 C         -24.1949    5.3490   32.8552 C.2     1  UNL1        0.0002
     34 C         -24.4751    1.7629   31.1935 C.3     1  UNL1        0.1467
     35 C         -23.6266    6.6312   32.8055 C.2     1  UNL1        0.0366
     36 C         -23.0021    1.9604   29.3077 C.3     1  UNL1        0.0960
     37 C         -23.3634    2.0974   27.7886 C.3     1  UNL1        0.0864
     38 F         -21.0641    1.2540   27.5271 F       1  UNL1       -0.2010
     39 C         -24.1966    7.5744   31.9055 C.2     1  UNL1        0.1387
     40 O         -23.7948    8.8815   31.8141 O.2     1  UNL1       -0.4714
     41 C         -25.8457    3.5850   32.0349 C.3     1  UNL1        0.1165
     42 C         -23.2212    9.5900   32.9125 C.3     1  UNL1        0.2525
     43 C         -25.2793    5.0058   32.0311 C.2     1  UNL1       -0.0046
     44 C         -25.7816    5.9214   31.0763 C.2     1  UNL1        0.0002
     45 O         -22.1616    1.9196   25.6756 O.3     1  UNL1       -0.1842
@<TRIPOS>BOND
     1     2     7    1
     2     2     1    1
     3     3     2    2
     4     4     3    1
     5     4     5    2
     6     5     6    1
     7     6     7    2
     8     8     1    1
     9     8     9    1
    10     8    12    1
    11     9    34    1
    12     9    10    1
    13    10    11    1
    14    12    11    1
    15    13    30    1
    16    14    13    1
    17    14    15    1
    18    15    18    2
    19    16    17    1
    20    16    15    1
    21    19    14    2
    22    20    21    2
    23    20    19    1
    24    21    26    1
    25    22    21    1
    26    23    22    1
    27    24    23    1
    28    24    25    1
    29    26    27    1
    30    26    13    2
    31    29    44    2
    32    29    39    1
    33    31    45    1
    34    31    38    1
    35    31    37    1
    36    32    34    1
    37    32    41    1
    38    34    28    1
    39    35    33    1
    40    36    28    1
    41    37    30    1
    42    37    36    1
    43    39    35    2
    44    40    39    1
    45    40    42    1
    46    43    41    1
    47    43    33    2
    48    44    43    1
