@<TRIPOS>MOLECULE
outputs/IAG933/test6/raw/output_4309_IAG933_linker_design_.xyz
 47 49 0 0 0
SMALL
GASTEIGER

@<TRIPOS>ATOM
      1 C         -24.8550   -1.0120   30.1430 C.3     1  UNL1        0.0462
      2 C         -24.9730   -2.5050   29.7880 C.2     1  UNL1       -0.0207
      3 C         -23.9060   -3.1730   29.1460 C.2     1  UNL1       -0.0042
      4 C         -23.9890   -4.5490   28.8530 C.2     1  UNL1       -0.0003
      5 C         -25.1370   -5.2800   29.2050 C.2     1  UNL1       -0.0000
      6 C         -26.2320   -4.6110   29.7840 C.2     1  UNL1       -0.0003
      7 C         -26.1550   -3.2320   30.0650 C.2     1  UNL1       -0.0042
      8 C         -25.3870   -0.6790   31.5710 C.3     1  UNL1        0.1043
      9 C         -25.1890    0.7730   32.0280 C.3     1  UNL1        0.1348
     10 C         -25.3360    0.6840   33.5440 C.3     1  UNL1        0.0499
     11 C         -24.8290   -0.7150   33.9050 C.3     1  UNL1        0.0913
     12 N         -24.7580   -1.4810   32.6460 N.3     1  UNL1       -0.2166
     13 C         -25.6880    1.6140   26.4610 C.2     1  UNL1        0.1781
     14 C         -26.2500    2.9200   26.3950 C.2     1  UNL1        0.1106
     15 C         -25.6420    4.0930   27.1230 C.2     1  UNL1        0.2694
     16 N         -25.6140    5.2520   26.4490 N.am    1  UNL1       -0.1996
     17 C         -25.0260    6.4790   26.9630 C.3     1  UNL1        0.1388
     18 O         -25.1430    3.9660   28.2430 O.2     1  UNL1       -0.2682
     19 C         -27.4380    3.0910   25.6450 C.2     1  UNL1        0.1098
     20 N         -28.0750    2.0890   25.0030 N.2     1  UNL1       -0.2079
     21 C         -27.5430    0.8490   25.0790 C.2     1  UNL1        0.2564
     22 O         -28.1930   -0.2080   24.4770 O.2     1  UNL1       -0.4558
     23 C         -29.4600    0.0050   23.8660 C.3     1  UNL1        0.2426
     24 C         -30.0650   -1.3770   23.5730 C.3     1  UNL1        0.2292
     25 O         -30.7290   -1.8780   24.7210 O.3     1  UNL1       -0.2162
     26 C         -26.3540    0.5760   25.7770 C.2     1  UNL1        0.2267
     27 F         -25.8600   -0.6810   25.7950 F       1  UNL1       -0.1960
     28 C         -22.1741    1.9473   27.3516 C.2     1  UNL1       -0.0208
     29 O         -24.5455    5.8932   32.4194 O.co2   1  UNL1       -0.2206
     30 C         -30.3827   -0.2451   28.5657 C.3     1  UNL1        0.2304
     31 C         -23.1120    1.0274   27.7966 C.3     1  UNL1        0.0886
     32 O         -24.4158    1.3122   27.0745 O.2     1  UNL1       -0.4593
     33 O         -28.9938   -0.6294   28.4611 O.3     1  UNL1       -0.3443
     34 N         -32.0605   -0.5897   30.3170 N.am    1  UNL1       -0.0856
     35 C         -30.9464   -0.9778   29.7755 C.2     1  UNL1        0.2909
     36 C         -27.7705   -0.1685   28.7886 C.3     1  UNL1        0.1444
     37 N         -25.4416    4.1133   31.4780 N.am    1  UNL1       -0.1366
     38 C         -24.4776    1.0523   28.5355 C.3     1  UNL1        0.2457
     39 O         -24.9836    1.9226   31.5061 O.3     1  UNL1       -0.3362
     40 O         -26.6326    6.1047   31.5358 O.co2   1  UNL1       -0.2206
     41 C         -26.7775    1.8641   30.0448 C.3     1  UNL1        0.1271
     42 C         -20.8658    1.6783   27.3197 C.2     1  UNL1       -0.0047
     43 C         -26.0787    2.7635   31.1706 C.3     1  UNL1        0.2308
     44 C         -28.0624    0.9715   29.7644 C.3     1  UNL1        0.0539
     45 C         -25.5231    5.4147   31.8229 C.2     1  UNL1        0.4650
     46 N         -25.7477    1.3682   28.9646 N.3     1  UNL1       -0.1769
     47 O         -30.2134   -1.9190   30.2376 O.2     1  UNL1       -0.2689
@<TRIPOS>BOND
     1     2     7    1
     2     2     1    1
     3     3     2    2
     4     4     3    1
     5     4     5    2
     6     5     6    1
     7     6     7    2
     8     8     1    1
     9     8     9    1
    10     8    12    1
    11     9    39    1
    12     9    10    1
    13    10    11    1
    14    12    11    1
    15    13    32    1
    16    14    13    1
    17    14    15    1
    18    15    18    2
    19    16    17    1
    20    16    15    1
    21    19    14    2
    22    20    21    2
    23    20    19    1
    24    21    26    1
    25    22    21    1
    26    23    22    1
    27    24    23    1
    28    24    25    1
    29    26    27    1
    30    26    13    2
    31    28    31    1
    32    30    35    1
    33    32    38    1
    34    33    30    1
    35    33    36    1
    36    35    47    2
    37    35    34    1
    38    36    44    1
    39    37    45    1
    40    38    31    1
    41    38    46    1
    42    40    45   ar
    43    41    44    1
    44    41    43    1
    45    42    28    2
    46    43    37    1
    47    43    39    1
    48    45    29   ar
    49    46    41    1
