@<TRIPOS>MOLECULE
outputs/IAG933/test6/raw/output_4311_IAG933_linker_design_.xyz
 39 43 0 0 0
SMALL
GASTEIGER

@<TRIPOS>ATOM
      1 C         -24.8550   -1.0120   30.1430 C.3     1  UNL1        0.1005
      2 C         -24.9730   -2.5050   29.7880 C.2     1  UNL1       -0.0140
      3 C         -23.9060   -3.1730   29.1460 C.2     1  UNL1       -0.0038
      4 C         -23.9890   -4.5490   28.8530 C.2     1  UNL1       -0.0003
      5 C         -25.1370   -5.2800   29.2050 C.2     1  UNL1       -0.0000
      6 C         -26.2320   -4.6110   29.7840 C.2     1  UNL1       -0.0003
      7 C         -26.1550   -3.2320   30.0650 C.2     1  UNL1       -0.0038
      8 C         -25.3870   -0.6790   31.5710 C.3     1  UNL1        0.0839
      9 C         -25.1890    0.7730   32.0280 C.3     1  UNL1        0.0196
     10 C         -25.3360    0.6840   33.5440 C.3     1  UNL1        0.0203
     11 C         -24.8290   -0.7150   33.9050 C.3     1  UNL1        0.0887
     12 N         -24.7580   -1.4810   32.6460 N.3     1  UNL1       -0.2187
     13 C         -25.6880    1.6140   26.4610 C.2     1  UNL1        0.0389
     14 C         -26.2500    2.9200   26.3950 C.2     1  UNL1        0.0764
     15 C         -25.6420    4.0930   27.1230 C.2     1  UNL1        0.2664
     16 N         -25.6140    5.2520   26.4490 N.am    1  UNL1       -0.1997
     17 C         -25.0260    6.4790   26.9630 C.3     1  UNL1        0.1388
     18 O         -25.1430    3.9660   28.2430 O.2     1  UNL1       -0.2683
     19 C         -27.4380    3.0910   25.6450 C.2     1  UNL1        0.1067
     20 N         -28.0750    2.0890   25.0030 N.2     1  UNL1       -0.2081
     21 C         -27.5430    0.8490   25.0790 C.2     1  UNL1        0.2533
     22 O         -28.1930   -0.2080   24.4770 O.2     1  UNL1       -0.4558
     23 C         -29.4600    0.0050   23.8660 C.3     1  UNL1        0.2426
     24 C         -30.0650   -1.3770   23.5730 C.3     1  UNL1        0.2292
     25 O         -30.7290   -1.8780   24.7210 O.3     1  UNL1       -0.2162
     26 C         -26.3540    0.5760   25.7770 C.2     1  UNL1        0.1929
     27 F         -25.8600   -0.6810   25.7950 F       1  UNL1       -0.1992
     28 N         -23.0088    0.7007   29.0934 N.2     1  UNL1       -0.0519
     29 N         -20.7905    1.1464   28.3533 N.2     1  UNL1       -0.0085
     30 C         -22.0484    2.0006   26.0426 C.2     1  UNL1        0.2327
     31 C         -24.4209    1.3309   27.2562 C.2     1  UNL1        0.0471
     32 C         -24.3315    0.7273   28.4037 C.3     1  UNL1        0.2944
     33 C         -25.3982   -0.1324   29.0699 C.2     1  UNL1        0.2085
     34 C         -22.1796    1.0920   28.2349 C.2     1  UNL1        0.3765
     35 O         -26.5751   -0.0126   28.8195 O.2     1  UNL1       -0.2908
     36 C         -22.8465    1.5188   27.0861 C.2     1  UNL1        0.1344
     37 N         -20.7610    1.9603   26.1658 N.2     1  UNL1       -0.1707
     38 C         -20.1000    1.6129   27.2926 C.2     1  UNL1        0.3412
     39 F         -22.5671    2.4716   24.9457 F       1  UNL1       -0.1828
@<TRIPOS>BOND
     1     1    33    1
     2     2     7    1
     3     2     1    1
     4     3     2    2
     5     4     3    1
     6     4     5    2
     7     5     6    1
     8     6     7    2
     9     8     1    1
    10     8     9    1
    11     8    12    1
    12     9    10    1
    13    10    11    1
    14    12    11    1
    15    13    31    1
    16    14    13    1
    17    14    15    1
    18    15    18    2
    19    16    17    1
    20    16    15    1
    21    19    14    2
    22    20    21    2
    23    20    19    1
    24    21    26    1
    25    22    21    1
    26    23    22    1
    27    24    23    1
    28    24    25    1
    29    26    27    1
    30    26    13    2
    31    30    37    2
    32    30    36    1
    33    31    32    1
    34    32    33    1
    35    32    28    1
    36    34    29    1
    37    34    28    2
    38    35    33    2
    39    36    31    2
    40    36    34    1
    41    37    38    1
    42    38    29    2
    43    39    30    1
