@<TRIPOS>MOLECULE
outputs/IAG933/test6/raw/output_4312_IAG933_linker_design_.xyz
 41 43 0 0 0
SMALL
GASTEIGER

@<TRIPOS>ATOM
      1 C         -24.8550   -1.0120   30.1430 C.3     1  UNL1        0.0849
      2 C         -24.9730   -2.5050   29.7880 C.2     1  UNL1       -0.0173
      3 C         -23.9060   -3.1730   29.1460 C.2     1  UNL1       -0.0041
      4 C         -23.9890   -4.5490   28.8530 C.2     1  UNL1       -0.0003
      5 C         -25.1370   -5.2800   29.2050 C.2     1  UNL1       -0.0000
      6 C         -26.2320   -4.6110   29.7840 C.2     1  UNL1       -0.0003
      7 C         -26.1550   -3.2320   30.0650 C.2     1  UNL1       -0.0041
      8 C         -25.3870   -0.6790   31.5710 C.3     1  UNL1        0.0807
      9 C         -25.1890    0.7730   32.0280 C.3     1  UNL1        0.0193
     10 C         -25.3360    0.6840   33.5440 C.3     1  UNL1        0.0202
     11 C         -24.8290   -0.7150   33.9050 C.3     1  UNL1        0.0887
     12 N         -24.7580   -1.4810   32.6460 N.3     1  UNL1       -0.2190
     13 C         -25.6880    1.6140   26.4610 C.2     1  UNL1        0.0452
     14 C         -26.2500    2.9200   26.3950 C.2     1  UNL1        0.0749
     15 C         -25.6420    4.0930   27.1230 C.2     1  UNL1        0.2662
     16 N         -25.6140    5.2520   26.4490 N.am    1  UNL1       -0.1997
     17 C         -25.0260    6.4790   26.9630 C.3     1  UNL1        0.1388
     18 O         -25.1430    3.9660   28.2430 O.2     1  UNL1       -0.2683
     19 C         -27.4380    3.0910   25.6450 C.2     1  UNL1        0.1065
     20 N         -28.0750    2.0890   25.0030 N.2     1  UNL1       -0.2081
     21 C         -27.5430    0.8490   25.0790 C.2     1  UNL1        0.2530
     22 O         -28.1930   -0.2080   24.4770 O.2     1  UNL1       -0.4558
     23 C         -29.4600    0.0050   23.8660 C.3     1  UNL1        0.2426
     24 C         -30.0650   -1.3770   23.5730 C.3     1  UNL1        0.2292
     25 O         -30.7290   -1.8780   24.7210 O.3     1  UNL1       -0.2162
     26 C         -26.3540    0.5760   25.7770 C.2     1  UNL1        0.1914
     27 F         -25.8600   -0.6810   25.7950 F       1  UNL1       -0.1995
     28 C         -24.3930    0.0634   29.2931 C.3     1  UNL1        0.2231
     29 C         -21.6250    0.1102   28.4264 C.2     1  UNL1        0.1837
     30 N         -24.6728    1.5987   29.7224 N.3     1  UNL1       -0.0543
     31 O         -24.2938    2.6074   30.6832 O.3     1  UNL1       -0.2612
     32 C         -23.4898    1.3713   26.6307 C.3     1  UNL1        0.1840
     33 O         -23.1123    1.1593   25.2788 O.3     1  UNL1       -0.3477
     34 O         -22.0864   -0.2470   29.4586 O.2     1  UNL1       -0.2933
     35 O         -21.2188    1.9728   26.9053 O.3     1  UNL1       -0.2124
     36 C         -22.1874    0.9127   27.3710 C.3     1  UNL1        0.2382
     37 O         -24.7268   -0.0089   27.9237 O.3     1  UNL1       -0.3326
     38 C         -20.1916   -0.0210   28.3568 C.3     1  UNL1        0.0751
     39 C         -24.6102    1.0264   27.1663 C.3     1  UNL1        0.1716
     40 C         -23.2198    2.3955   24.5340 C.3     1  UNL1        0.1742
     41 C         -25.4023    3.3109   31.3111 C.3     1  UNL1        0.2026
@<TRIPOS>BOND
     1     1    28    1
     2     2     7    1
     3     2     1    1
     4     3     2    2
     5     4     3    1
     6     4     5    2
     7     5     6    1
     8     6     7    2
     9     8     1    1
    10     8     9    1
    11     8    12    1
    12     9    10    1
    13    10    11    1
    14    12    11    1
    15    13    39    1
    16    14    13    1
    17    14    15    1
    18    15    18    2
    19    16    17    1
    20    16    15    1
    21    19    14    2
    22    20    21    2
    23    20    19    1
    24    21    26    1
    25    22    21    1
    26    23    22    1
    27    24    23    1
    28    24    25    1
    29    26    27    1
    30    26    13    2
    31    28    37    1
    32    28    30    1
    33    29    34    2
    34    30    31    1
    35    31    41    1
    36    32    33    1
    37    32    39    1
    38    32    36    1
    39    36    35    1
    40    36    29    1
    41    38    29    1
    42    39    37    1
    43    40    33    1
