@<TRIPOS>MOLECULE
outputs/IAG933/test6/raw/output_4313_IAG933_linker_design_.xyz
 43 48 0 0 0
SMALL
GASTEIGER

@<TRIPOS>ATOM
      1 C         -24.8550   -1.0120   30.1430 C.3     1  UNL1        0.1133
      2 C         -24.9730   -2.5050   29.7880 C.2     1  UNL1       -0.0029
      3 C         -23.9060   -3.1730   29.1460 C.2     1  UNL1       -0.0026
      4 C         -23.9890   -4.5490   28.8530 C.2     1  UNL1       -0.0003
      5 C         -25.1370   -5.2800   29.2050 C.2     1  UNL1       -0.0000
      6 C         -26.2320   -4.6110   29.7840 C.2     1  UNL1       -0.0003
      7 C         -26.1550   -3.2320   30.0650 C.2     1  UNL1       -0.0026
      8 C         -25.3870   -0.6790   31.5710 C.3     1  UNL1        0.0951
      9 C         -25.1890    0.7730   32.0280 C.3     1  UNL1        0.0209
     10 C         -25.3360    0.6840   33.5440 C.3     1  UNL1        0.0203
     11 C         -24.8290   -0.7150   33.9050 C.3     1  UNL1        0.0888
     12 N         -24.7580   -1.4810   32.6460 N.3     1  UNL1       -0.2174
     13 C         -25.6880    1.6140   26.4610 C.2     1  UNL1        0.0379
     14 C         -26.2500    2.9200   26.3950 C.2     1  UNL1        0.0764
     15 C         -25.6420    4.0930   27.1230 C.2     1  UNL1        0.2664
     16 N         -25.6140    5.2520   26.4490 N.am    1  UNL1       -0.1997
     17 C         -25.0260    6.4790   26.9630 C.3     1  UNL1        0.1388
     18 O         -25.1430    3.9660   28.2430 O.2     1  UNL1       -0.2683
     19 C         -27.4380    3.0910   25.6450 C.2     1  UNL1        0.1067
     20 N         -28.0750    2.0890   25.0030 N.2     1  UNL1       -0.2081
     21 C         -27.5430    0.8490   25.0790 C.2     1  UNL1        0.2533
     22 O         -28.1930   -0.2080   24.4770 O.2     1  UNL1       -0.4558
     23 C         -29.4600    0.0050   23.8660 C.3     1  UNL1        0.2426
     24 C         -30.0650   -1.3770   23.5730 C.3     1  UNL1        0.2292
     25 O         -30.7290   -1.8780   24.7210 O.3     1  UNL1       -0.2162
     26 C         -26.3540    0.5760   25.7770 C.2     1  UNL1        0.1929
     27 F         -25.8600   -0.6810   25.7950 F       1  UNL1       -0.1992
     28 N         -28.4768    1.8514   31.1220 N.3     1  UNL1       -0.0939
     29 O         -29.9286    0.4309   29.5228 O.3     1  UNL1       -0.3338
     30 C         -22.3410    0.9849   28.2557 C.2     1  UNL1        0.1693
     31 C         -27.7137    0.7857   29.0469 C.2     1  UNL1        0.0813
     32 C         -23.3694    1.4310   27.1705 C.2     1  UNL1        0.1114
     33 O         -22.3896    2.4937   25.5312 O.2     1  UNL1       -0.2444
     34 C         -28.0139   -0.5154   28.5101 C.3     1  UNL1        0.0771
     35 C         -28.8562    1.3192   29.7592 C.3     1  UNL1        0.2432
     36 N         -24.5496    0.0503   29.2728 N.pl3   1  UNL1       -0.2797
     37 N         -26.4576    1.4067   28.9848 N.2     1  UNL1       -0.2523
     38 C         -24.7507    1.3184   27.3131 C.2     1  UNL1        0.0306
     39 C         -25.2826    0.8601   28.5207 C.3     1  UNL1        0.2016
     40 C         -29.5556   -0.3455   28.3742 C.3     1  UNL1        0.1503
     41 C         -23.1438    0.3756   29.3714 C.2     1  UNL1        0.1015
     42 C         -22.2751    1.7084   26.5333 C.2     1  UNL1        0.3486
     43 O         -21.5335    1.5779   27.3394 O.3     1  UNL1       -0.4194
@<TRIPOS>BOND
     1     1     2    1
     2     2     7    1
     3     3     2    2
     4     4     3    1
     5     4     5    2
     6     5     6    1
     7     6     7    2
     8     8     1    1
     9     8     9    1
    10     8    12    1
    11     9    10    1
    12    10    11    1
    13    12    11    1
    14    13    38    1
    15    14    13    1
    16    14    15    1
    17    15    18    2
    18    16    17    1
    19    16    15    1
    20    19    14    2
    21    20    21    2
    22    20    19    1
    23    21    26    1
    24    22    21    1
    25    23    22    1
    26    24    23    1
    27    24    25    1
    28    26    27    1
    29    26    13    2
    30    29    35    1
    31    30    41    2
    32    31    35    1
    33    32    38    2
    34    32    30    1
    35    33    42    2
    36    34    31    1
    37    35    28    1
    38    36    41    1
    39    36     1    1
    40    37    31    2
    41    38    39    1
    42    39    37    1
    43    39    36    1
    44    40    34    1
    45    40    29    1
    46    42    32    1
    47    42    43    1
    48    43    30    1
