@<TRIPOS>MOLECULE
No_4316-gen_results/8p0m/2024-11-27-11-27-31/
 18 19 0 0 0
SMALL
GASTEIGER

@<TRIPOS>ATOM
      1 C         -28.0162   -0.8135   28.8779 C.ar    1  UNL1       -0.0026
      2 C         -27.0636   -0.1189   28.6079 C.ar    1  UNL1       -0.0003
      3 C         -25.7923   -0.4302   29.0761 C.ar    1  UNL1       -0.0000
      4 C         -24.5456    0.3494   28.8225 C.ar    1  UNL1       -0.0000
      5 C         -24.6586    1.4196   27.8878 C.ar    1  UNL1       -0.0000
      6 C         -23.5403    2.1791   27.5500 C.ar    1  UNL1        0.0000
      7 C         -22.2925    1.7429   28.0473 C.ar    1  UNL1        0.0000
      8 C         -22.1712    0.7080   28.9284 C.ar    1  UNL1        0.0000
      9 C         -23.3345   -0.0624   29.3081 C.ar    1  UNL1       -0.0000
     10 C         -27.9546   -1.8765   29.8726 C.ar    1  UNL1       -0.0007
     11 C         -26.7258   -2.3300   30.3106 C.ar    1  UNL1       -0.0026
     12 C         -25.6021   -1.5639   29.9668 C.ar    1  UNL1       -0.0003
     13 C         -29.1376   -2.6738   30.2490 C.3     1  UNL1        0.1386
     14 N         -29.4007   -2.6246   31.5103 N.pl3   1  UNL1       -0.2315
     15 C         -29.5227   -1.5775   32.1425 C.2     1  UNL1        0.0805
     16 C         -29.7228   -0.4391   31.7078 C.2     1  UNL1        0.0174
     17 C         -29.8403    0.5038   32.1140 C.2     1  UNL1        0.0014
     18 C         -29.7865    0.5983   33.6151 C.2     1  UNL1        0.0000
@<TRIPOS>BOND
     1     3     4    1
     2    10    13    1
     3    13    14    1
     4    14    15    1
     5    15    16    2
     6    16    17    1
     7    17    18    2
     8     1     2   ar
     9     2     3   ar
    10     3    12   ar
    11    12    11   ar
    12    11    10   ar
    13    10     1   ar
    14     4     5   ar
    15     5     6   ar
    16     6     7   ar
    17     7     8   ar
    18     8     9   ar
    19     9     4   ar
