@<TRIPOS>MOLECULE
outputs/IAG933/test6/raw/output_4317_IAG933_linker_design_.xyz
 43 47 0 0 0
SMALL
GASTEIGER

@<TRIPOS>ATOM
      1 C         -24.8550   -1.0120   30.1430 C.3     1  UNL1        0.0586
      2 C         -24.9730   -2.5050   29.7880 C.2     1  UNL1       -0.0195
      3 C         -23.9060   -3.1730   29.1460 C.2     1  UNL1       -0.0042
      4 C         -23.9890   -4.5490   28.8530 C.2     1  UNL1       -0.0003
      5 C         -25.1370   -5.2800   29.2050 C.2     1  UNL1       -0.0000
      6 C         -26.2320   -4.6110   29.7840 C.2     1  UNL1       -0.0003
      7 C         -26.1550   -3.2320   30.0650 C.2     1  UNL1       -0.0042
      8 C         -25.3870   -0.6790   31.5710 C.3     1  UNL1        0.0785
      9 C         -25.1890    0.7730   32.0280 C.3     1  UNL1        0.0192
     10 C         -25.3360    0.6840   33.5440 C.3     1  UNL1        0.0202
     11 C         -24.8290   -0.7150   33.9050 C.3     1  UNL1        0.0887
     12 N         -24.7580   -1.4810   32.6460 N.3     1  UNL1       -0.2191
     13 C         -25.6880    1.6140   26.4610 C.3     1  UNL1        0.0771
     14 C         -26.2500    2.9200   26.3950 C.2     1  UNL1        0.0552
     15 C         -25.6420    4.0930   27.1230 C.2     1  UNL1        0.2625
     16 N         -25.6140    5.2520   26.4490 N.am    1  UNL1       -0.2000
     17 C         -25.0260    6.4790   26.9630 C.3     1  UNL1        0.1388
     18 O         -25.1430    3.9660   28.2430 O.2     1  UNL1       -0.2687
     19 C         -27.4380    3.0910   25.6450 C.2     1  UNL1        0.1022
     20 N         -28.0750    2.0890   25.0030 N.2     1  UNL1       -0.2119
     21 C         -27.5430    0.8490   25.0790 C.2     1  UNL1        0.2341
     22 O         -28.1930   -0.2080   24.4770 O.2     1  UNL1       -0.4585
     23 C         -29.4600    0.0050   23.8660 C.3     1  UNL1        0.2423
     24 C         -30.0650   -1.3770   23.5730 C.3     1  UNL1        0.2292
     25 O         -30.7290   -1.8780   24.7210 O.3     1  UNL1       -0.2162
     26 C         -26.3540    0.5760   25.7770 C.3     1  UNL1        0.2404
     27 F         -25.8600   -0.6810   25.7950 F       1  UNL1       -0.2269
     28 C         -24.8819    1.0210   27.5825 C.3     1  UNL1        0.0658
     29 N         -21.3411    1.0386   28.0977 N.2     1  UNL1       -0.2440
     30 C         -21.6098    2.0394   27.2575 C.2     1  UNL1        0.1939
     31 C         -28.5421    5.3736   31.5603 C.3     1  UNL1        0.0895
     32 C         -25.1747    0.0427   28.8875 C.3     1  UNL1        0.1042
     33 C         -28.0222    4.2146   29.4555 C.3     1  UNL1        0.0327
     34 C         -22.5431    0.6359   28.4662 C.3     1  UNL1        0.1683
     35 C         -23.4318    1.3732   27.6020 C.2     1  UNL1        0.0648
     36 N         -27.1686    5.1798   31.9300 N.3     1  UNL1       -0.2130
     37 C         -29.2056    4.8430   30.2753 C.3     1  UNL1        0.0238
     38 C         -26.5221    4.1407   31.3873 C.3     1  UNL1        0.1183
     39 N         -26.5927   -0.3429   28.5151 N.pl3   1  UNL1       -0.2292
     40 C         -27.6435    0.5649   29.2081 C.2     1  UNL1        0.1210
     41 C         -27.3761    3.3167   30.3744 C.2     1  UNL1        0.0088
     42 C         -27.5918    1.8100   29.8353 C.1     1  UNL1       -0.0911
     43 N         -22.8593    2.2147   26.8787 N.2     1  UNL1       -0.2310
@<TRIPOS>BOND
     1     1    32    1
     2     2     7    1
     3     2     1    1
     4     3     2    2
     5     4     3    1
     6     4     5    2
     7     5     6    1
     8     6     7    2
     9     8     1    1
    10     8     9    1
    11     8    12    1
    12     9    10    1
    13    10    11    1
    14    12    11    1
    15    13    28    1
    16    14    13    1
    17    14    15    1
    18    15    18    2
    19    16    17    1
    20    16    15    1
    21    19    14    2
    22    20    21    2
    23    20    19    1
    24    21    26    1
    25    22    21    1
    26    23    22    1
    27    24    23    1
    28    24    25    1
    29    26    27    1
    30    26    13    1
    31    28    35    1
    32    28    32    1
    33    29    34    1
    34    30    29    2
    35    31    36    1
    36    32    39    1
    37    33    37    1
    38    33    41    1
    39    35    34    1
    40    37    31    1
    41    38    36    1
    42    39    40    1
    43    40    42    2
    44    41    38    1
    45    42    41    2
    46    43    30    1
    47    43    35    2
