@<TRIPOS>MOLECULE
No_4318-gen_results/8p0m/2024-11-27-11-27-31/
 18 19 0 0 0
SMALL
GASTEIGER

@<TRIPOS>ATOM
      1 C         -28.0162   -0.8135   28.8779 C.ar    1  UNL1        0.0166
      2 C         -28.4690   -0.7850   29.8287 C.ar    1  UNL1        0.0738
      3 C         -26.5042   -0.7777   28.8766 C.ar    1  UNL1        0.0013
      4 C         -25.8103   -0.8531   30.1028 C.ar    1  UNL1        0.0001
      5 C         -27.9906   -0.8916   31.2257 C.ar    1  UNL1        0.0166
      6 C         -26.6042   -0.8676   31.2652 C.ar    1  UNL1        0.0013
      7 N         -29.9765   -0.8288   29.8497 N.am    1  UNL1       -0.1716
      8 C         -30.5795   -0.1232   28.9820 C.2     1  UNL1        0.3228
      9 C         -31.8655   -0.6748   28.4847 C.2     1  UNL1        0.3047
     10 O         -29.9935    0.6842   28.2122 O.2     1  UNL1       -0.2630
     11 N         -32.1062   -0.8817   27.3470 N.am    1  UNL1       -0.2739
     12 C         -31.5102   -0.4149   26.3004 C.3     1  UNL1        0.0938
     13 C         -31.3422   -1.2529   25.1247 C.3     1  UNL1        0.0216
     14 C         -33.0564   -1.9124   26.9133 C.3     1  UNL1        0.0758
     15 C         -33.8433   -2.5561   28.0114 C.3     1  UNL1        0.0215
     16 C         -33.0828   -2.4376   25.6671 C.3     1  UNL1        0.0199
     17 C         -32.3624   -2.0029   24.6627 C.3     1  UNL1        0.0035
     18 O         -32.6186   -0.8148   29.5487 O.2     1  UNL1       -0.2649
@<TRIPOS>BOND
     1     2     7    1
     2     7     8   am
     3     8     9    1
     4     8    10    2
     5     9    11   am
     6    11    12    1
     7    11    14    1
     8    14    15    1
     9    14    16    1
    10    13    17    1
    11     9    18    2
    12    12    13    1
    13    17    16    1
    14     1     2   ar
    15     2     5   ar
    16     5     6   ar
    17     6     4   ar
    18     4     3   ar
    19     3     1   ar
