@<TRIPOS>MOLECULE
outputs/IAG933/test6/raw/output_4319_IAG933_linker_design_.xyz
 43 46 0 0 0
SMALL
GASTEIGER

@<TRIPOS>ATOM
      1 C         -24.8550   -1.0120   30.1430 C.3     1  UNL1        0.0437
      2 C         -24.9730   -2.5050   29.7880 C.2     1  UNL1       -0.0208
      3 C         -23.9060   -3.1730   29.1460 C.2     1  UNL1       -0.0042
      4 C         -23.9890   -4.5490   28.8530 C.2     1  UNL1       -0.0003
      5 C         -25.1370   -5.2800   29.2050 C.2     1  UNL1       -0.0000
      6 C         -26.2320   -4.6110   29.7840 C.2     1  UNL1       -0.0003
      7 C         -26.1550   -3.2320   30.0650 C.2     1  UNL1       -0.0042
      8 C         -25.3870   -0.6790   31.5710 C.3     1  UNL1        0.0776
      9 C         -25.1890    0.7730   32.0280 C.3     1  UNL1        0.0268
     10 C         -25.3360    0.6840   33.5440 C.3     1  UNL1        0.0207
     11 C         -24.8290   -0.7150   33.9050 C.3     1  UNL1        0.0887
     12 N         -24.7580   -1.4810   32.6460 N.3     1  UNL1       -0.2191
     13 C         -25.6880    1.6140   26.4610 C.3     1  UNL1        0.0912
     14 C         -26.2500    2.9200   26.3950 C.2     1  UNL1        0.0565
     15 C         -25.6420    4.0930   27.1230 C.2     1  UNL1        0.2625
     16 N         -25.6140    5.2520   26.4490 N.am    1  UNL1       -0.2000
     17 C         -25.0260    6.4790   26.9630 C.3     1  UNL1        0.1388
     18 O         -25.1430    3.9660   28.2430 O.2     1  UNL1       -0.2687
     19 C         -27.4380    3.0910   25.6450 C.2     1  UNL1        0.1022
     20 N         -28.0750    2.0890   25.0030 N.2     1  UNL1       -0.2119
     21 C         -27.5430    0.8490   25.0790 C.2     1  UNL1        0.2341
     22 O         -28.1930   -0.2080   24.4770 O.2     1  UNL1       -0.4585
     23 C         -29.4600    0.0050   23.8660 C.3     1  UNL1        0.2423
     24 C         -30.0650   -1.3770   23.5730 C.3     1  UNL1        0.2292
     25 O         -30.7290   -1.8780   24.7210 O.3     1  UNL1       -0.2162
     26 C         -26.3540    0.5760   25.7770 C.3     1  UNL1        0.2417
     27 F         -25.8600   -0.6810   25.7950 F       1  UNL1       -0.2268
     28 C         -25.0978    6.5776   31.9814 C.2     1  UNL1        0.0417
     29 C         -26.5809    3.0417   31.7347 C.3     1  UNL1        0.0355
     30 C         -24.6621    1.3359   27.4809 C.3     1  UNL1        0.1177
     31 N         -25.0249    1.4982   28.8088 N.am    1  UNL1       -0.2056
     32 C         -25.4566    6.9536   33.2943 C.2     1  UNL1        0.1957
     33 N         -21.3627    1.8153   27.7255 N.1     1  UNL1       -0.1958
     34 C         -25.9521    4.3304   32.3635 C.2     1  UNL1       -0.0215
     35 C         -25.9535    6.0225   34.2078 C.2     1  UNL1        0.0417
     36 C         -25.3450    5.2801   31.5096 C.2     1  UNL1       -0.0010
     37 C         -25.8855    1.7599   31.0925 C.3     1  UNL1        0.0839
     38 C         -22.3469    1.3233   27.4528 C.1     1  UNL1        0.0750
     39 C         -24.7542    2.0679   30.0753 C.2     1  UNL1        0.2413
     40 C         -26.1886    4.6916   33.7213 C.2     1  UNL1       -0.0010
     41 O         -25.3754    8.2305   33.6562 O.2     1  UNL1       -0.2866
     42 O         -23.7690    2.5785   30.4900 O.2     1  UNL1       -0.2733
     43 C         -23.4932    0.7217   27.1444 C.3     1  UNL1        0.1274
@<TRIPOS>BOND
     1     2     7    1
     2     2     1    1
     3     3     2    2
     4     4     3    1
     5     4     5    2
     6     5     6    1
     7     6     7    2
     8     8     1    1
     9     8     9    1
    10     8    12    1
    11     9    37    1
    12     9    10    1
    13    10    11    1
    14    12    11    1
    15    13    30    1
    16    14    13    1
    17    14    15    1
    18    15    18    2
    19    16    17    1
    20    16    15    1
    21    19    14    2
    22    20    21    2
    23    20    19    1
    24    21    26    1
    25    22    21    1
    26    23    22    1
    27    24    23    1
    28    24    25    1
    29    26    27    1
    30    26    13    1
    31    28    32    1
    32    29    34    1
    33    30    43    1
    34    30    31    1
    35    31    39    1
    36    32    41    1
    37    32    35    2
    38    34    40    2
    39    36    28    2
    40    36    34    1
    41    37    29    1
    42    38    33    3
    43    39    42    2
    44    39    37    1
    45    40    35    1
    46    43    38    1
