@<TRIPOS>MOLECULE
outputs/IAG933/test6/raw/output_432_IAG933_linker_design_.xyz
 47 53 0 0 0
SMALL
GASTEIGER

@<TRIPOS>ATOM
      1 C         -24.8550   -1.0120   30.1430 C.3     1  UNL1        0.0438
      2 C         -24.9730   -2.5050   29.7880 C.2     1  UNL1       -0.0208
      3 C         -23.9060   -3.1730   29.1460 C.2     1  UNL1       -0.0042
      4 C         -23.9890   -4.5490   28.8530 C.2     1  UNL1       -0.0003
      5 C         -25.1370   -5.2800   29.2050 C.2     1  UNL1       -0.0000
      6 C         -26.2320   -4.6110   29.7840 C.2     1  UNL1       -0.0003
      7 C         -26.1550   -3.2320   30.0650 C.2     1  UNL1       -0.0042
      8 C         -25.3870   -0.6790   31.5710 C.3     1  UNL1        0.0795
      9 C         -25.1890    0.7730   32.0280 C.3     1  UNL1        0.0464
     10 C         -25.3360    0.6840   33.5440 C.3     1  UNL1        0.0227
     11 C         -24.8290   -0.7150   33.9050 C.3     1  UNL1        0.0888
     12 N         -24.7580   -1.4810   32.6460 N.3     1  UNL1       -0.2190
     13 C         -25.6880    1.6140   26.4610 C.2     1  UNL1        0.0386
     14 C         -26.2500    2.9200   26.3950 C.2     1  UNL1        0.0743
     15 C         -25.6420    4.0930   27.1230 C.2     1  UNL1        0.2662
     16 N         -25.6140    5.2520   26.4490 N.am    1  UNL1       -0.1997
     17 C         -25.0260    6.4790   26.9630 C.3     1  UNL1        0.1388
     18 O         -25.1430    3.9660   28.2430 O.2     1  UNL1       -0.2683
     19 C         -27.4380    3.0910   25.6450 C.2     1  UNL1        0.1065
     20 N         -28.0750    2.0890   25.0030 N.2     1  UNL1       -0.2081
     21 C         -27.5430    0.8490   25.0790 C.2     1  UNL1        0.2530
     22 O         -28.1930   -0.2080   24.4770 O.2     1  UNL1       -0.4558
     23 C         -29.4600    0.0050   23.8660 C.3     1  UNL1        0.2426
     24 C         -30.0650   -1.3770   23.5730 C.3     1  UNL1        0.2292
     25 O         -30.7290   -1.8780   24.7210 O.3     1  UNL1       -0.2162
     26 C         -26.3540    0.5760   25.7770 C.2     1  UNL1        0.1908
     27 F         -25.8600   -0.6810   25.7950 F       1  UNL1       -0.1995
     28 C         -26.4458    5.7617   30.7478 C.3     1  UNL1        0.1037
     29 C         -22.6200    1.6507   28.9816 C.3     1  UNL1        0.0778
     30 C         -27.6453    4.6431   33.4063 C.3     1  UNL1        0.1276
     31 C         -28.7314    5.6769   33.9399 C.3     1  UNL1        0.1816
     32 N         -28.3102    7.1864   34.4572 N.3     1  UNL1       -0.1121
     33 O         -25.8041    6.1240   32.7761 O.3     1  UNL1       -0.2822
     34 C         -27.0144    4.4860   32.4591 C.3     1  UNL1        0.1324
     35 O         -22.0987    1.8707   26.5175 O.2     1  UNL1       -0.2942
     36 C         -25.0595    5.7159   30.6398 C.3     1  UNL1        0.0540
     37 O         -25.1738    3.1565   31.2633 O.3     1  UNL1       -0.3532
     38 N         -29.1310    4.7969   32.9163 N.3     1  UNL1       -0.1966
     39 C         -22.0095    0.3455   29.5272 C.3     1  UNL1        0.0094
     40 C         -22.9101    1.5867   27.4333 C.2     1  UNL1        0.1715
     41 C         -24.9381    1.8852   30.9400 C.3     1  UNL1        0.1329
     42 C         -25.6678    3.8104   32.2875 C.3     1  UNL1        0.1625
     43 C         -24.2735    1.7013   29.6563 C.3     1  UNL1        0.1076
     44 N         -25.0566    1.1796   28.6777 N.3     1  UNL1       -0.2060
     45 C         -24.4105    1.2752   27.2148 C.3     1  UNL1        0.1546
     46 N         -26.9498    5.7556   31.9965 N.3     1  UNL1       -0.1633
     47 C         -24.9515    5.2123   32.1091 C.3     1  UNL1        0.1674
@<TRIPOS>BOND
     1     2     7    1
     2     2     1    1
     3     3     2    2
     4     4     3    1
     5     4     5    2
     6     5     6    1
     7     6     7    2
     8     8     1    1
     9     8     9    1
    10     8    12    1
    11     9    41    1
    12     9    10    1
    13    10    11    1
    14    12    11    1
    15    14    13    1
    16    14    15    1
    17    15    18    2
    18    16    17    1
    19    16    15    1
    20    19    14    2
    21    20    21    2
    22    20    19    1
    23    21    26    1
    24    22    21    1
    25    23    22    1
    26    24    23    1
    27    24    25    1
    28    26    27    1
    29    26    13    2
    30    29    39    1
    31    29    43    1
    32    30    38    1
    33    30    31    1
    34    31    32    1
    35    34    30    1
    36    35    40    2
    37    36    28    1
    38    38    31    1
    39    40    29    1
    40    41    37    1
    41    42    37    1
    42    42    34    1
    43    43    41    1
    44    44    43    1
    45    45    13    1
    46    45    40    1
    47    45    44    1
    48    46    28    1
    49    46    34    1
    50    46    33    1
    51    47    36    1
    52    47    42    1
    53    47    33    1
