@<TRIPOS>MOLECULE
No_4322-gen_results/8p0m/2024-11-27-11-27-31/
 17 18 0 0 0
SMALL
GASTEIGER

@<TRIPOS>ATOM
      1 C         -28.0162   -0.8135   28.8779 C.ar    1  UNL1        0.0066
      2 C         -28.4690   -0.7850   29.8287 C.ar    1  UNL1        0.0798
      3 C         -27.0871    0.2903   28.6377 C.ar    1  UNL1        0.0006
      4 C         -26.8317    1.2487   29.5869 C.ar    1  UNL1        0.0095
      5 C         -29.4442   -1.9481   30.1840 C.2     1  UNL1        0.3878
      6 C         -27.4956    1.1303   30.8222 C.ar    1  UNL1        0.0005
      7 C         -28.3376    0.0364   31.0331 C.ar    1  UNL1        0.0066
      8 O         -30.3927   -1.8339   29.8638 O.co2   1  UNL1       -0.2406
      9 O         -28.9097   -3.0039   30.8382 O.co2   1  UNL1       -0.2406
     10 C         -26.3154    0.4398   27.3445 C.ar    1  UNL1        0.0033
     11 C         -25.2525    1.1260   27.2337 C.ar    1  UNL1        0.0422
     12 C         -24.9823    2.1175   28.2770 C.ar    1  UNL1        0.2020
     13 C         -25.6432    2.1043   29.4589 C.ar    1  UNL1        0.1186
     14 O         -23.8788    2.9370   28.0077 O.3     1  UNL1       -0.2863
     15 C         -25.2779    3.0900   30.5128 C.2     1  UNL1        0.3909
     16 O         -25.4372    4.2438   30.4844 O.co2   1  UNL1       -0.2404
     17 O         -24.7653    2.4447   31.6315 O.co2   1  UNL1       -0.2404
@<TRIPOS>BOND
     1     2     5    1
     2     5     8   ar
     3     5     9   ar
     4    12    14    1
     5    13    15    1
     6    15    16   ar
     7    15    17   ar
     8     4    13   ar
     9    13    12   ar
    10    12    11   ar
    11    11    10   ar
    12    10     3   ar
    13     1     2   ar
    14     2     7   ar
    15     7     6   ar
    16     6     4   ar
    17     4     3   ar
    18     3     1   ar
