@<TRIPOS>MOLECULE
outputs/IAG933/test6/raw/output_4323_IAG933_linker_design_.xyz
 46 50 0 0 0
SMALL
GASTEIGER

@<TRIPOS>ATOM
      1 C         -24.8550   -1.0120   30.1430 C.3     1  UNL1        0.0626
      2 C         -24.9730   -2.5050   29.7880 C.2     1  UNL1       -0.0191
      3 C         -23.9060   -3.1730   29.1460 C.2     1  UNL1       -0.0042
      4 C         -23.9890   -4.5490   28.8530 C.2     1  UNL1       -0.0003
      5 C         -25.1370   -5.2800   29.2050 C.2     1  UNL1       -0.0000
      6 C         -26.2320   -4.6110   29.7840 C.2     1  UNL1       -0.0003
      7 C         -26.1550   -3.2320   30.0650 C.2     1  UNL1       -0.0042
      8 C         -25.3870   -0.6790   31.5710 C.3     1  UNL1        0.0788
      9 C         -25.1890    0.7730   32.0280 C.3     1  UNL1        0.0193
     10 C         -25.3360    0.6840   33.5440 C.3     1  UNL1        0.0202
     11 C         -24.8290   -0.7150   33.9050 C.3     1  UNL1        0.0887
     12 N         -24.7580   -1.4810   32.6460 N.3     1  UNL1       -0.2191
     13 C         -25.6880    1.6140   26.4610 C.2     1  UNL1        0.0399
     14 C         -26.2500    2.9200   26.3950 C.2     1  UNL1        0.0766
     15 C         -25.6420    4.0930   27.1230 C.2     1  UNL1        0.2664
     16 N         -25.6140    5.2520   26.4490 N.am    1  UNL1       -0.1997
     17 C         -25.0260    6.4790   26.9630 C.3     1  UNL1        0.1388
     18 O         -25.1430    3.9660   28.2430 O.2     1  UNL1       -0.2683
     19 C         -27.4380    3.0910   25.6450 C.2     1  UNL1        0.1067
     20 N         -28.0750    2.0890   25.0030 N.2     1  UNL1       -0.2081
     21 C         -27.5430    0.8490   25.0790 C.2     1  UNL1        0.2533
     22 O         -28.1930   -0.2080   24.4770 O.2     1  UNL1       -0.4558
     23 C         -29.4600    0.0050   23.8660 C.3     1  UNL1        0.2426
     24 C         -30.0650   -1.3770   23.5730 C.3     1  UNL1        0.2292
     25 O         -30.7290   -1.8780   24.7210 O.3     1  UNL1       -0.2162
     26 C         -26.3540    0.5760   25.7770 C.2     1  UNL1        0.1931
     27 F         -25.8600   -0.6810   25.7950 F       1  UNL1       -0.1992
     28 N         -26.8354    0.3807   29.1121 N.am    1  UNL1       -0.1852
     29 C         -28.0593    0.1848   29.7185 C.2     1  UNL1        0.3235
     30 O         -28.1883   -0.6998   30.5464 O.2     1  UNL1       -0.2508
     31 C         -31.3209    2.9495   29.1556 C.3     1  UNL1        0.0018
     32 C         -29.0525    2.3877   29.9046 C.3     1  UNL1        0.0950
     33 F         -22.9497    2.1296   25.5580 F       1  UNL1       -0.2056
     34 C         -23.2817    1.5697   26.7617 C.2     1  UNL1        0.1575
     35 C         -31.7632    2.0825   27.9582 C.3     1  UNL1        0.0018
     36 C         -23.0890    0.5599   28.6924 C.2     1  UNL1        0.2097
     37 C         -29.8602    3.3979   29.0667 C.3     1  UNL1        0.0216
     38 F         -21.0198    1.3414   27.7208 F       1  UNL1       -0.2215
     39 C         -30.7355    0.9744   27.6276 C.3     1  UNL1        0.0216
     40 O         -22.5281   -0.2189   29.5449 O.2     1  UNL1       -0.2883
     41 C         -30.3754    0.3001   28.9475 C.3     1  UNL1        0.0950
     42 C         -24.4830    0.6610   28.3956 C.2     1  UNL1        0.0378
     43 C         -24.5157    1.2931   27.2531 C.2     1  UNL1        0.0295
     44 N         -29.1210    1.0177   29.5207 N.am    1  UNL1       -0.2629
     45 C         -22.3566    1.1448   27.7883 C.3     1  UNL1        0.2707
     46 C         -25.4859   -0.1668   29.0326 C.3     1  UNL1        0.1272
@<TRIPOS>BOND
     1     1    46    1
     2     2     7    1
     3     2     1    1
     4     3     2    2
     5     4     3    1
     6     4     5    2
     7     5     6    1
     8     6     7    2
     9     8     1    1
    10     8     9    1
    11     8    12    1
    12     9    10    1
    13    10    11    1
    14    12    11    1
    15    13    43    1
    16    14    13    1
    17    14    15    1
    18    15    18    2
    19    16    17    1
    20    16    15    1
    21    19    14    2
    22    20    21    2
    23    20    19    1
    24    21    26    1
    25    22    21    1
    26    23    22    1
    27    24    23    1
    28    24    25    1
    29    26    27    1
    30    26    13    2
    31    28    29    1
    32    29    30    2
    33    33    34    1
    34    34    43    2
    35    34    45    1
    36    35    31    1
    37    36    40    1
    38    37    31    1
    39    37    32    1
    40    39    35    1
    41    39    41    1
    42    41    44    1
    43    42    36    2
    44    42    46    1
    45    43    42    1
    46    44    29   am
    47    44    32    1
    48    45    38    1
    49    45    36    1
    50    46    28    1
