@<TRIPOS>MOLECULE
No_4328-gen_results/8p0m/2024-11-27-11-27-31/
 23 24 0 0 0
SMALL
GASTEIGER

@<TRIPOS>ATOM
      1 C         -28.0162   -0.8135   28.8779 C.ar    1  UNL1        0.0541
      2 C         -27.0636   -0.1190   28.6079 C.ar    1  UNL1        0.0045
      3 C         -26.9716    0.7139   27.5060 C.ar    1  UNL1        0.0004
      4 C         -28.1053    0.7744   26.6421 C.ar    1  UNL1        0.0066
      5 C         -29.2008    0.1044   27.0527 C.ar    1  UNL1        0.0799
      6 C         -28.0219   -1.5899   30.0879 C.2     1  UNL1        0.2530
      7 C         -29.1640   -0.6394   28.1484 C.ar    1  UNL1        0.0111
      8 N         -28.8376   -1.8977   30.7662 N.am    1  UNL1       -0.2469
      9 O         -26.7856   -1.9477   30.5474 O.2     1  UNL1       -0.2696
     10 C         -30.2508   -1.5519   30.5150 C.ar    1  UNL1        0.0544
     11 C         -30.3815    0.2120   26.1633 C.2     1  UNL1        0.3878
     12 O         -31.2958   -0.3586   26.3559 O.co2   1  UNL1       -0.2406
     13 O         -30.1857    0.7282   24.9371 O.co2   1  UNL1       -0.2406
     14 C         -30.8219   -0.7073   31.2934 C.ar    1  UNL1        0.0149
     15 C         -32.1119   -0.1467   31.0061 C.ar    1  UNL1        0.0013
     16 C         -32.8093   -0.7402   29.9352 C.ar    1  UNL1        0.0001
     17 C         -32.2592   -1.7564   29.2197 C.ar    1  UNL1        0.0013
     18 C         -30.9551   -2.1092   29.4767 C.ar    1  UNL1        0.0149
     19 C         -28.8816   -2.7782   31.9899 C.3     1  UNL1        0.2018
     20 C         -29.1116   -2.1336   33.2126 C.3     1  UNL1        0.4160
     21 F         -28.3247   -2.5826   34.1320 F       1  UNL1       -0.1682
     22 F         -29.0098   -0.7899   33.1387 F       1  UNL1       -0.1682
     23 F         -30.4167   -2.4258   33.5827 F       1  UNL1       -0.1682
@<TRIPOS>BOND
     1     1     6    1
     2     6     8   am
     3     6     9    2
     4     8    10    1
     5     5    11    1
     6    11    12   ar
     7    11    13   ar
     8     8    19    1
     9    19    20    1
    10    20    21    1
    11    20    22    1
    12    20    23    1
    13     1     2   ar
    14     2     3   ar
    15     3     4   ar
    16     4     5   ar
    17     5     7   ar
    18     7     1   ar
    19    10    14   ar
    20    14    15   ar
    21    15    16   ar
    22    16    17   ar
    23    17    18   ar
    24    18    10   ar
