@<TRIPOS>MOLECULE
No_4329-gen_results/8p0m/2024-11-27-11-27-31/
 8 7 0 0 0
SMALL
GASTEIGER

@<TRIPOS>ATOM
      1 F         -28.0727   -1.2542   28.5316 F       1  UNL1       -0.1627
      2 C         -27.0607   -0.6291   28.8721 C.3     1  UNL1        0.4881
      3 F         -26.1267   -1.0777   29.2000 F       1  UNL1       -0.1627
      4 C         -26.8088    0.4463   27.7631 C.3     1  UNL1        0.4881
      5 F         -27.3916    0.2232   26.8479 F       1  UNL1       -0.1627
      6 F         -27.2555    1.7147   28.3323 F       1  UNL1       -0.1627
      7 F         -25.4983    0.5400   27.6597 F       1  UNL1       -0.1627
      8 F         -27.4640    0.0293   30.0581 F       1  UNL1       -0.1627
@<TRIPOS>BOND
     1     1     2    1
     2     2     3    1
     3     2     4    1
     4     4     5    1
     5     4     6    1
     6     4     7    1
     7     2     8    1
