@<TRIPOS>MOLECULE
outputs/IAG933/test6/raw/output_4330_IAG933_linker_design_.xyz
 40 43 0 0 0
SMALL
GASTEIGER

@<TRIPOS>ATOM
      1 C         -24.8550   -1.0120   30.1430 C.3     1  UNL1        0.0655
      2 C         -24.9730   -2.5050   29.7880 C.2     1  UNL1       -0.0188
      3 C         -23.9060   -3.1730   29.1460 C.2     1  UNL1       -0.0042
      4 C         -23.9890   -4.5490   28.8530 C.2     1  UNL1       -0.0003
      5 C         -25.1370   -5.2800   29.2050 C.2     1  UNL1       -0.0000
      6 C         -26.2320   -4.6110   29.7840 C.2     1  UNL1       -0.0003
      7 C         -26.1550   -3.2320   30.0650 C.2     1  UNL1       -0.0042
      8 C         -25.3870   -0.6790   31.5710 C.3     1  UNL1        0.0792
      9 C         -25.1890    0.7730   32.0280 C.3     1  UNL1        0.0193
     10 C         -25.3360    0.6840   33.5440 C.3     1  UNL1        0.0202
     11 C         -24.8290   -0.7150   33.9050 C.3     1  UNL1        0.0887
     12 N         -24.7580   -1.4810   32.6460 N.3     1  UNL1       -0.2191
     13 C         -25.6880    1.6140   26.4610 C.3     1  UNL1        0.0714
     14 C         -26.2500    2.9200   26.3950 C.2     1  UNL1        0.0548
     15 C         -25.6420    4.0930   27.1230 C.2     1  UNL1        0.2624
     16 N         -25.6140    5.2520   26.4490 N.am    1  UNL1       -0.2000
     17 C         -25.0260    6.4790   26.9630 C.3     1  UNL1        0.1388
     18 O         -25.1430    3.9660   28.2430 O.2     1  UNL1       -0.2687
     19 C         -27.4380    3.0910   25.6450 C.2     1  UNL1        0.1021
     20 N         -28.0750    2.0890   25.0030 N.2     1  UNL1       -0.2119
     21 C         -27.5430    0.8490   25.0790 C.2     1  UNL1        0.2341
     22 O         -28.1930   -0.2080   24.4770 O.2     1  UNL1       -0.4585
     23 C         -29.4600    0.0050   23.8660 C.3     1  UNL1        0.2423
     24 C         -30.0650   -1.3770   23.5730 C.3     1  UNL1        0.2292
     25 O         -30.7290   -1.8780   24.7210 O.3     1  UNL1       -0.2162
     26 C         -26.3540    0.5760   25.7770 C.3     1  UNL1        0.2400
     27 F         -25.8600   -0.6810   25.7950 F       1  UNL1       -0.2269
     28 C         -29.7485   -0.0203   28.8712 C.3     1  UNL1        0.4285
     29 CL        -22.2704    2.2656   25.0553 Cl      1  UNL1       -0.1150
     30 C         -24.2375    1.2444   26.8347 C.3     1  UNL1        0.0248
     31 C         -25.1352   -0.1381   28.8748 C.3     1  UNL1        0.1205
     32 C         -22.9978    2.1458   26.7203 C.3     1  UNL1        0.0804
     33 C         -28.4748   -0.8777   29.2623 C.3     1  UNL1        0.1318
     34 C         -21.9354    1.5902   27.6899 C.3     1  UNL1        0.0163
     35 C         -22.6376    0.4493   28.4952 C.3     1  UNL1        0.0037
     36 C         -24.1277    0.7983   28.3350 C.3     1  UNL1        0.0292
     37 O         -26.4644    0.5886   29.1079 O.3     1  UNL1       -0.3556
     38 O         -30.0366   -0.4839   27.5156 O.2     1  UNL1       -0.2670
     39 O         -29.3979    1.3820   29.1706 O.2     1  UNL1       -0.2670
     40 C         -27.4117   -0.3190   28.3006 C.3     1  UNL1        0.1502
@<TRIPOS>BOND
     1     1    31    1
     2     2     7    1
     3     2     1    1
     4     3     2    2
     5     4     3    1
     6     4     5    2
     7     5     6    1
     8     6     7    2
     9     8     1    1
    10     8     9    1
    11     8    12    1
    12     9    10    1
    13    10    11    1
    14    12    11    1
    15    13    14    1
    16    14    15    1
    17    15    18    2
    18    16    17    1
    19    16    15    1
    20    19    14    2
    21    20    21    2
    22    20    19    1
    23    21    26    1
    24    22    21    1
    25    23    22    1
    26    24    23    1
    27    24    25    1
    28    26    27    1
    29    26    13    1
    30    28    39    1
    31    28    33    1
    32    30    13    1
    33    30    36    1
    34    31    37    1
    35    32    29    1
    36    32    30    1
    37    32    34    1
    38    34    35    1
    39    36    35    1
    40    36    31    1
    41    38    28    1
    42    40    37    1
    43    40    33    1
