@<TRIPOS>MOLECULE
No_4331-gen_results/8p0m/2024-11-27-11-27-31/
 35 37 0 0 0
SMALL
GASTEIGER

@<TRIPOS>ATOM
      1 C         -28.0162   -0.8135   28.8779 C.ar    1  UNL1        0.0047
      2 C         -27.0636   -0.1189   28.6079 C.ar    1  UNL1        0.0065
      3 C         -25.7923   -0.4302   29.0761 C.ar    1  UNL1        0.0002
      4 C         -24.5456    0.3494   28.8225 C.ar    1  UNL1        0.0039
      5 C         -24.6586    1.4196   27.8878 C.ar    1  UNL1        0.0716
      6 C         -25.9471    1.6811   27.3792 C.ar    1  UNL1        0.0104
      7 C         -27.0439    0.9739   27.6871 C.ar    1  UNL1        0.0797
      8 C         -28.0241   -1.6475   30.1262 C.ar    1  UNL1        0.0536
      9 C         -26.7278   -2.0846   30.5807 C.ar    1  UNL1        0.0045
     10 C         -25.5915   -1.4064   30.1489 C.ar    1  UNL1        0.0001
     11 C         -23.4486    2.1675   27.5241 C.3     1  UNL1        0.4186
     12 F         -22.7755    1.9225   26.6314 F       1  UNL1       -0.1659
     13 F         -23.9025    3.5297   27.3438 F       1  UNL1       -0.1659
     14 F         -22.6808    2.3605   28.6762 F       1  UNL1       -0.1659
     15 C         -29.1703   -2.4660   30.5236 C.2     1  UNL1        0.2492
     16 O         -29.1685   -3.6461   30.7511 O.2     1  UNL1       -0.2699
     17 N         -30.1942   -1.6975   31.0385 N.am    1  UNL1       -0.2734
     18 C         -31.4070   -2.3669   31.5830 C.3     1  UNL1        0.0760
     19 C         -28.3218    1.3849   27.0178 C.2     1  UNL1        0.3877
     20 O         -29.0788    2.1069   27.4878 O.co2   1  UNL1       -0.2406
     21 O         -28.3434    0.9900   25.7543 O.co2   1  UNL1       -0.2406
     22 C         -30.2910   -0.2419   30.9884 C.3     1  UNL1        0.1250
     23 C         -30.2467    0.3721   32.2867 C.ar    1  UNL1        0.0509
     24 C         -30.0554    1.3229   32.5331 C.ar    1  UNL1        0.0036
     25 C         -29.9786    1.9214   33.9287 C.ar    1  UNL1        0.0206
     26 C         -30.2763    1.0355   34.9334 C.ar    1  UNL1        0.1020
     27 C         -30.4750   -0.5703   33.4436 C.ar    1  UNL1        0.2224
     28 N         -30.4547   -0.1434   34.6784 N.ar    1  UNL1       -0.2104
     29 C         -31.8719   -3.3038   30.8823 C.3     1  UNL1        0.0215
     30 C         -31.9575   -1.8517   32.7503 C.3     1  UNL1        0.0198
     31 O         -30.0904   -1.8037   33.4507 O.3     1  UNL1       -0.4563
     32 C         -31.8247   -2.6011   33.7580 C.3     1  UNL1        0.0016
     33 C         -29.3357   -2.4641   33.1407 C.3     1  UNL1        0.2542
     34 C         -32.7221   -2.3863   34.8674 C.3     1  UNL1        0.0001
     35 C         -31.3864   -3.9706   33.7773 C.3     1  UNL1        0.0001
@<TRIPOS>BOND
     1     5    11    1
     2    11    12    1
     3    11    13    1
     4    11    14    1
     5     8    15    1
     6    15    16    2
     7    15    17   am
     8    17    18    1
     9     7    19    1
    10    19    20   ar
    11    19    21   ar
    12    17    22    1
    13    22    23    1
    14    18    29    1
    15    18    30    1
    16    27    31    1
    17    30    32    1
    18    31    33    1
    19    32    34    1
    20    32    35    1
    21     3     4   ar
    22     4     5   ar
    23     5     6   ar
    24     6     7   ar
    25     7     2   ar
    26     1     2   ar
    27     2     3   ar
    28     3    10   ar
    29    10     9   ar
    30     9     8   ar
    31     8     1   ar
    32    23    24   ar
    33    24    25   ar
    34    25    26   ar
    35    26    28   ar
    36    28    27   ar
    37    27    23   ar
