@<TRIPOS>MOLECULE
outputs/IAG933/test6/raw/output_4335_IAG933_linker_design_.xyz
 44 50 0 0 0
SMALL
GASTEIGER

@<TRIPOS>ATOM
      1 C         -24.8550   -1.0120   30.1430 C.3     1  UNL1        0.1116
      2 C         -24.9730   -2.5050   29.7880 C.2     1  UNL1       -0.0030
      3 C         -23.9060   -3.1730   29.1460 C.2     1  UNL1       -0.0026
      4 C         -23.9890   -4.5490   28.8530 C.2     1  UNL1       -0.0003
      5 C         -25.1370   -5.2800   29.2050 C.2     1  UNL1       -0.0000
      6 C         -26.2320   -4.6110   29.7840 C.2     1  UNL1       -0.0003
      7 C         -26.1550   -3.2320   30.0650 C.2     1  UNL1       -0.0026
      8 C         -25.3870   -0.6790   31.5710 C.3     1  UNL1        0.0950
      9 C         -25.1890    0.7730   32.0280 C.3     1  UNL1        0.0209
     10 C         -25.3360    0.6840   33.5440 C.3     1  UNL1        0.0203
     11 C         -24.8290   -0.7150   33.9050 C.3     1  UNL1        0.0888
     12 N         -24.7580   -1.4810   32.6460 N.3     1  UNL1       -0.2174
     13 C         -25.6880    1.6140   26.4610 C.2     1  UNL1        0.0215
     14 C         -26.2500    2.9200   26.3950 C.2     1  UNL1        0.0729
     15 C         -25.6420    4.0930   27.1230 C.2     1  UNL1        0.2661
     16 N         -25.6140    5.2520   26.4490 N.am    1  UNL1       -0.1997
     17 C         -25.0260    6.4790   26.9630 C.3     1  UNL1        0.1388
     18 O         -25.1430    3.9660   28.2430 O.2     1  UNL1       -0.2683
     19 C         -27.4380    3.0910   25.6450 C.2     1  UNL1        0.1064
     20 N         -28.0750    2.0890   25.0030 N.2     1  UNL1       -0.2081
     21 C         -27.5430    0.8490   25.0790 C.2     1  UNL1        0.2530
     22 O         -28.1930   -0.2080   24.4770 O.2     1  UNL1       -0.4558
     23 C         -29.4600    0.0050   23.8660 C.3     1  UNL1        0.2426
     24 C         -30.0650   -1.3770   23.5730 C.3     1  UNL1        0.2292
     25 O         -30.7290   -1.8780   24.7210 O.3     1  UNL1       -0.2162
     26 C         -26.3540    0.5760   25.7770 C.2     1  UNL1        0.1895
     27 F         -25.8600   -0.6810   25.7950 F       1  UNL1       -0.1996
     28 O         -23.6915    3.0132   30.1355 O.2     1  UNL1       -0.2938
     29 O         -21.4004    1.8166   26.2681 O.2     1  UNL1       -0.4751
     30 N         -24.9431    0.0744   29.1602 N.pl3   1  UNL1       -0.2996
     31 C         -28.7128    0.0233   29.1905 C.2     1  UNL1        0.1970
     32 C         -22.6400    1.8790   25.5551 C.3     1  UNL1        0.2303
     33 C         -23.1781    1.4493   26.7442 C.2     1  UNL1        0.0350
     34 C         -23.9513    0.8278   28.8362 C.3     1  UNL1        0.1306
     35 C         -28.9474    1.2532   29.8098 C.2     1  UNL1        0.0421
     36 C         -24.3503    1.1328   27.2737 C.3     1  UNL1        0.0734
     37 C         -26.6169    1.8402   29.5364 C.2     1  UNL1        0.0147
     38 C         -26.3820    0.4879   29.0704 C.2     1  UNL1        0.0515
     39 C         -22.2384    0.8125   28.9779 C.3     1  UNL1        0.1391
     40 C         -27.8978    2.1780   29.9828 C.2     1  UNL1        0.0045
     41 O         -29.7457   -0.7428   29.0378 O.2     1  UNL1       -0.2865
     42 C         -23.6574    1.9966   29.6177 C.2     1  UNL1        0.1767
     43 C         -21.8355    1.3544   27.5439 C.2     1  UNL1        0.1210
     44 C         -27.4228   -0.3798   28.7212 C.2     1  UNL1        0.0565
@<TRIPOS>BOND
     1     1    30    1
     2     2     7    1
     3     2     1    1
     4     3     2    2
     5     4     3    1
     6     4     5    2
     7     5     6    1
     8     6     7    2
     9     8     1    1
    10     8     9    1
    11     8    12    1
    12     9    10    1
    13    10    11    1
    14    12    11    1
    15    14    13    1
    16    14    15    1
    17    15    18    2
    18    16    17    1
    19    16    15    1
    20    19    14    2
    21    20    21    2
    22    20    19    1
    23    21    26    1
    24    22    21    1
    25    23    22    1
    26    24    23    1
    27    24    25    1
    28    26    27    1
    29    26    13    2
    30    29    43    1
    31    31    35    1
    32    32    29    1
    33    32    33    1
    34    33    36    1
    35    33    43    2
    36    34    39    1
    37    34    30    1
    38    34    42    1
    39    35    40    2
    40    36    13    1
    41    36    34    1
    42    37    40    1
    43    38    30    1
    44    38    37    2
    45    39    43    1
    46    39    42    1
    47    41    31    1
    48    42    28    2
    49    44    38    1
    50    44    31    2
