@<TRIPOS>MOLECULE
No_4337-gen_results/8p0m/2024-11-27-11-27-31/
 35 36 0 0 0
SMALL
GASTEIGER

@<TRIPOS>ATOM
      1 C         -28.0162   -0.8135   28.8779 C.3     1  UNL1        0.0341
      2 C         -28.4690   -0.7850   29.8287 C.ar    1  UNL1        0.0127
      3 C         -26.5042   -0.7777   28.8766 C.3     1  UNL1        0.0319
      4 C         -25.9500    0.1157   29.4052 C.2     1  UNL1       -0.0101
      5 C         -29.9626   -0.8611   29.9061 C.ar    1  UNL1        0.1410
      6 C         -24.4666    0.2794   29.3703 C.2     1  UNL1        0.0903
      7 C         -23.8872    1.5261   29.2774 C.3     1  UNL1        0.3790
      8 C         -24.1831    2.1362   28.1843 C.3     1  UNL1        0.4599
      9 F         -23.0969    2.4607   27.4808 F       1  UNL1       -0.1647
     10 F         -24.7758    3.4395   28.3880 F       1  UNL1       -0.1647
     11 F         -25.0500    1.4674   27.3754 F       1  UNL1       -0.1647
     12 C         -30.6164   -1.4413   30.9399 C.ar    1  UNL1        0.0335
     13 C         -29.9430   -1.5714   32.1391 C.ar    1  UNL1       -0.0113
     14 C         -28.5711   -1.4389   32.2286 C.ar    1  UNL1       -0.0038
     15 C         -27.8543   -1.1518   31.1092 C.ar    1  UNL1       -0.0015
     16 F         -22.6084    1.6192   29.6485 F       1  UNL1       -0.1890
     17 F         -24.4625    2.2297   30.4975 F       1  UNL1       -0.1890
     18 O         -30.6036   -0.6961   28.7729 O.3     1  UNL1       -0.4536
     19 C         -31.2688    0.4678   28.5339 C.ar    1  UNL1        0.1516
     20 C         -31.6003    1.1973   29.2617 C.ar    1  UNL1        0.0377
     21 C         -31.7264    0.5161   27.0872 C.ar    1  UNL1        0.1142
     22 C         -32.3228    2.4130   29.0235 C.ar    1  UNL1        0.0031
     23 C         -32.4503    1.6567   26.7523 C.ar    1  UNL1        0.0097
     24 C         -32.7855    2.6002   27.7132 C.ar    1  UNL1        0.0004
     25 N         -23.9246   -0.6007   30.5430 N.pl3   1  UNL1       -0.3033
     26 C         -23.9605   -0.3415   31.6171 C.3     1  UNL1        0.1121
     27 C         -23.3710   -1.8494   30.0269 C.3     1  UNL1        0.1121
     28 C         -31.3744   -0.4537   26.0981 C.2     1  UNL1        0.3907
     29 O         -31.7615   -0.4617   25.1757 O.co2   1  UNL1       -0.2404
     30 O         -30.5062   -1.4096   26.4796 O.co2   1  UNL1       -0.2404
     31 C         -30.7487   -1.9666   33.3533 C.3     1  UNL1        0.0662
     32 C         -31.0187   -0.9889   34.2160 C.2     1  UNL1       -0.0177
     33 C         -31.7835   -1.2763   35.2868 C.2     1  UNL1       -0.0042
     34 C         -31.8205   -2.8880   33.0200 C.2     1  UNL1       -0.0177
     35 C         -32.5930   -3.2955   34.2314 C.2     1  UNL1       -0.0042
@<TRIPOS>BOND
     1     1     2    1
     2     1     3    1
     3     3     4    1
     4     4     6    2
     5     6     7    1
     6     7     8    1
     7     8     9    1
     8     8    10    1
     9     8    11    1
    10     7    16    1
    11     7    17    1
    12     5    18    1
    13    18    19    1
    14     6    25    1
    15    25    26    1
    16    25    27    1
    17    21    28    1
    18    28    29   ar
    19    28    30   ar
    20    13    31    1
    21    31    32    1
    22    32    33    2
    23    31    34    1
    24    34    35    2
    25    19    20   ar
    26    20    22   ar
    27    22    24   ar
    28    24    23   ar
    29    23    21   ar
    30    21    19   ar
    31     2     5   ar
    32     5    12   ar
    33    12    13   ar
    34    13    14   ar
    35    14    15   ar
    36    15     2   ar
