@<TRIPOS>MOLECULE
outputs/IAG933/test6/raw/output_4338_IAG933_linker_design_.xyz
 46 48 0 0 0
SMALL
GASTEIGER

@<TRIPOS>ATOM
      1 C         -24.8550   -1.0120   30.1430 C.3     1  UNL1        0.0963
      2 C         -24.9730   -2.5050   29.7880 C.2     1  UNL1       -0.0064
      3 C         -23.9060   -3.1730   29.1460 C.2     1  UNL1       -0.0029
      4 C         -23.9890   -4.5490   28.8530 C.2     1  UNL1       -0.0003
      5 C         -25.1370   -5.2800   29.2050 C.2     1  UNL1       -0.0000
      6 C         -26.2320   -4.6110   29.7840 C.2     1  UNL1       -0.0003
      7 C         -26.1550   -3.2320   30.0650 C.2     1  UNL1       -0.0029
      8 C         -25.3870   -0.6790   31.5710 C.3     1  UNL1        0.0916
      9 C         -25.1890    0.7730   32.0280 C.3     1  UNL1        0.0206
     10 C         -25.3360    0.6840   33.5440 C.3     1  UNL1        0.0203
     11 C         -24.8290   -0.7150   33.9050 C.3     1  UNL1        0.0888
     12 N         -24.7580   -1.4810   32.6460 N.3     1  UNL1       -0.2178
     13 C         -25.6880    1.6140   26.4610 C.3     1  UNL1        0.0711
     14 C         -26.2500    2.9200   26.3950 C.2     1  UNL1        0.0548
     15 C         -25.6420    4.0930   27.1230 C.2     1  UNL1        0.2624
     16 N         -25.6140    5.2520   26.4490 N.am    1  UNL1       -0.2000
     17 C         -25.0260    6.4790   26.9630 C.3     1  UNL1        0.1388
     18 O         -25.1430    3.9660   28.2430 O.2     1  UNL1       -0.2687
     19 C         -27.4380    3.0910   25.6450 C.2     1  UNL1        0.1021
     20 N         -28.0750    2.0890   25.0030 N.2     1  UNL1       -0.2119
     21 C         -27.5430    0.8490   25.0790 C.2     1  UNL1        0.2341
     22 O         -28.1930   -0.2080   24.4770 O.2     1  UNL1       -0.4585
     23 C         -29.4600    0.0050   23.8660 C.3     1  UNL1        0.2423
     24 C         -30.0650   -1.3770   23.5730 C.3     1  UNL1        0.2292
     25 O         -30.7290   -1.8780   24.7210 O.3     1  UNL1       -0.2162
     26 C         -26.3540    0.5760   25.7770 C.3     1  UNL1        0.2400
     27 F         -25.8600   -0.6810   25.7950 F       1  UNL1       -0.2269
     28 O         -29.4543    2.7386   31.0161 O.2     1  UNL1       -0.2711
     29 C         -29.2423    1.2634   28.2268 C.2     1  UNL1        0.3180
     30 C         -24.4102   -0.2018   28.1244 C.3     1  UNL1        0.0837
     31 N         -29.4365    0.7268   32.1171 N.am    1  UNL1       -0.0874
     32 C         -24.2646    0.9689   28.3532 C.3     1  UNL1        0.0727
     33 C         -28.2197   -0.2761   29.8528 C.3     1  UNL1        0.0359
     34 S         -23.0921    1.1120   26.8594 S.3     1  UNL1       -0.0536
     35 O         -20.9837    1.6142   27.9243 O.2     1  UNL1       -0.2594
     36 C         -29.4144    0.8123   29.5855 C.3     1  UNL1        0.1553
     37 C         -25.4680    0.9516   27.4356 C.3     1  UNL1        0.0205
     38 C         -22.1178    1.0522   28.1345 C.2     1  UNL1        0.3116
     39 O         -29.5053    2.4325   27.8865 O.2     1  UNL1       -0.2586
     40 C         -30.9265    0.1998   29.4850 C.3     1  UNL1        0.0186
     41 F         -28.9731    0.3256   27.4005 F       1  UNL1       -0.1631
     42 C         -29.4035    1.5262   30.9585 C.2     1  UNL1        0.2692
     43 N         -22.0983    0.2305   29.3119 N.am    1  UNL1       -0.0778
     44 N         -25.7197   -0.3553   29.1246 N.3     1  UNL1       -0.2684
     45 C         -31.4569    0.1517   28.0917 C.3     1  UNL1        0.0010
     46 C         -26.9234    0.4760   29.5731 C.3     1  UNL1        0.0734
@<TRIPOS>BOND
     1     1    44    1
     2     2     7    1
     3     2     1    1
     4     3     2    2
     5     4     3    1
     6     4     5    2
     7     5     6    1
     8     6     7    2
     9     8     1    1
    10     8     9    1
    11     8    12    1
    12     9    10    1
    13    10    11    1
    14    12    11    1
    15    13    37    1
    16    14    13    1
    17    14    15    1
    18    15    18    2
    19    16    17    1
    20    16    15    1
    21    19    14    2
    22    20    21    2
    23    20    19    1
    24    21    26    1
    25    22    21    1
    26    23    22    1
    27    24    23    1
    28    24    25    1
    29    26    27    1
    30    26    13    1
    31    29    36    1
    32    30    32    1
    33    30    44    1
    34    32    37    1
    35    34    38    1
    36    34    32    1
    37    35    38    2
    38    36    40    1
    39    36    33    1
    40    36    42    1
    41    38    43    1
    42    39    29    2
    43    41    29    1
    44    42    28    2
    45    42    31    1
    46    44    46    1
    47    45    40    1
    48    46    33    1
