@<TRIPOS>MOLECULE
outputs/IAG933/test6/raw/output_4339_IAG933_linker_design_.xyz
 47 51 0 0 0
SMALL
GASTEIGER

@<TRIPOS>ATOM
      1 C         -24.8550   -1.0120   30.1430 C.3     1  UNL1        0.0437
      2 C         -24.9730   -2.5050   29.7880 C.2     1  UNL1       -0.0208
      3 C         -23.9060   -3.1730   29.1460 C.2     1  UNL1       -0.0042
      4 C         -23.9890   -4.5490   28.8530 C.2     1  UNL1       -0.0003
      5 C         -25.1370   -5.2800   29.2050 C.2     1  UNL1       -0.0000
      6 C         -26.2320   -4.6110   29.7840 C.2     1  UNL1       -0.0003
      7 C         -26.1550   -3.2320   30.0650 C.2     1  UNL1       -0.0042
      8 C         -25.3870   -0.6790   31.5710 C.3     1  UNL1        0.0772
      9 C         -25.1890    0.7730   32.0280 C.3     1  UNL1        0.0206
     10 C         -25.3360    0.6840   33.5440 C.3     1  UNL1        0.0203
     11 C         -24.8290   -0.7150   33.9050 C.3     1  UNL1        0.0887
     12 N         -24.7580   -1.4810   32.6460 N.3     1  UNL1       -0.2191
     13 C         -25.6880    1.6140   26.4610 C.2     1  UNL1        0.0358
     14 C         -26.2500    2.9200   26.3950 C.2     1  UNL1        0.0742
     15 C         -25.6420    4.0930   27.1230 C.2     1  UNL1        0.2662
     16 N         -25.6140    5.2520   26.4490 N.am    1  UNL1       -0.1997
     17 C         -25.0260    6.4790   26.9630 C.3     1  UNL1        0.1388
     18 O         -25.1430    3.9660   28.2430 O.2     1  UNL1       -0.2683
     19 C         -27.4380    3.0910   25.6450 C.2     1  UNL1        0.1065
     20 N         -28.0750    2.0890   25.0030 N.2     1  UNL1       -0.2081
     21 C         -27.5430    0.8490   25.0790 C.2     1  UNL1        0.2530
     22 O         -28.1930   -0.2080   24.4770 O.2     1  UNL1       -0.4558
     23 C         -29.4600    0.0050   23.8660 C.3     1  UNL1        0.2426
     24 C         -30.0650   -1.3770   23.5730 C.3     1  UNL1        0.2292
     25 O         -30.7290   -1.8780   24.7210 O.3     1  UNL1       -0.2162
     26 C         -26.3540    0.5760   25.7770 C.2     1  UNL1        0.1907
     27 F         -25.8600   -0.6810   25.7950 F       1  UNL1       -0.1995
     28 C         -27.0625    5.9207   34.7677 C.2     1  UNL1       -0.0006
     29 C         -27.5686    3.8689   32.8803 C.2     1  UNL1       -0.0259
     30 C         -28.0554    4.9801   35.0706 C.2     1  UNL1       -0.0046
     31 C         -28.3799    4.0035   34.0988 C.2     1  UNL1       -0.0260
     32 N         -26.5044    3.9081   30.2267 N.3     1  UNL1       -0.1983
     33 C         -23.8698    2.1636   30.2582 C.3     1  UNL1        0.0244
     34 C         -25.0896    2.1543   31.2355 C.3     1  UNL1        0.0349
     35 C         -22.4463    1.6837   26.9043 C.2     1  UNL1        0.2264
     36 C         -27.4613    2.6157   32.0673 C.3     1  UNL1        0.0598
     37 C         -24.6309    1.0676   27.4159 C.3     1  UNL1        0.1227
     38 C         -26.6202    2.6935   30.9601 C.3     1  UNL1        0.1397
     39 O         -21.2378    1.5069   27.1738 O.2     1  UNL1       -0.2748
     40 C         -26.8568    5.0040   32.4290 C.2     1  UNL1       -0.0089
     41 C         -26.4741    5.1788   31.0007 C.3     1  UNL1        0.1161
     42 N         -23.3646    1.3262   27.8898 N.am    1  UNL1       -0.2753
     43 C         -29.4542    3.1704   34.2628 C.3     1  UNL1        0.0307
     44 N         -27.0783    1.7466   29.9300 N.3     1  UNL1       -0.1163
     45 C         -22.9725    1.3429   29.3076 C.3     1  UNL1        0.0938
     46 C         -22.7635    2.2783   25.5065 C.3     1  UNL1        0.0948
     47 C         -26.5071    5.9460   33.4599 C.2     1  UNL1       -0.0032
@<TRIPOS>BOND
     1     2     7    1
     2     2     1    1
     3     3     2    2
     4     4     3    1
     5     4     5    2
     6     5     6    1
     7     6     7    2
     8     8     1    1
     9     8     9    1
    10     8    12    1
    11     9    34    1
    12     9    10    1
    13    10    11    1
    14    12    11    1
    15    13    37    1
    16    14    13    1
    17    14    15    1
    18    15    18    2
    19    16    17    1
    20    16    15    1
    21    19    14    2
    22    20    21    2
    23    20    19    1
    24    21    26    1
    25    22    21    1
    26    23    22    1
    27    24    23    1
    28    24    25    1
    29    26    27    1
    30    26    13    2
    31    28    30    1
    32    29    31    1
    33    31    43    1
    34    31    30    2
    35    32    38    1
    36    32    41    1
    37    34    33    1
    38    35    39    2
    39    35    42   am
    40    36    29    1
    41    37    42    1
    42    38    44    1
    43    38    34    1
    44    38    36    1
    45    40    29    2
    46    40    47    1
    47    41    40    1
    48    42    45    1
    49    45    33    1
    50    46    35    1
    51    47    28    2
