@<TRIPOS>MOLECULE
outputs/IAG933/test6/raw/output_4342_IAG933_linker_design_.xyz
 41 45 0 0 0
SMALL
GASTEIGER

@<TRIPOS>ATOM
      1 C         -24.8550   -1.0120   30.1430 C.3     1  UNL1        0.1120
      2 C         -24.9730   -2.5050   29.7880 C.2     1  UNL1       -0.0051
      3 C         -23.9060   -3.1730   29.1460 C.2     1  UNL1       -0.0029
      4 C         -23.9890   -4.5490   28.8530 C.2     1  UNL1       -0.0003
      5 C         -25.1370   -5.2800   29.2050 C.2     1  UNL1       -0.0000
      6 C         -26.2320   -4.6110   29.7840 C.2     1  UNL1       -0.0003
      7 C         -26.1550   -3.2320   30.0650 C.2     1  UNL1       -0.0029
      8 C         -25.3870   -0.6790   31.5710 C.3     1  UNL1        0.0929
      9 C         -25.1890    0.7730   32.0280 C.3     1  UNL1        0.0206
     10 C         -25.3360    0.6840   33.5440 C.3     1  UNL1        0.0203
     11 C         -24.8290   -0.7150   33.9050 C.3     1  UNL1        0.0888
     12 N         -24.7580   -1.4810   32.6460 N.3     1  UNL1       -0.2177
     13 C         -25.6880    1.6140   26.4610 C.3     1  UNL1        0.0765
     14 C         -26.2500    2.9200   26.3950 C.2     1  UNL1        0.0552
     15 C         -25.6420    4.0930   27.1230 C.2     1  UNL1        0.2625
     16 N         -25.6140    5.2520   26.4490 N.am    1  UNL1       -0.2000
     17 C         -25.0260    6.4790   26.9630 C.3     1  UNL1        0.1388
     18 O         -25.1430    3.9660   28.2430 O.2     1  UNL1       -0.2687
     19 C         -27.4380    3.0910   25.6450 C.2     1  UNL1        0.1022
     20 N         -28.0750    2.0890   25.0030 N.2     1  UNL1       -0.2119
     21 C         -27.5430    0.8490   25.0790 C.2     1  UNL1        0.2341
     22 O         -28.1930   -0.2080   24.4770 O.2     1  UNL1       -0.4585
     23 C         -29.4600    0.0050   23.8660 C.3     1  UNL1        0.2423
     24 C         -30.0650   -1.3770   23.5730 C.3     1  UNL1        0.2292
     25 O         -30.7290   -1.8780   24.7210 O.3     1  UNL1       -0.2162
     26 C         -26.3540    0.5760   25.7770 C.3     1  UNL1        0.2404
     27 F         -25.8600   -0.6810   25.7950 F       1  UNL1       -0.2269
     28 C         -26.5123   -0.1131   28.4839 C.1     1  UNL1        0.0902
     29 C         -24.7218    1.0806   27.4385 C.3     1  UNL1        0.0635
     30 N         -24.7773   -0.1124   29.1959 N.3     1  UNL1       -0.1996
     31 C         -20.9820    1.7562   27.1413 C.3     1  UNL1        0.3253
     32 N         -20.3902    0.8847   27.9857 N.2     1  UNL1       -0.0536
     33 C         -25.3793    0.6999   28.7191 C.3     1  UNL1        0.1678
     34 N         -27.3787   -0.7754   28.4398 N.1     1  UNL1       -0.1944
     35 C         -23.2528    0.9768   27.5369 C.2     1  UNL1        0.0506
     36 C         -21.3234    0.1436   28.6517 C.2     1  UNL1        0.3849
     37 C         -22.4537    0.0602   28.5198 C.3     1  UNL1        0.3327
     38 C         -23.4524    1.8694   24.8978 C.3     1  UNL1        0.2521
     39 N         -21.9381   -0.3955   29.3179 N.pl3   1  UNL1       -0.0186
     40 O         -22.9376    2.6155   26.0022 O.2     1  UNL1       -0.4717
     41 C         -22.4006    1.8221   26.9251 C.2     1  UNL1        0.1664
@<TRIPOS>BOND
     1     1    30    1
     2     2     7    1
     3     2     1    1
     4     3     2    2
     5     4     3    1
     6     4     5    2
     7     5     6    1
     8     6     7    2
     9     8     1    1
    10     8     9    1
    11     8    12    1
    12     9    10    1
    13    10    11    1
    14    12    11    1
    15    13    29    1
    16    14    13    1
    17    14    15    1
    18    15    18    2
    19    16    17    1
    20    16    15    1
    21    19    14    2
    22    20    21    2
    23    20    19    1
    24    21    26    1
    25    22    21    1
    26    23    22    1
    27    24    23    1
    28    24    25    1
    29    26    27    1
    30    26    13    1
    31    29    35    1
    32    29    33    1
    33    31    32    1
    34    32    36    2
    35    33    28    1
    36    33    30    1
    37    34    28    3
    38    36    39    1
    39    37    35    1
    40    37    36    1
    41    37    39    1
    42    38    40    1
    43    40    41    1
    44    41    31    1
    45    41    35    2
