@<TRIPOS>MOLECULE
outputs/IAG933/test6/raw/output_4345_IAG933_linker_design_.xyz
 41 44 0 0 0
SMALL
GASTEIGER

@<TRIPOS>ATOM
      1 C         -24.8550   -1.0120   30.1430 C.3     1  UNL1        0.0457
      2 C         -24.9730   -2.5050   29.7880 C.2     1  UNL1       -0.0207
      3 C         -23.9060   -3.1730   29.1460 C.2     1  UNL1       -0.0042
      4 C         -23.9890   -4.5490   28.8530 C.2     1  UNL1       -0.0003
      5 C         -25.1370   -5.2800   29.2050 C.2     1  UNL1       -0.0000
      6 C         -26.2320   -4.6110   29.7840 C.2     1  UNL1       -0.0003
      7 C         -26.1550   -3.2320   30.0650 C.2     1  UNL1       -0.0042
      8 C         -25.3870   -0.6790   31.5710 C.3     1  UNL1        0.0772
      9 C         -25.1890    0.7730   32.0280 C.3     1  UNL1        0.0192
     10 C         -25.3360    0.6840   33.5440 C.3     1  UNL1        0.0202
     11 C         -24.8290   -0.7150   33.9050 C.3     1  UNL1        0.0887
     12 N         -24.7580   -1.4810   32.6460 N.3     1  UNL1       -0.2191
     13 C         -25.6880    1.6140   26.4610 C.3     1  UNL1        0.0788
     14 C         -26.2500    2.9200   26.3950 C.2     1  UNL1        0.0553
     15 C         -25.6420    4.0930   27.1230 C.2     1  UNL1        0.2625
     16 N         -25.6140    5.2520   26.4490 N.am    1  UNL1       -0.2000
     17 C         -25.0260    6.4790   26.9630 C.3     1  UNL1        0.1388
     18 O         -25.1430    3.9660   28.2430 O.2     1  UNL1       -0.2687
     19 C         -27.4380    3.0910   25.6450 C.2     1  UNL1        0.1022
     20 N         -28.0750    2.0890   25.0030 N.2     1  UNL1       -0.2119
     21 C         -27.5430    0.8490   25.0790 C.2     1  UNL1        0.2341
     22 O         -28.1930   -0.2080   24.4770 O.2     1  UNL1       -0.4585
     23 C         -29.4600    0.0050   23.8660 C.3     1  UNL1        0.2423
     24 C         -30.0650   -1.3770   23.5730 C.3     1  UNL1        0.2292
     25 O         -30.7290   -1.8780   24.7210 O.3     1  UNL1       -0.2162
     26 C         -26.3540    0.5760   25.7770 C.3     1  UNL1        0.2405
     27 F         -25.8600   -0.6810   25.7950 F       1  UNL1       -0.2269
     28 C         -22.3371    1.5828   28.4829 C.3     1  UNL1        0.0581
     29 O         -24.9376    4.1809   31.3558 O.co2   1  UNL1       -0.2437
     30 O         -26.7512    5.3925   31.4155 O.co2   1  UNL1       -0.2437
     31 C         -26.1405    4.3654   31.0825 C.2     1  UNL1        0.3865
     32 C         -24.3530   -0.0333   29.1182 C.3     1  UNL1        0.0716
     33 C         -20.9370    1.4216   27.7773 C.3     1  UNL1        0.0078
     34 N         -26.4454    2.4595   29.3272 N.am    1  UNL1       -0.1932
     35 C         -26.3973    1.3087   28.7214 C.2     1  UNL1        0.2418
     36 O         -27.3205    0.3652   28.5251 O.2     1  UNL1       -0.2733
     37 O         -22.1879   -0.2637   30.1365 O.2     1  UNL1       -0.2961
     38 C         -24.9827    1.0835   27.8290 C.3     1  UNL1        0.0847
     39 C         -26.9323    3.3376   30.2466 C.3     1  UNL1        0.2284
     40 C         -22.8460    0.3624   29.3893 C.2     1  UNL1        0.1507
     41 C         -23.4987    1.6666   27.3778 C.3     1  UNL1        0.0168
@<TRIPOS>BOND
     1     1     2    1
     2     2     7    1
     3     3     2    2
     4     4     3    1
     5     4     5    2
     6     5     6    1
     7     6     7    2
     8     8     1    1
     9     8     9    1
    10     8    12    1
    11     9    10    1
    12    10    11    1
    13    12    11    1
    14    13    14    1
    15    13    38    1
    16    14    15    1
    17    15    18    2
    18    16    17    1
    19    16    15    1
    20    19    14    2
    21    20    21    2
    22    20    19    1
    23    21    26    1
    24    22    21    1
    25    23    22    1
    26    24    23    1
    27    24    25    1
    28    26    27    1
    29    26    13    1
    30    28    33    1
    31    28    40    1
    32    31    29   ar
    33    31    30   ar
    34    32    40    1
    35    32     1    1
    36    34    39    1
    37    35    34    1
    38    36    35    2
    39    38    35    1
    40    38    32    1
    41    39    31    1
    42    40    37    2
    43    41    38    1
    44    41    28    1
