@<TRIPOS>MOLECULE
outputs/IAG933/test6/raw/output_4347_IAG933_linker_design_.xyz
 45 49 0 0 0
SMALL
GASTEIGER

@<TRIPOS>ATOM
      1 C         -24.8550   -1.0120   30.1430 C.3     1  UNL1        0.0585
      2 C         -24.9730   -2.5050   29.7880 C.2     1  UNL1       -0.0195
      3 C         -23.9060   -3.1730   29.1460 C.2     1  UNL1       -0.0042
      4 C         -23.9890   -4.5490   28.8530 C.2     1  UNL1       -0.0003
      5 C         -25.1370   -5.2800   29.2050 C.2     1  UNL1       -0.0000
      6 C         -26.2320   -4.6110   29.7840 C.2     1  UNL1       -0.0003
      7 C         -26.1550   -3.2320   30.0650 C.2     1  UNL1       -0.0042
      8 C         -25.3870   -0.6790   31.5710 C.3     1  UNL1        0.0785
      9 C         -25.1890    0.7730   32.0280 C.3     1  UNL1        0.0192
     10 C         -25.3360    0.6840   33.5440 C.3     1  UNL1        0.0202
     11 C         -24.8290   -0.7150   33.9050 C.3     1  UNL1        0.0887
     12 N         -24.7580   -1.4810   32.6460 N.3     1  UNL1       -0.2191
     13 C         -25.6880    1.6140   26.4610 C.3     1  UNL1        0.0959
     14 C         -26.2500    2.9200   26.3950 C.2     1  UNL1        0.0568
     15 C         -25.6420    4.0930   27.1230 C.2     1  UNL1        0.2186
     16 N         -25.6140    5.2520   26.4490 N.2     1  UNL1       -0.2359
     17 C         -25.0260    6.4790   26.9630 C.3     1  UNL1        0.1550
     18 O         -25.1430    3.9660   28.2430 O.2     1  UNL1       -0.4523
     19 C         -27.4380    3.0910   25.6450 C.2     1  UNL1        0.1025
     20 N         -28.0750    2.0890   25.0030 N.2     1  UNL1       -0.2118
     21 C         -27.5430    0.8490   25.0790 C.2     1  UNL1        0.2344
     22 O         -28.1930   -0.2080   24.4770 O.2     1  UNL1       -0.4585
     23 C         -29.4600    0.0050   23.8660 C.3     1  UNL1        0.2423
     24 C         -30.0650   -1.3770   23.5730 C.3     1  UNL1        0.2292
     25 O         -30.7290   -1.8780   24.7210 O.3     1  UNL1       -0.2162
     26 C         -26.3540    0.5760   25.7770 C.3     1  UNL1        0.2441
     27 F         -25.8600   -0.6810   25.7950 F       1  UNL1       -0.2265
     28 C         -24.0888    1.2895   28.0835 C.2     1  UNL1        0.0800
     29 C         -26.6422    5.4197   31.4896 C.3     1  UNL1        0.0372
     30 C         -26.6807    4.6945   30.0953 C.3     1  UNL1        0.1717
     31 N         -25.1440    1.1828   29.0216 N.am    1  UNL1       -0.2534
     32 O         -26.3996    5.8059   29.2732 O.3     1  UNL1       -0.2214
     33 C         -22.1236    1.6836   26.0139 C.2     1  UNL1        0.0317
     34 C         -21.7525    1.4944   27.3231 C.2     1  UNL1        0.0332
     35 F         -22.2514    0.6389   29.4307 F       1  UNL1       -0.2029
     36 C         -22.7100    1.1676   28.2986 C.2     1  UNL1        0.1535
     37 C         -24.3974    1.4914   26.7313 C.2     1  UNL1        0.0283
     38 C         -25.6040    3.6000   29.5710 C.3     1  UNL1        0.2705
     39 F         -23.8330    1.4105   24.4385 F       1  UNL1       -0.2044
     40 C         -29.1639    5.5665   30.3761 C.3     1  UNL1        0.0027
     41 O         -27.2461    1.7876   29.5115 O.2     1  UNL1       -0.2705
     42 C         -28.2016    4.4275   29.8783 C.3     1  UNL1        0.0346
     43 C         -25.6418   -0.2619   29.0862 C.3     1  UNL1        0.1041
     44 C         -23.4618    1.5527   25.7143 C.2     1  UNL1        0.1379
     45 C         -26.0421    2.1343   29.3702 C.2     1  UNL1        0.2722
@<TRIPOS>BOND
     1     1    43    1
     2     2     7    1
     3     2     1    1
     4     3     2    2
     5     4     3    1
     6     4     5    2
     7     5     6    1
     8     6     7    2
     9     8     1    1
    10     8     9    1
    11     8    12    1
    12     9    10    1
    13    10    11    1
    14    12    11    1
    15    13    14    1
    16    13    37    1
    17    14    15    1
    18    15    18    1
    19    16    17    1
    20    16    15    2
    21    18    38    1
    22    19    14    2
    23    20    21    2
    24    20    19    1
    25    21    26    1
    26    22    21    1
    27    23    22    1
    28    24    23    1
    29    24    25    1
    30    26    27    1
    31    26    13    1
    32    28    36    1
    33    28    31    1
    34    30    29    1
    35    31    43    1
    36    31    45   am
    37    32    30    1
    38    33    34    1
    39    34    36    2
    40    36    35    1
    41    37    28    2
    42    38    30    1
    43    39    44    1
    44    42    30    1
    45    42    40    1
    46    44    33    2
    47    44    37    1
    48    45    41    2
    49    45    38    1
