@<TRIPOS>MOLECULE
outputs/IAG933/test6/raw/output_4348_IAG933_linker_design_.xyz
 44 47 0 0 0
SMALL
GASTEIGER

@<TRIPOS>ATOM
      1 C         -24.8550   -1.0120   30.1430 C.3     1  UNL1        0.1533
      2 C         -24.9730   -2.5050   29.7880 C.2     1  UNL1        0.0059
      3 C         -23.9060   -3.1730   29.1460 C.2     1  UNL1       -0.0019
      4 C         -23.9890   -4.5490   28.8530 C.2     1  UNL1       -0.0002
      5 C         -25.1370   -5.2800   29.2050 C.2     1  UNL1       -0.0000
      6 C         -26.2320   -4.6110   29.7840 C.2     1  UNL1       -0.0002
      7 C         -26.1550   -3.2320   30.0650 C.2     1  UNL1       -0.0019
      8 C         -25.3870   -0.6790   31.5710 C.3     1  UNL1        0.1041
      9 C         -25.1890    0.7730   32.0280 C.3     1  UNL1        0.0217
     10 C         -25.3360    0.6840   33.5440 C.3     1  UNL1        0.0203
     11 C         -24.8290   -0.7150   33.9050 C.3     1  UNL1        0.0888
     12 N         -24.7580   -1.4810   32.6460 N.3     1  UNL1       -0.2166
     13 C         -25.6880    1.6140   26.4610 C.2     1  UNL1        0.0380
     14 C         -26.2500    2.9200   26.3950 C.2     1  UNL1        0.0743
     15 C         -25.6420    4.0930   27.1230 C.2     1  UNL1        0.2662
     16 N         -25.6140    5.2520   26.4490 N.am    1  UNL1       -0.1997
     17 C         -25.0260    6.4790   26.9630 C.3     1  UNL1        0.1388
     18 O         -25.1430    3.9660   28.2430 O.2     1  UNL1       -0.2683
     19 C         -27.4380    3.0910   25.6450 C.2     1  UNL1        0.1065
     20 N         -28.0750    2.0890   25.0030 N.2     1  UNL1       -0.2081
     21 C         -27.5430    0.8490   25.0790 C.2     1  UNL1        0.2530
     22 O         -28.1930   -0.2080   24.4770 O.2     1  UNL1       -0.4558
     23 C         -29.4600    0.0050   23.8660 C.3     1  UNL1        0.2426
     24 C         -30.0650   -1.3770   23.5730 C.3     1  UNL1        0.2292
     25 O         -30.7290   -1.8780   24.7210 O.3     1  UNL1       -0.2162
     26 C         -26.3540    0.5760   25.7770 C.2     1  UNL1        0.1908
     27 F         -25.8600   -0.6810   25.7950 F       1  UNL1       -0.1995
     28 C         -31.0204   -0.8627   27.6416 C.1     1  UNL1       -0.0657
     29 O         -31.0563   -2.8528   29.1562 O.2     1  UNL1       -0.4654
     30 C         -30.3615    0.3397   27.6210 C.2     1  UNL1        0.0208
     31 N         -23.5410    1.7770   27.8887 N.am    1  UNL1       -0.2000
     32 O         -22.4327    0.4424   29.3372 O.2     1  UNL1       -0.2733
     33 C         -22.4458    1.1363   28.2996 C.2     1  UNL1        0.2422
     34 C         -25.6688    0.7514   28.4598 C.3     1  UNL1        0.1691
     35 O         -24.8304   -0.1066   29.1884 O.3     1  UNL1       -0.3482
     36 C         -29.5945    1.0150   28.7348 C.3     1  UNL1        0.0641
     37 C         -29.0498   -0.1920   29.6415 C.3     1  UNL1        0.1240
     38 C         -29.6588   -3.0163   29.0170 C.3     1  UNL1        0.2088
     39 O         -27.6867    0.1156   29.6792 O.3     1  UNL1       -0.3531
     40 C         -31.5779   -1.9626   28.1495 C.2     1  UNL1        0.2152
     41 C         -28.9300   -1.8482   29.5994 C.3     1  UNL1        0.0772
     42 C         -24.8205    1.1537   27.2338 C.3     1  UNL1        0.1495
     43 C         -21.2122    1.3644   27.5192 C.3     1  UNL1        0.0964
     44 C         -27.0702    0.1500   28.3798 C.3     1  UNL1        0.1736
@<TRIPOS>BOND
     1     1    35    1
     2     2     7    1
     3     2     1    1
     4     3     2    2
     5     4     3    1
     6     4     5    2
     7     5     6    1
     8     6     7    2
     9     8     1    1
    10     8     9    1
    11     8    12    1
    12     9    10    1
    13    10    11    1
    14    12    11    1
    15    13    42    1
    16    14    13    1
    17    14    15    1
    18    15    18    2
    19    16    17    1
    20    16    15    1
    21    19    14    2
    22    20    21    2
    23    20    19    1
    24    21    26    1
    25    22    21    1
    26    23    22    1
    27    24    23    1
    28    24    25    1
    29    26    27    1
    30    26    13    2
    31    28    40    2
    32    30    28    2
    33    30    36    1
    34    31    33    1
    35    33    32    2
    36    34    44    1
    37    34    35    1
    38    36    37    1
    39    37    39    1
    40    38    29    1
    41    38    41    1
    42    40    29    1
    43    41    37    1
    44    42    31    1
    45    42    34    1
    46    43    33    1
    47    44    39    1
