@<TRIPOS>MOLECULE
outputs/IAG933/test6/raw/output_435_IAG933_linker_design_.xyz
 44 48 0 0 0
SMALL
GASTEIGER

@<TRIPOS>ATOM
      1 C         -24.8550   -1.0120   30.1430 C.3     1  UNL1        0.0438
      2 C         -24.9730   -2.5050   29.7880 C.2     1  UNL1       -0.0208
      3 C         -23.9060   -3.1730   29.1460 C.2     1  UNL1       -0.0042
      4 C         -23.9890   -4.5490   28.8530 C.2     1  UNL1       -0.0003
      5 C         -25.1370   -5.2800   29.2050 C.2     1  UNL1       -0.0000
      6 C         -26.2320   -4.6110   29.7840 C.2     1  UNL1       -0.0003
      7 C         -26.1550   -3.2320   30.0650 C.2     1  UNL1       -0.0042
      8 C         -25.3870   -0.6790   31.5710 C.3     1  UNL1        0.0798
      9 C         -25.1890    0.7730   32.0280 C.3     1  UNL1        0.0493
     10 C         -25.3360    0.6840   33.5440 C.3     1  UNL1        0.0230
     11 C         -24.8290   -0.7150   33.9050 C.3     1  UNL1        0.0888
     12 N         -24.7580   -1.4810   32.6460 N.3     1  UNL1       -0.2190
     13 C         -25.6880    1.6140   26.4610 C.3     1  UNL1        0.1102
     14 C         -26.2500    2.9200   26.3950 C.2     1  UNL1        0.0604
     15 C         -25.6420    4.0930   27.1230 C.2     1  UNL1        0.2628
     16 N         -25.6140    5.2520   26.4490 N.am    1  UNL1       -0.2000
     17 C         -25.0260    6.4790   26.9630 C.3     1  UNL1        0.1388
     18 O         -25.1430    3.9660   28.2430 O.2     1  UNL1       -0.2686
     19 C         -27.4380    3.0910   25.6450 C.2     1  UNL1        0.1025
     20 N         -28.0750    2.0890   25.0030 N.2     1  UNL1       -0.2118
     21 C         -27.5430    0.8490   25.0790 C.2     1  UNL1        0.2345
     22 O         -28.1930   -0.2080   24.4770 O.2     1  UNL1       -0.4585
     23 C         -29.4600    0.0050   23.8660 C.3     1  UNL1        0.2423
     24 C         -30.0650   -1.3770   23.5730 C.3     1  UNL1        0.2292
     25 O         -30.7290   -1.8780   24.7210 O.3     1  UNL1       -0.2162
     26 C         -26.3540    0.5760   25.7770 C.3     1  UNL1        0.2455
     27 F         -25.8600   -0.6810   25.7950 F       1  UNL1       -0.2265
     28 C         -24.4139    1.6380   26.6503 C.2     1  UNL1        0.0658
     29 C         -22.8310    1.6921   28.2345 C.2     1  UNL1        0.0884
     30 N         -24.0268    1.7827   27.8399 N.2     1  UNL1       -0.2511
     31 C         -23.4462    1.7605   25.6141 C.2     1  UNL1        0.0151
     32 C         -26.4032    4.1247   30.5854 C.2     1  UNL1       -0.0008
     33 C         -25.6420    3.3661   31.5067 C.2     1  UNL1        0.0190
     34 C         -21.7989    1.8999   27.3370 C.2     1  UNL1        0.0172
     35 F         -26.5121    7.2906   32.3394 F       1  UNL1       -0.2097
     36 C         -22.7923    1.2741   29.6319 C.3     1  UNL1        0.1878
     37 C         -22.0972    1.9633   25.9861 C.2     1  UNL1        0.0025
     38 C         -25.2861    1.9463   31.1362 C.3     1  UNL1        0.1405
     39 C         -26.7272    5.4615   30.8830 C.2     1  UNL1        0.0293
     40 O         -24.0415    1.9613   30.1742 O.3     1  UNL1       -0.3454
     41 C         -26.2254    6.0048   32.0769 C.3     1  UNL1        0.2605
     42 C         -24.8487    5.7756   34.2061 C.3     1  UNL1        0.1150
     43 C         -25.2004    3.9408   32.6830 C.2     1  UNL1        0.0615
     44 N         -25.4534    5.2678   32.9523 N.pl3   1  UNL1       -0.2759
@<TRIPOS>BOND
     1     2     7    1
     2     2     1    1
     3     3     2    2
     4     4     3    1
     5     4     5    2
     6     5     6    1
     7     6     7    2
     8     8     1    1
     9     8     9    1
    10     8    12    1
    11     9    38    1
    12     9    10    1
    13    10    11    1
    14    12    11    1
    15    13    28    1
    16    14    13    1
    17    14    15    1
    18    15    18    2
    19    16    17    1
    20    16    15    1
    21    19    14    2
    22    20    21    2
    23    20    19    1
    24    21    26    1
    25    22    21    1
    26    23    22    1
    27    24    23    1
    28    24    25    1
    29    26    27    1
    30    26    13    1
    31    28    30    1
    32    29    36    1
    33    30    29    2
    34    31    37    1
    35    31    28    2
    36    32    39    2
    37    32    33    1
    38    33    43    2
    39    34    29    1
    40    36    40    1
    41    37    34    2
    42    38    40    1
    43    38    33    1
    44    39    41    1
    45    41    35    1
    46    41    44    1
    47    43    44    1
    48    44    42    1
