@<TRIPOS>MOLECULE
No_4351-gen_results/8p0m/2024-11-27-11-27-31/
 14 15 0 0 0
SMALL
GASTEIGER

@<TRIPOS>ATOM
      1 C         -28.0162   -0.8135   28.8779 C.3     1  UNL1        0.0332
      2 C         -28.4690   -0.7850   29.8287 C.3     1  UNL1        0.1520
      3 C         -27.0871    0.2903   28.6377 C.3     1  UNL1        0.0070
      4 C         -26.0238    0.3644   29.2526 C.3     1  UNL1        0.0237
      5 C         -24.9536    1.2658   28.9526 C.ar    1  UNL1       -0.0073
      6 C         -27.5327   -0.7046   31.0831 C.3     1  UNL1        0.0332
      7 C         -26.3981    0.1684   30.7584 C.3     1  UNL1        0.0070
      8 C         -24.9806    2.2684   28.3773 C.ar    1  UNL1        0.0943
      9 N         -23.7909    2.8076   27.8201 N.ar    1  UNL1       -0.2427
     10 C         -23.5437    0.7263   29.2698 C.ar    1  UNL1       -0.0228
     11 C         -23.4346   -0.5735   30.0055 C.3     1  UNL1        0.0308
     12 C         -22.4130    1.3204   28.7918 C.ar    1  UNL1        0.0161
     13 C         -22.5433    2.4551   28.0761 C.ar    1  UNL1        0.0985
     14 O         -29.5914   -1.5499   30.2368 O.3     1  UNL1       -0.2231
@<TRIPOS>BOND
     1     1     2    1
     2     1     3    1
     3     3     4    1
     4     2     6    1
     5     4     7    1
     6     6     7    1
     7    10    11    1
     8     2    14    1
     9     4     5    1
    10     5     8   ar
    11     8     9   ar
    12     9    13   ar
    13    13    12   ar
    14    12    10   ar
    15    10     5   ar
