@<TRIPOS>MOLECULE
outputs/IAG933/test6/raw/output_4352_IAG933_linker_design_.xyz
 45 47 0 0 0
SMALL
GASTEIGER

@<TRIPOS>ATOM
      1 C         -24.8550   -1.0120   30.1430 C.3     1  UNL1        0.0622
      2 C         -24.9730   -2.5050   29.7880 C.2     1  UNL1       -0.0192
      3 C         -23.9060   -3.1730   29.1460 C.2     1  UNL1       -0.0042
      4 C         -23.9890   -4.5490   28.8530 C.2     1  UNL1       -0.0003
      5 C         -25.1370   -5.2800   29.2050 C.2     1  UNL1       -0.0000
      6 C         -26.2320   -4.6110   29.7840 C.2     1  UNL1       -0.0003
      7 C         -26.1550   -3.2320   30.0650 C.2     1  UNL1       -0.0042
      8 C         -25.3870   -0.6790   31.5710 C.3     1  UNL1        0.0788
      9 C         -25.1890    0.7730   32.0280 C.3     1  UNL1        0.0193
     10 C         -25.3360    0.6840   33.5440 C.3     1  UNL1        0.0202
     11 C         -24.8290   -0.7150   33.9050 C.3     1  UNL1        0.0887
     12 N         -24.7580   -1.4810   32.6460 N.3     1  UNL1       -0.2191
     13 C         -25.6880    1.6140   26.4610 C.3     1  UNL1        0.0905
     14 C         -26.2500    2.9200   26.3950 C.2     1  UNL1        0.0586
     15 C         -25.6420    4.0930   27.1230 C.2     1  UNL1        0.2627
     16 N         -25.6140    5.2520   26.4490 N.am    1  UNL1       -0.2000
     17 C         -25.0260    6.4790   26.9630 C.3     1  UNL1        0.1388
     18 O         -25.1430    3.9660   28.2430 O.2     1  UNL1       -0.2686
     19 C         -27.4380    3.0910   25.6450 C.2     1  UNL1        0.1025
     20 N         -28.0750    2.0890   25.0030 N.2     1  UNL1       -0.2118
     21 C         -27.5430    0.8490   25.0790 C.2     1  UNL1        0.2344
     22 O         -28.1930   -0.2080   24.4770 O.2     1  UNL1       -0.4585
     23 C         -29.4600    0.0050   23.8660 C.3     1  UNL1        0.2423
     24 C         -30.0650   -1.3770   23.5730 C.3     1  UNL1        0.2292
     25 O         -30.7290   -1.8780   24.7210 O.3     1  UNL1       -0.2162
     26 C         -26.3540    0.5760   25.7770 C.3     1  UNL1        0.2438
     27 F         -25.8600   -0.6810   25.7950 F       1  UNL1       -0.2265
     28 C         -23.3811    1.2118   27.2693 C.2     1  UNL1        0.0469
     29 C         -22.3362    0.8251   28.0930 C.3     1  UNL1        0.1240
     30 C         -24.9833   -0.0418   28.8798 C.3     1  UNL1        0.1198
     31 C         -27.6351   -0.2425   29.2100 C.2     1  UNL1        0.2412
     32 O         -27.9442   -1.4011   29.0616 O.2     1  UNL1       -0.2733
     33 S         -31.2145    2.3083   26.8534 S.3     1  UNL1       -0.1960
     34 C         -20.9238    1.4126   27.8094 C.3     1  UNL1        0.0262
     35 O         -32.1591    2.0499   27.9917 O.3     1  UNL1       -0.3075
     36 CL        -22.9318    2.0849   25.8148 Cl      1  UNL1       -0.0860
     37 O         -31.3933    3.6675   26.1706 O.3     1  UNL1       -0.3075
     38 N         -22.2419    0.0184   29.2512 N.3     1  UNL1       -0.1272
     39 C         -24.6562    0.9832   27.4825 C.2     1  UNL1       -0.0093
     40 C         -28.3864    1.9026   30.4035 C.3     1  UNL1        0.0097
     41 N         -26.3853    0.2385   29.0455 N.am    1  UNL1       -0.2026
     42 C         -29.6608    2.2003   27.7649 C.3     1  UNL1        0.1057
     43 C         -28.7034    0.8035   29.4306 C.3     1  UNL1        0.0798
     44 O         -31.5462    1.1261   25.7803 O.3     1  UNL1       -0.3075
     45 C         -29.1487    1.0760   28.0412 C.3     1  UNL1        0.0306
@<TRIPOS>BOND
     1     1    30    1
     2     2     7    1
     3     2     1    1
     4     3     2    2
     5     4     3    1
     6     4     5    2
     7     5     6    1
     8     6     7    2
     9     8     1    1
    10     8     9    1
    11     8    12    1
    12     9    10    1
    13    10    11    1
    14    12    11    1
    15    13    39    1
    16    14    13    1
    17    14    15    1
    18    15    18    2
    19    16    17    1
    20    16    15    1
    21    19    14    2
    22    20    21    2
    23    20    19    1
    24    21    26    1
    25    22    21    1
    26    23    22    1
    27    24    23    1
    28    24    25    1
    29    26    27    1
    30    26    13    1
    31    28    39    2
    32    28    29    1
    33    29    34    1
    34    29    38    1
    35    30    39    1
    36    30    41    1
    37    31    43    1
    38    32    31    2
    39    33    42    1
    40    33    35    1
    41    36    28    1
    42    37    33    1
    43    41    31    1
    44    42    45    1
    45    43    40    1
    46    44    33    1
    47    45    43    1
