@<TRIPOS>MOLECULE
outputs/IAG933/test6/raw/output_4353_IAG933_linker_design_.xyz
 48 53 0 0 0
SMALL
GASTEIGER

@<TRIPOS>ATOM
      1 C         -24.8550   -1.0120   30.1430 C.3     1  UNL1        0.0438
      2 C         -24.9730   -2.5050   29.7880 C.2     1  UNL1       -0.0208
      3 C         -23.9060   -3.1730   29.1460 C.2     1  UNL1       -0.0042
      4 C         -23.9890   -4.5490   28.8530 C.2     1  UNL1       -0.0003
      5 C         -25.1370   -5.2800   29.2050 C.2     1  UNL1       -0.0000
      6 C         -26.2320   -4.6110   29.7840 C.2     1  UNL1       -0.0003
      7 C         -26.1550   -3.2320   30.0650 C.2     1  UNL1       -0.0042
      8 C         -25.3870   -0.6790   31.5710 C.3     1  UNL1        0.0786
      9 C         -25.1890    0.7730   32.0280 C.3     1  UNL1        0.0366
     10 C         -25.3360    0.6840   33.5440 C.3     1  UNL1        0.0217
     11 C         -24.8290   -0.7150   33.9050 C.3     1  UNL1        0.0887
     12 N         -24.7580   -1.4810   32.6460 N.3     1  UNL1       -0.2191
     13 C         -25.6880    1.6140   26.4610 C.3     1  UNL1        0.1021
     14 C         -26.2500    2.9200   26.3950 C.2     1  UNL1        0.0573
     15 C         -25.6420    4.0930   27.1230 C.2     1  UNL1        0.2625
     16 N         -25.6140    5.2520   26.4490 N.am    1  UNL1       -0.2000
     17 C         -25.0260    6.4790   26.9630 C.3     1  UNL1        0.1388
     18 O         -25.1430    3.9660   28.2430 O.2     1  UNL1       -0.2687
     19 C         -27.4380    3.0910   25.6450 C.2     1  UNL1        0.1022
     20 N         -28.0750    2.0890   25.0030 N.2     1  UNL1       -0.2119
     21 C         -27.5430    0.8490   25.0790 C.2     1  UNL1        0.2342
     22 O         -28.1930   -0.2080   24.4770 O.2     1  UNL1       -0.4585
     23 C         -29.4600    0.0050   23.8660 C.3     1  UNL1        0.2423
     24 C         -30.0650   -1.3770   23.5730 C.3     1  UNL1        0.2292
     25 O         -30.7290   -1.8780   24.7210 O.3     1  UNL1       -0.2162
     26 C         -26.3540    0.5760   25.7770 C.3     1  UNL1        0.2425
     27 F         -25.8600   -0.6810   25.7950 F       1  UNL1       -0.2268
     28 O         -25.5436    4.1672   30.7470 O.3     1  UNL1       -0.2927
     29 C         -22.1592    1.7487   27.0148 C.2     1  UNL1        0.3553
     30 C         -29.6822    3.8986   30.5666 C.2     1  UNL1        0.0368
     31 C         -30.3511    2.7936   29.9604 C.2     1  UNL1        0.0031
     32 O         -27.6627    4.4961   31.8404 O.2     1  UNL1       -0.4306
     33 C         -28.2758    3.7669   30.9147 C.2     1  UNL1        0.1420
     34 O         -25.5901    5.3114   32.8669 O.3     1  UNL1       -0.2935
     35 C         -25.0351    1.7679   31.1946 C.3     1  UNL1        0.1057
     36 C         -28.1782    1.5624   29.7648 C.2     1  UNL1        0.0011
     37 O         -21.0269    1.7133   27.5164 O.2     1  UNL1       -0.2467
     38 C         -27.4711    2.6752   30.4169 C.2     1  UNL1        0.0403
     39 C         -24.2888    1.3846   26.7834 C.3     1  UNL1        0.1838
     40 C         -23.5654    1.7022   27.6721 C.3     1  UNL1        0.1512
     41 O         -22.2661    1.7842   25.6591 O.3     1  UNL1       -0.2956
     42 C         -23.8045    1.9256   28.9746 C.3     1  UNL1        0.1026
     43 O         -23.5448    1.2498   25.3076 O.3     1  UNL1       -0.1713
     44 C         -26.2786    4.6967   31.7427 C.3     1  UNL1        0.4319
     45 C         -26.0522    2.8301   30.6824 C.3     1  UNL1        0.1623
     46 N         -23.8534    1.9459   30.2832 N.3     1  UNL1       -0.2159
     47 C         -25.3887    4.2421   33.8716 C.3     1  UNL1        0.1806
     48 C         -29.6198    1.6090   29.5900 C.2     1  UNL1       -0.0000
@<TRIPOS>BOND
     1     2     7    1
     2     2     1    1
     3     3     2    2
     4     4     3    1
     5     4     5    2
     6     5     6    1
     7     6     7    2
     8     8     1    1
     9     8     9    1
    10     8    12    1
    11     9    35    1
    12     9    10    1
    13    10    11    1
    14    12    11    1
    15    13    14    1
    16    13    39    1
    17    14    15    1
    18    15    18    2
    19    16    17    1
    20    16    15    1
    21    19    14    2
    22    20    21    2
    23    20    19    1
    24    21    26    1
    25    22    21    1
    26    23    22    1
    27    24    23    1
    28    24    25    1
    29    26    27    1
    30    26    13    1
    31    28    44    1
    32    29    37    2
    33    29    40    1
    34    30    33    1
    35    31    30    2
    36    33    32    1
    37    34    47    1
    38    35    46    1
    39    36    38    1
    40    38    45    1
    41    38    33    2
    42    39    43    1
    43    39    40    1
    44    40    42    1
    45    41    29    1
    46    42    46    1
    47    43    41    1
    48    44    32    1
    49    44    34    1
    50    45    28    1
    51    45    35    1
    52    48    36    2
    53    48    31    1
