@<TRIPOS>MOLECULE
outputs/IAG933/test6/raw/output_4358_IAG933_linker_design_.xyz
 44 49 0 0 0
SMALL
GASTEIGER

@<TRIPOS>ATOM
      1 C         -24.8550   -1.0120   30.1430 C.3     1  UNL1        0.0479
      2 C         -24.9730   -2.5050   29.7880 C.2     1  UNL1       -0.0207
      3 C         -23.9060   -3.1730   29.1460 C.2     1  UNL1       -0.0042
      4 C         -23.9890   -4.5490   28.8530 C.2     1  UNL1       -0.0003
      5 C         -25.1370   -5.2800   29.2050 C.2     1  UNL1       -0.0000
      6 C         -26.2320   -4.6110   29.7840 C.2     1  UNL1       -0.0003
      7 C         -26.1550   -3.2320   30.0650 C.2     1  UNL1       -0.0042
      8 C         -25.3870   -0.6790   31.5710 C.3     1  UNL1        0.0773
      9 C         -25.1890    0.7730   32.0280 C.3     1  UNL1        0.0192
     10 C         -25.3360    0.6840   33.5440 C.3     1  UNL1        0.0202
     11 C         -24.8290   -0.7150   33.9050 C.3     1  UNL1        0.0887
     12 N         -24.7580   -1.4810   32.6460 N.3     1  UNL1       -0.2191
     13 C         -25.6880    1.6140   26.4610 C.3     1  UNL1        0.0734
     14 C         -26.2500    2.9200   26.3950 C.2     1  UNL1        0.0549
     15 C         -25.6420    4.0930   27.1230 C.2     1  UNL1        0.2624
     16 N         -25.6140    5.2520   26.4490 N.am    1  UNL1       -0.2000
     17 C         -25.0260    6.4790   26.9630 C.3     1  UNL1        0.1388
     18 O         -25.1430    3.9660   28.2430 O.2     1  UNL1       -0.2687
     19 C         -27.4380    3.0910   25.6450 C.2     1  UNL1        0.1021
     20 N         -28.0750    2.0890   25.0030 N.2     1  UNL1       -0.2119
     21 C         -27.5430    0.8490   25.0790 C.2     1  UNL1        0.2341
     22 O         -28.1930   -0.2080   24.4770 O.2     1  UNL1       -0.4585
     23 C         -29.4600    0.0050   23.8660 C.3     1  UNL1        0.2423
     24 C         -30.0650   -1.3770   23.5730 C.3     1  UNL1        0.2292
     25 O         -30.7290   -1.8780   24.7210 O.3     1  UNL1       -0.2162
     26 C         -26.3540    0.5760   25.7770 C.3     1  UNL1        0.2401
     27 F         -25.8600   -0.6810   25.7950 F       1  UNL1       -0.2269
     28 N         -22.5559   -0.4118   29.4727 N.am    1  UNL1       -0.2025
     29 C         -23.2663    0.9645   27.5486 C.3     1  UNL1        0.1670
     30 C         -26.7286    0.9940   29.3230 C.2     1  UNL1        0.1836
     31 C         -22.9684    0.7398   29.0984 C.2     1  UNL1        0.2659
     32 C         -20.1698   -0.0799   28.7391 C.3     1  UNL1        0.1638
     33 O         -23.5252    1.6827   29.8118 O.2     1  UNL1       -0.2708
     34 C         -24.8806    0.9852   27.5283 C.3     1  UNL1        0.0508
     35 C         -26.8708   -0.3815   28.8810 C.3     1  UNL1        0.2156
     36 C         -20.5939    1.6803   27.3179 C.3     1  UNL1        0.1468
     37 O         -26.7296    1.9703   29.5476 O.2     1  UNL1       -0.2933
     38 C         -25.4190   -0.0106   28.8899 C.3     1  UNL1        0.0969
     39 O         -19.3983    0.8270   28.0512 O.3     1  UNL1       -0.3518
     40 O         -28.3408   -0.7770   29.1939 O.3     1  UNL1       -0.2147
     41 C         -22.5251    2.1506   25.4396 C.3     1  UNL1        0.1745
     42 O         -23.0801    2.0720   26.7625 O.3     1  UNL1       -0.3470
     43 C         -21.4110   -0.2199   28.5483 C.3     1  UNL1        0.1300
     44 C         -21.7263    0.8754   27.4054 C.3     1  UNL1        0.0855
@<TRIPOS>BOND
     1     1     2    1
     2     2     7    1
     3     3     2    2
     4     4     3    1
     5     4     5    2
     6     5     6    1
     7     6     7    2
     8     8     1    1
     9     8     9    1
    10     8    12    1
    11     9    10    1
    12    10    11    1
    13    12    11    1
    14    13    34    1
    15    14    13    1
    16    14    15    1
    17    15    18    2
    18    16    17    1
    19    16    15    1
    20    19    14    2
    21    20    21    2
    22    20    19    1
    23    21    26    1
    24    22    21    1
    25    23    22    1
    26    24    23    1
    27    24    25    1
    28    26    27    1
    29    26    13    1
    30    29    42    1
    31    29    31    1
    32    30    37    2
    33    31    28    1
    34    31    33    2
    35    34    29    1
    36    35    38    1
    37    35    40    1
    38    35    30    1
    39    36    39    1
    40    38    34    1
    41    38    30    1
    42    38     1    1
    43    39    32    1
    44    41    42    1
    45    43    32    1
    46    43    28    1
    47    44    36    1
    48    44    29    1
    49    44    43    1
