@<TRIPOS>MOLECULE
outputs/IAG933/test6/raw/output_4359_IAG933_linker_design_.xyz
 47 51 0 0 0
SMALL
GASTEIGER

@<TRIPOS>ATOM
      1 C         -24.8550   -1.0120   30.1430 C.3     1  UNL1        0.0962
      2 C         -24.9730   -2.5050   29.7880 C.2     1  UNL1       -0.0064
      3 C         -23.9060   -3.1730   29.1460 C.2     1  UNL1       -0.0029
      4 C         -23.9890   -4.5490   28.8530 C.2     1  UNL1       -0.0003
      5 C         -25.1370   -5.2800   29.2050 C.2     1  UNL1       -0.0000
      6 C         -26.2320   -4.6110   29.7840 C.2     1  UNL1       -0.0003
      7 C         -26.1550   -3.2320   30.0650 C.2     1  UNL1       -0.0029
      8 C         -25.3870   -0.6790   31.5710 C.3     1  UNL1        0.0916
      9 C         -25.1890    0.7730   32.0280 C.3     1  UNL1        0.0206
     10 C         -25.3360    0.6840   33.5440 C.3     1  UNL1        0.0203
     11 C         -24.8290   -0.7150   33.9050 C.3     1  UNL1        0.0888
     12 N         -24.7580   -1.4810   32.6460 N.3     1  UNL1       -0.2178
     13 C         -25.6880    1.6140   26.4610 C.3     1  UNL1        0.0702
     14 C         -26.2500    2.9200   26.3950 C.2     1  UNL1        0.0548
     15 C         -25.6420    4.0930   27.1230 C.2     1  UNL1        0.2624
     16 N         -25.6140    5.2520   26.4490 N.am    1  UNL1       -0.2000
     17 C         -25.0260    6.4790   26.9630 C.3     1  UNL1        0.1388
     18 O         -25.1430    3.9660   28.2430 O.2     1  UNL1       -0.2687
     19 C         -27.4380    3.0910   25.6450 C.2     1  UNL1        0.1021
     20 N         -28.0750    2.0890   25.0030 N.2     1  UNL1       -0.2119
     21 C         -27.5430    0.8490   25.0790 C.2     1  UNL1        0.2341
     22 O         -28.1930   -0.2080   24.4770 O.2     1  UNL1       -0.4585
     23 C         -29.4600    0.0050   23.8660 C.3     1  UNL1        0.2423
     24 C         -30.0650   -1.3770   23.5730 C.3     1  UNL1        0.2292
     25 O         -30.7290   -1.8780   24.7210 O.3     1  UNL1       -0.2162
     26 C         -26.3540    0.5760   25.7770 C.3     1  UNL1        0.2400
     27 F         -25.8600   -0.6810   25.7950 F       1  UNL1       -0.2269
     28 C         -30.3645   -0.1318   28.0226 C.2     1  UNL1        0.1508
     29 C         -31.7937   -1.1422   29.4752 C.3     1  UNL1        0.1107
     30 C         -22.0519    1.0916   27.3550 C.3     1  UNL1        0.0014
     31 C         -30.5900   -2.1264   29.7839 C.3     1  UNL1        0.0116
     32 C         -30.8326   -2.8265   31.0402 C.3     1  UNL1        0.0006
     33 C         -23.0401    1.3572   29.6476 C.3     1  UNL1        0.0160
     34 C         -21.8124    1.2617   28.7295 C.3     1  UNL1        0.0014
     35 C         -27.6130   -0.5009   28.9431 C.3     1  UNL1        0.0247
     36 C         -29.4073   -1.4195   29.8488 C.3     1  UNL1        0.0079
     37 O         -33.2612   -2.7091   28.5150 O.co2   1  UNL1       -0.2457
     38 C         -31.5452    0.0484   28.8263 C.3     1  UNL1        0.0757
     39 C         -24.2547    1.0658   28.7616 C.3     1  UNL1        0.0578
     40 C         -29.1286   -0.2596   28.9588 C.3     1  UNL1        0.0590
     41 O         -33.2774   -2.5175   30.6041 O.co2   1  UNL1       -0.2457
     42 C         -24.1721    1.5055   26.1999 C.3     1  UNL1        0.0092
     43 N         -25.2512    0.0025   29.1158 N.3     1  UNL1       -0.2705
     44 C         -26.6225    0.5380   29.4083 C.3     1  UNL1        0.0727
     45 C         -23.5703    0.7138   27.3920 C.3     1  UNL1        0.0151
     46 C         -32.8330   -2.1459   29.5114 C.2     1  UNL1        0.3647
     47 O         -30.5238   -0.3623   26.7805 O.2     1  UNL1       -0.2961
@<TRIPOS>BOND
     1     1    43    1
     2     2     7    1
     3     2     1    1
     4     3     2    2
     5     4     3    1
     6     4     5    2
     7     5     6    1
     8     6     7    2
     9     8     1    1
    10     8     9    1
    11     8    12    1
    12     9    10    1
    13    10    11    1
    14    12    11    1
    15    13    42    1
    16    14    13    1
    17    14    15    1
    18    15    18    2
    19    16    17    1
    20    16    15    1
    21    19    14    2
    22    20    21    2
    23    20    19    1
    24    21    26    1
    25    22    21    1
    26    23    22    1
    27    24    23    1
    28    24    25    1
    29    26    27    1
    30    26    13    1
    31    28    38    1
    32    28    40    1
    33    29    46    1
    34    29    31    1
    35    30    45    1
    36    30    34    1
    37    31    36    1
    38    31    32    1
    39    34    33    1
    40    35    44    1
    41    37    46   ar
    42    38    29    1
    43    39    43    1
    44    39    33    1
    45    40    35    1
    46    40    36    1
    47    43    44    1
    48    45    42    1
    49    45    39    1
    50    46    41   ar
    51    47    28    2
