@<TRIPOS>MOLECULE
outputs/IAG933/test6/raw/output_436_IAG933_linker_design_.xyz
 42 45 0 0 0
SMALL
GASTEIGER

@<TRIPOS>ATOM
      1 C         -24.8550   -1.0120   30.1430 C.3     1  UNL1        0.1196
      2 C         -24.9730   -2.5050   29.7880 C.2     1  UNL1       -0.0025
      3 C         -23.9060   -3.1730   29.1460 C.2     1  UNL1       -0.0026
      4 C         -23.9890   -4.5490   28.8530 C.2     1  UNL1       -0.0003
      5 C         -25.1370   -5.2800   29.2050 C.2     1  UNL1       -0.0000
      6 C         -26.2320   -4.6110   29.7840 C.2     1  UNL1       -0.0003
      7 C         -26.1550   -3.2320   30.0650 C.2     1  UNL1       -0.0026
      8 C         -25.3870   -0.6790   31.5710 C.3     1  UNL1        0.0955
      9 C         -25.1890    0.7730   32.0280 C.3     1  UNL1        0.0209
     10 C         -25.3360    0.6840   33.5440 C.3     1  UNL1        0.0203
     11 C         -24.8290   -0.7150   33.9050 C.3     1  UNL1        0.0888
     12 N         -24.7580   -1.4810   32.6460 N.3     1  UNL1       -0.2174
     13 C         -25.6880    1.6140   26.4610 C.2     1  UNL1        0.0415
     14 C         -26.2500    2.9200   26.3950 C.2     1  UNL1        0.0767
     15 C         -25.6420    4.0930   27.1230 C.2     1  UNL1        0.2664
     16 N         -25.6140    5.2520   26.4490 N.am    1  UNL1       -0.1997
     17 C         -25.0260    6.4790   26.9630 C.3     1  UNL1        0.1388
     18 O         -25.1430    3.9660   28.2430 O.2     1  UNL1       -0.2683
     19 C         -27.4380    3.0910   25.6450 C.2     1  UNL1        0.1067
     20 N         -28.0750    2.0890   25.0030 N.2     1  UNL1       -0.2081
     21 C         -27.5430    0.8490   25.0790 C.2     1  UNL1        0.2533
     22 O         -28.1930   -0.2080   24.4770 O.2     1  UNL1       -0.4558
     23 C         -29.4600    0.0050   23.8660 C.3     1  UNL1        0.2426
     24 C         -30.0650   -1.3770   23.5730 C.3     1  UNL1        0.2292
     25 O         -30.7290   -1.8780   24.7210 O.3     1  UNL1       -0.2162
     26 C         -26.3540    0.5760   25.7770 C.2     1  UNL1        0.1932
     27 F         -25.8600   -0.6810   25.7950 F       1  UNL1       -0.1992
     28 O         -27.4349   -0.6934   29.8857 O.2     1  UNL1       -0.2504
     29 C         -28.9996    0.9101   28.5452 C.3     1  UNL1        0.1168
     30 C         -31.0732   -0.4678   27.6864 C.3     1  UNL1        0.0019
     31 N         -27.7814    0.2381   28.0959 N.am    1  UNL1       -0.1882
     32 N         -25.2385   -0.0939   29.0215 N.am    1  UNL1       -0.2360
     33 C         -21.8629    1.9202   26.6019 C.2     1  UNL1        0.0320
     34 F         -23.5055    2.5011   24.9444 F       1  UNL1       -0.2041
     35 C         -23.2213    1.9642   26.1651 C.2     1  UNL1        0.1415
     36 C         -24.3140    1.3208   26.9117 C.2     1  UNL1        0.0459
     37 C         -30.2101    0.0190   28.8979 C.3     1  UNL1        0.0235
     38 F         -22.3015   -0.5214   29.2528 F       1  UNL1       -0.2029
     39 C         -24.0602    0.5434   28.1224 C.2     1  UNL1        0.0852
     40 C         -22.6354    0.3860   28.3886 C.2     1  UNL1        0.1539
     41 C         -21.5615    1.0814   27.7407 C.2     1  UNL1        0.0332
     42 C         -26.8520   -0.1580   29.0137 C.2     1  UNL1        0.3273
@<TRIPOS>BOND
     1     1    32    1
     2     2     7    1
     3     2     1    1
     4     3     2    2
     5     4     3    1
     6     4     5    2
     7     5     6    1
     8     6     7    2
     9     8     1    1
    10     8     9    1
    11     8    12    1
    12     9    10    1
    13    10    11    1
    14    12    11    1
    15    13    36    1
    16    14    13    1
    17    14    15    1
    18    15    18    2
    19    16    17    1
    20    16    15    1
    21    19    14    2
    22    20    21    2
    23    20    19    1
    24    21    26    1
    25    22    21    1
    26    23    22    1
    27    24    23    1
    28    24    25    1
    29    26    27    1
    30    26    13    2
    31    29    37    1
    32    30    37    1
    33    31    29    1
    34    31    42    1
    35    33    41    1
    36    34    35    1
    37    35    33    2
    38    35    36    1
    39    36    39    2
    40    39    40    1
    41    39    32    1
    42    40    38    1
    43    41    40    2
    44    42    32   am
    45    42    28    2
