@<TRIPOS>MOLECULE
outputs/IAG933/test6/raw/output_4360_IAG933_linker_design_.xyz
 42 46 0 0 0
SMALL
GASTEIGER

@<TRIPOS>ATOM
      1 C         -24.8550   -1.0120   30.1430 C.3     1  UNL1        0.1004
      2 C         -24.9730   -2.5050   29.7880 C.2     1  UNL1       -0.0063
      3 C         -23.9060   -3.1730   29.1460 C.2     1  UNL1       -0.0029
      4 C         -23.9890   -4.5490   28.8530 C.2     1  UNL1       -0.0003
      5 C         -25.1370   -5.2800   29.2050 C.2     1  UNL1       -0.0000
      6 C         -26.2320   -4.6110   29.7840 C.2     1  UNL1       -0.0003
      7 C         -26.1550   -3.2320   30.0650 C.2     1  UNL1       -0.0029
      8 C         -25.3870   -0.6790   31.5710 C.3     1  UNL1        0.0917
      9 C         -25.1890    0.7730   32.0280 C.3     1  UNL1        0.0206
     10 C         -25.3360    0.6840   33.5440 C.3     1  UNL1        0.0203
     11 C         -24.8290   -0.7150   33.9050 C.3     1  UNL1        0.0888
     12 N         -24.7580   -1.4810   32.6460 N.3     1  UNL1       -0.2178
     13 C         -25.6880    1.6140   26.4610 C.3     1  UNL1        0.1856
     14 C         -26.2500    2.9200   26.3950 C.2     1  UNL1        0.0820
     15 C         -25.6420    4.0930   27.1230 C.2     1  UNL1        0.2647
     16 N         -25.6140    5.2520   26.4490 N.am    1  UNL1       -0.1999
     17 C         -25.0260    6.4790   26.9630 C.3     1  UNL1        0.1388
     18 O         -25.1430    3.9660   28.2430 O.2     1  UNL1       -0.2686
     19 C         -27.4380    3.0910   25.6450 C.2     1  UNL1        0.1045
     20 N         -28.0750    2.0890   25.0030 N.2     1  UNL1       -0.2117
     21 C         -27.5430    0.8490   25.0790 C.2     1  UNL1        0.2367
     22 O         -28.1930   -0.2080   24.4770 O.2     1  UNL1       -0.4585
     23 C         -29.4600    0.0050   23.8660 C.3     1  UNL1        0.2423
     24 C         -30.0650   -1.3770   23.5730 C.3     1  UNL1        0.2292
     25 O         -30.7290   -1.8780   24.7210 O.3     1  UNL1       -0.2162
     26 C         -26.3540    0.5760   25.7770 C.3     1  UNL1        0.2670
     27 F         -25.8600   -0.6810   25.7950 F       1  UNL1       -0.2242
     28 O         -21.7462    0.6542   28.3282 O.3     1  UNL1       -0.4287
     29 O         -21.6771    1.8837   26.3695 O.2     1  UNL1       -0.2472
     30 C         -23.7130    1.1380   27.2957 C.3     1  UNL1        0.2455
     31 N         -24.1548    0.0282   29.2865 N.3     1  UNL1       -0.2163
     32 C         -27.7303    2.4944   29.8669 C.3     1  UNL1        0.0174
     33 C         -28.8043    0.4627   28.8745 C.3     1  UNL1        0.0174
     34 C         -24.9137    0.9127   28.4315 C.3     1  UNL1        0.1736
     35 C         -29.1185    2.3573   30.5179 C.3     1  UNL1        0.0014
     36 C         -29.7832    1.4549   28.2404 C.3     1  UNL1        0.0014
     37 C         -27.4508    1.1160   29.1478 C.3     1  UNL1        0.0743
     38 C         -22.6247    0.0241   29.3491 C.3     1  UNL1        0.2891
     39 N         -26.3677    0.4154   28.7017 N.3     1  UNL1       -0.2020
     40 C         -30.0426    2.6066   29.2797 C.3     1  UNL1        0.0001
     41 C         -22.2489    1.3963   27.2862 C.2     1  UNL1        0.3486
     42 O         -24.2265    1.5625   26.1848 O.3     1  UNL1       -0.3375
@<TRIPOS>BOND
     1     1     2    1
     2     2     7    1
     3     3     2    2
     4     4     3    1
     5     4     5    2
     6     5     6    1
     7     6     7    2
     8     8     1    1
     9     8     9    1
    10     8    12    1
    11     9    10    1
    12    10    11    1
    13    12    11    1
    14    13    42    1
    15    14    13    1
    16    14    15    1
    17    15    18    2
    18    16    17    1
    19    16    15    1
    20    19    14    2
    21    20    21    2
    22    20    19    1
    23    21    26    1
    24    22    21    1
    25    23    22    1
    26    24    23    1
    27    24    25    1
    28    26    27    1
    29    26    13    1
    30    28    38    1
    31    29    41    2
    32    30    42    1
    33    30    34    1
    34    31    38    1
    35    31     1    1
    36    32    35    1
    37    33    37    1
    38    34    39    1
    39    34    31    1
    40    36    33    1
    41    36    40    1
    42    37    32    1
    43    39    37    1
    44    40    35    1
    45    41    30    1
    46    41    28    1
