@<TRIPOS>MOLECULE
outputs/IAG933/test6/raw/output_4365_IAG933_linker_design_.xyz
 44 49 0 0 0
SMALL
GASTEIGER

@<TRIPOS>ATOM
      1 C         -24.8550   -1.0120   30.1430 C.3     1  UNL1        0.0452
      2 C         -24.9730   -2.5050   29.7880 C.2     1  UNL1       -0.0207
      3 C         -23.9060   -3.1730   29.1460 C.2     1  UNL1       -0.0042
      4 C         -23.9890   -4.5490   28.8530 C.2     1  UNL1       -0.0003
      5 C         -25.1370   -5.2800   29.2050 C.2     1  UNL1       -0.0000
      6 C         -26.2320   -4.6110   29.7840 C.2     1  UNL1       -0.0003
      7 C         -26.1550   -3.2320   30.0650 C.2     1  UNL1       -0.0042
      8 C         -25.3870   -0.6790   31.5710 C.3     1  UNL1        0.0941
      9 C         -25.1890    0.7730   32.0280 C.3     1  UNL1        0.1033
     10 C         -25.3360    0.6840   33.5440 C.3     1  UNL1        0.0386
     11 C         -24.8290   -0.7150   33.9050 C.3     1  UNL1        0.0902
     12 N         -24.7580   -1.4810   32.6460 N.3     1  UNL1       -0.2176
     13 C         -25.6880    1.6140   26.4610 C.2     1  UNL1        0.0920
     14 C         -26.2500    2.9200   26.3950 C.2     1  UNL1        0.0902
     15 C         -25.6420    4.0930   27.1230 C.2     1  UNL1        0.2676
     16 N         -25.6140    5.2520   26.4490 N.am    1  UNL1       -0.1997
     17 C         -25.0260    6.4790   26.9630 C.3     1  UNL1        0.1388
     18 O         -25.1430    3.9660   28.2430 O.2     1  UNL1       -0.2683
     19 C         -27.4380    3.0910   25.6450 C.2     1  UNL1        0.1080
     20 N         -28.0750    2.0890   25.0030 N.2     1  UNL1       -0.2080
     21 C         -27.5430    0.8490   25.0790 C.2     1  UNL1        0.2546
     22 O         -28.1930   -0.2080   24.4770 O.2     1  UNL1       -0.4558
     23 C         -29.4600    0.0050   23.8660 C.3     1  UNL1        0.2426
     24 C         -30.0650   -1.3770   23.5730 C.3     1  UNL1        0.2292
     25 O         -30.7290   -1.8780   24.7210 O.3     1  UNL1       -0.2162
     26 C         -26.3540    0.5760   25.7770 C.2     1  UNL1        0.2066
     27 F         -25.8600   -0.6810   25.7950 F       1  UNL1       -0.1979
     28 C         -27.0557    4.4221   31.0022 C.3     1  UNL1        0.1954
     29 N         -26.0478    1.8522   31.4933 N.3     1  UNL1       -0.1508
     30 C         -23.6329    1.4679   27.7494 C.3     1  UNL1        0.1120
     31 N         -24.5361    1.9455   29.8664 N.3     1  UNL1       -0.1950
     32 C         -23.3219    2.0161   25.9282 C.2     1  UNL1        0.2326
     33 N         -24.5892    1.3211   27.0580 N.am    1  UNL1       -0.2556
     34 C         -22.2772    1.1006   29.6869 C.2     1  UNL1        0.0856
     35 N         -21.2204    1.0888   28.7889 N.2     1  UNL1       -0.2715
     36 C         -27.2658    3.5350   32.0938 C.3     1  UNL1        0.2017
     37 C         -22.6490    1.6583   27.0168 C.3     1  UNL1        0.1215
     38 C         -21.3349    1.3904   27.4385 C.3     1  UNL1        0.1360
     39 C         -25.7466    2.5345   30.2800 C.3     1  UNL1        0.1592
     40 F         -27.3287    5.5448   31.8607 F       1  UNL1       -0.2344
     41 O         -25.8832    3.0010   32.1992 O.3     1  UNL1       -0.2781
     42 O         -23.2725    2.6008   24.8625 O.2     1  UNL1       -0.2744
     43 C         -25.6691    4.0686   30.4459 C.3     1  UNL1        0.0742
     44 C         -23.5389    1.4947   29.1531 C.3     1  UNL1        0.1338
@<TRIPOS>BOND
     1     2     7    1
     2     2     1    1
     3     3     2    2
     4     4     3    1
     5     4     5    2
     6     5     6    1
     7     6     7    2
     8     8     1    1
     9     8     9    1
    10     8    12    1
    11     9    10    1
    12    10    11    1
    13    12    11    1
    14    13    33    1
    15    14    13    1
    16    14    15    1
    17    15    18    2
    18    16    17    1
    19    16    15    1
    20    19    14    2
    21    20    21    2
    22    20    19    1
    23    21    26    1
    24    22    21    1
    25    23    22    1
    26    24    23    1
    27    24    25    1
    28    26    27    1
    29    26    13    2
    30    28    40    1
    31    28    36    1
    32    29     9    1
    33    29    41    1
    34    30    33    1
    35    30    44    1
    36    32    37    1
    37    32    33   am
    38    35    34    2
    39    36    41    1
    40    37    38    1
    41    37    30    1
    42    38    35    1
    43    39    31    1
    44    39    43    1
    45    39    29    1
    46    42    32    2
    47    43    28    1
    48    44    34    1
    49    44    31    1
