@<TRIPOS>MOLECULE
No_4366-gen_results/8p0m/2024-11-27-11-27-31/
 35 40 0 0 0
SMALL
GASTEIGER

@<TRIPOS>ATOM
      1 C         -28.0162   -0.8135   28.8779 C.ar    1  UNL1        0.0273
      2 C         -28.4690   -0.7850   29.8287 C.ar    1  UNL1        0.0772
      3 C         -26.5455   -0.8762   28.8500 C.ar    1  UNL1        0.1031
      4 C         -25.8041   -1.0324   30.0571 C.ar    1  UNL1        0.0209
      5 C         -26.5373   -1.0386   31.2171 C.ar    1  UNL1        0.0018
      6 C         -27.8843   -0.9532   31.1862 C.ar    1  UNL1        0.0065
      7 C         -24.3555   -1.1121   30.0346 C.ar    1  UNL1        0.0209
      8 C         -23.7079   -1.1920   30.8827 C.ar    1  UNL1        0.0016
      9 C         -22.1991   -1.0954   30.9345 C.ar    1  UNL1        0.0001
     10 C         -21.6564   -0.8348   29.7237 C.ar    1  UNL1        0.0016
     11 C         -22.4112   -0.6494   28.5512 C.ar    1  UNL1        0.0209
     12 C         -23.8549   -0.7780   28.7009 C.ar    1  UNL1        0.1029
     13 N         -25.8281   -0.8194   27.7150 N.ar    1  UNL1       -0.1480
     14 N         -24.6117   -0.6376   27.6323 N.ar    1  UNL1       -0.1480
     15 C         -30.0583   -0.7584   29.9501 C.2     1  UNL1        0.3413
     16 O         -30.5964   -0.0532   29.2644 O.3     1  UNL1       -0.4450
     17 O         -30.6382   -1.2436   30.9967 O.2     1  UNL1       -0.2449
     18 C         -31.8537   -0.3602   28.6282 C.3     1  UNL1        0.2151
     19 C         -32.4564    0.8167   28.0947 C.3     1  UNL1        0.0932
     20 C         -31.9409    2.0122   28.2415 C.ar    1  UNL1        0.0625
     21 N         -31.4265    2.7105   27.6461 N.ar    1  UNL1       -0.2480
     22 C         -30.4850    3.6424   27.9284 C.ar    1  UNL1        0.0982
     23 C         -29.7208    3.6731   28.6011 C.ar    1  UNL1        0.0177
     24 C         -30.1805    3.0704   29.9453 C.ar    1  UNL1       -0.0051
     25 C         -29.4731    3.1188   31.2041 C.3     1  UNL1        0.0801
     26 C         -31.2526    2.1571   29.6743 C.ar    1  UNL1        0.0119
     27 N         -28.2212    2.9608   31.3336 N.3     1  UNL1       -0.2716
     28 C         -27.6434    2.6608   32.5074 C.3     1  UNL1        0.0577
     29 C         -30.2753    3.4407   32.3386 C.3     1  UNL1        0.0205
     30 C         -29.6798    3.2493   33.6310 C.3     1  UNL1        0.0031
     31 C         -28.2788    2.9493   33.7071 C.3     1  UNL1        0.0160
     32 C         -27.3638    2.3950   30.2022 C.3     1  UNL1        0.0723
     33 C         -25.9672    2.8809   30.3816 C.3     1  UNL1        0.0174
     34 C         -25.3331    2.5185   31.6432 C.3     1  UNL1        0.0028
     35 C         -26.1656    2.6314   32.7133 C.3     1  UNL1        0.0160
@<TRIPOS>BOND
     1     2    15    1
     2    15    16    1
     3    15    17    2
     4    16    18    1
     5    18    19    1
     6    19    20    1
     7    24    25    1
     8    25    27    1
     9    27    28    1
    10    25    29    1
    11    30    31    1
    12    27    32    1
    13    33    34    1
    14    28    35    1
    15    35    34    1
    16    33    32    1
    17    29    30    1
    18    31    28    1
    19     7     8   ar
    20     8     9   ar
    21     9    10   ar
    22    10    11   ar
    23    11    12   ar
    24    20    21   ar
    25    21    22   ar
    26    22    23   ar
    27    23    24   ar
    28    24    26   ar
    29    26    20   ar
    30     1     2   ar
    31     2     6   ar
    32     6     5   ar
    33     5     4   ar
    34     3     1   ar
    35     3     4   ar
    36     4     7   ar
    37     7    12   ar
    38    12    14   ar
    39    14    13   ar
    40    13     3   ar
