@<TRIPOS>MOLECULE
No_4367-gen_results/8p0m/2024-11-27-11-27-31/
 10 11 0 0 0
SMALL
GASTEIGER

@<TRIPOS>ATOM
      1 C         -28.0162   -0.8135   28.8779 C.ar    1  UNL1        0.0000
      2 C         -27.0636   -0.1190   28.6079 C.ar    1  UNL1        0.0000
      3 C         -26.8756    1.1325   28.9134 C.ar    1  UNL1        0.0000
      4 C         -27.9014    1.8066   29.6436 C.ar    1  UNL1        0.0000
      5 C         -28.9449    1.0388   30.0360 C.ar    1  UNL1        0.0000
      6 C         -29.0268   -0.2874   29.7018 C.ar    1  UNL1        0.0000
      7 C         -25.6779    1.9318   28.4655 C.ar    1  UNL1        0.0000
      8 C         -24.9420    1.7325   27.6477 C.ar    1  UNL1        0.0000
      9 C         -24.9108    0.4782   26.9237 C.ar    1  UNL1        0.0000
     10 C         -26.0061   -0.6191   27.6026 C.ar    1  UNL1        0.0000
@<TRIPOS>BOND
     1     1     2   ar
     2     3     4   ar
     3     4     5   ar
     4     5     6   ar
     5     6     1   ar
     6     2     3   ar
     7     3     7   ar
     8     7     8   ar
     9     8     9   ar
    10     9    10   ar
    11    10     2   ar
