@<TRIPOS>MOLECULE
No_4368-gen_results/8p0m/2024-11-27-11-27-31/
 14 15 0 0 0
SMALL
GASTEIGER

@<TRIPOS>ATOM
      1 C         -28.0162   -0.8135   28.8779 C.ar    1  UNL1        0.0001
      2 C         -27.0636   -0.1189   28.6079 C.ar    1  UNL1        0.0000
      3 C         -26.9716    0.7139   27.5060 C.ar    1  UNL1        0.0001
      4 C         -28.1053    0.7744   26.6421 C.ar    1  UNL1        0.0045
      5 C         -29.2008    0.1044   27.0527 C.ar    1  UNL1        0.0539
      6 C         -29.2096   -0.6029   28.1853 C.ar    1  UNL1        0.0045
      7 C         -30.3702    0.2264   26.1604 C.2     1  UNL1        0.2527
      8 O         -30.3387    0.2161   24.9661 O.2     1  UNL1       -0.2696
      9 N         -31.6346    0.1197   26.7803 N.am    1  UNL1       -0.2540
     10 C         -31.8525    0.1404   28.1725 C.2     1  UNL1        0.0632
     11 C         -32.8083    0.1921   25.8736 C.3     1  UNL1        0.1029
     12 C         -33.1370    0.5291   28.4341 C.2     1  UNL1       -0.0086
     13 C         -33.8732    0.4017   27.2306 C.3     1  UNL1        0.0435
     14 C         -34.8692   -0.7312   27.1299 C.3     1  UNL1        0.0065
@<TRIPOS>BOND
     1     5     7    1
     2     7     8    2
     3     7     9   am
     4     9    10    1
     5     9    11    1
     6    10    12    2
     7    11    13    1
     8    12    13    1
     9    13    14    1
    10     1     2   ar
    11     2     3   ar
    12     3     4   ar
    13     4     5   ar
    14     5     6   ar
    15     6     1   ar
