@<TRIPOS>MOLECULE
outputs/IAG933/test6/raw/output_4369_IAG933_linker_design_.xyz
 41 45 0 0 0
SMALL
GASTEIGER

@<TRIPOS>ATOM
      1 C         -24.8550   -1.0120   30.1430 C.3     1  UNL1        0.1719
      2 C         -24.9730   -2.5050   29.7880 C.2     1  UNL1        0.0011
      3 C         -23.9060   -3.1730   29.1460 C.2     1  UNL1       -0.0026
      4 C         -23.9890   -4.5490   28.8530 C.2     1  UNL1       -0.0003
      5 C         -25.1370   -5.2800   29.2050 C.2     1  UNL1       -0.0000
      6 C         -26.2320   -4.6110   29.7840 C.2     1  UNL1       -0.0003
      7 C         -26.1550   -3.2320   30.0650 C.2     1  UNL1       -0.0026
      8 C         -25.3870   -0.6790   31.5710 C.3     1  UNL1        0.0992
      9 C         -25.1890    0.7730   32.0280 C.3     1  UNL1        0.0210
     10 C         -25.3360    0.6840   33.5440 C.3     1  UNL1        0.0203
     11 C         -24.8290   -0.7150   33.9050 C.3     1  UNL1        0.0888
     12 N         -24.7580   -1.4810   32.6460 N.3     1  UNL1       -0.2174
     13 C         -25.6880    1.6140   26.4610 C.3     1  UNL1        0.0932
     14 C         -26.2500    2.9200   26.3950 C.2     1  UNL1        0.0587
     15 C         -25.6420    4.0930   27.1230 C.2     1  UNL1        0.2627
     16 N         -25.6140    5.2520   26.4490 N.am    1  UNL1       -0.2000
     17 C         -25.0260    6.4790   26.9630 C.3     1  UNL1        0.1388
     18 O         -25.1430    3.9660   28.2430 O.2     1  UNL1       -0.2686
     19 C         -27.4380    3.0910   25.6450 C.2     1  UNL1        0.1025
     20 N         -28.0750    2.0890   25.0030 N.2     1  UNL1       -0.2118
     21 C         -27.5430    0.8490   25.0790 C.2     1  UNL1        0.2344
     22 O         -28.1930   -0.2080   24.4770 O.2     1  UNL1       -0.4585
     23 C         -29.4600    0.0050   23.8660 C.3     1  UNL1        0.2423
     24 C         -30.0650   -1.3770   23.5730 C.3     1  UNL1        0.2292
     25 O         -30.7290   -1.8780   24.7210 O.3     1  UNL1       -0.2162
     26 C         -26.3540    0.5760   25.7770 C.3     1  UNL1        0.2438
     27 F         -25.8600   -0.6810   25.7950 F       1  UNL1       -0.2265
     28 C         -20.1154    0.1192   28.5595 C.3     1  UNL1        0.0447
     29 C         -23.9121    0.9105   27.9792 C.2     1  UNL1        0.1423
     30 C         -23.3559    2.2028   25.9394 C.3     1  UNL1        0.2292
     31 C         -22.7068    1.1215   28.4079 C.2     1  UNL1        0.2285
     32 O         -22.0402    2.2709   26.3205 O.2     1  UNL1       -0.4720
     33 S         -25.4429    0.1796   28.8972 S.O2    1  UNL1        0.0148
     34 O         -21.9207   -0.3654   29.9326 O.3     1  UNL1       -0.1726
     35 C         -21.2520   -0.7617   28.8338 C.3     1  UNL1        0.1959
     36 C         -24.3053    1.5074   26.8277 C.2     1  UNL1        0.0264
     37 O         -22.3778    0.7998   29.7140 O.2     1  UNL1       -0.3294
     38 C         -20.3537    1.4807   28.0028 C.3     1  UNL1        0.0701
     39 O         -26.4178   -0.7105   28.1969 O.2     1  UNL1       -0.1682
     40 O         -26.0278    1.3882   29.2922 O.2     1  UNL1       -0.1682
     41 C         -21.6458    1.6755   27.5064 C.2     1  UNL1        0.1554
@<TRIPOS>BOND
     1     1    33    1
     2     2     7    1
     3     2     1    1
     4     3     2    2
     5     4     3    1
     6     4     5    2
     7     5     6    1
     8     6     7    2
     9     8     1    1
    10     8     9    1
    11     8    12    1
    12     9    10    1
    13    10    11    1
    14    12    11    1
    15    13    36    1
    16    14    13    1
    17    14    15    1
    18    15    18    2
    19    16    17    1
    20    16    15    1
    21    19    14    2
    22    20    21    2
    23    20    19    1
    24    21    26    1
    25    22    21    1
    26    23    22    1
    27    24    23    1
    28    24    25    1
    29    26    27    1
    30    26    13    1
    31    28    35    1
    32    29    31    1
    33    29    33    1
    34    30    32    1
    35    30    36    1
    36    31    37    1
    37    32    41    1
    38    33    40    2
    39    35    34    1
    40    36    29    2
    41    37    34    1
    42    38    28    1
    43    39    33    2
    44    41    38    1
    45    41    31    2
