@<TRIPOS>MOLECULE
outputs/IAG933/test6/raw/output_437_IAG933_linker_design_.xyz
 44 48 0 0 0
SMALL
GASTEIGER

@<TRIPOS>ATOM
      1 C         -24.8550   -1.0120   30.1430 C.3     1  UNL1        0.0562
      2 C         -24.9730   -2.5050   29.7880 C.2     1  UNL1       -0.0197
      3 C         -23.9060   -3.1730   29.1460 C.2     1  UNL1       -0.0042
      4 C         -23.9890   -4.5490   28.8530 C.2     1  UNL1       -0.0003
      5 C         -25.1370   -5.2800   29.2050 C.2     1  UNL1       -0.0000
      6 C         -26.2320   -4.6110   29.7840 C.2     1  UNL1       -0.0003
      7 C         -26.1550   -3.2320   30.0650 C.2     1  UNL1       -0.0042
      8 C         -25.3870   -0.6790   31.5710 C.3     1  UNL1        0.0782
      9 C         -25.1890    0.7730   32.0280 C.3     1  UNL1        0.0192
     10 C         -25.3360    0.6840   33.5440 C.3     1  UNL1        0.0202
     11 C         -24.8290   -0.7150   33.9050 C.3     1  UNL1        0.0887
     12 N         -24.7580   -1.4810   32.6460 N.3     1  UNL1       -0.2191
     13 C         -25.6880    1.6140   26.4610 C.3     1  UNL1        0.1289
     14 C         -26.2500    2.9200   26.3950 C.2     1  UNL1        0.0696
     15 C         -25.6420    4.0930   27.1230 C.2     1  UNL1        0.2637
     16 N         -25.6140    5.2520   26.4490 N.am    1  UNL1       -0.2000
     17 C         -25.0260    6.4790   26.9630 C.3     1  UNL1        0.1388
     18 O         -25.1430    3.9660   28.2430 O.2     1  UNL1       -0.2686
     19 C         -27.4380    3.0910   25.6450 C.2     1  UNL1        0.1035
     20 N         -28.0750    2.0890   25.0030 N.2     1  UNL1       -0.2118
     21 C         -27.5430    0.8490   25.0790 C.2     1  UNL1        0.2355
     22 O         -28.1930   -0.2080   24.4770 O.2     1  UNL1       -0.4585
     23 C         -29.4600    0.0050   23.8660 C.3     1  UNL1        0.2423
     24 C         -30.0650   -1.3770   23.5730 C.3     1  UNL1        0.2292
     25 O         -30.7290   -1.8780   24.7210 O.3     1  UNL1       -0.2162
     26 C         -26.3540    0.5760   25.7770 C.3     1  UNL1        0.2546
     27 F         -25.8600   -0.6810   25.7950 F       1  UNL1       -0.2254
     28 CL        -21.9883    2.4470   25.3467 Cl      1  UNL1       -0.0854
     29 N         -26.4620    0.5058   28.8062 N.3     1  UNL1       -0.1911
     30 C         -23.6953    1.4740   27.0083 C.3     1  UNL1        0.1114
     31 C         -30.8962    2.3314   29.0511 C.3     1  UNL1        0.0348
     32 O         -22.2585   -0.2468   29.7080 O.2     1  UNL1       -0.2899
     33 C         -29.9011    0.1944   28.4995 C.3     1  UNL1        0.1828
     34 C         -22.7770    0.5294   28.8485 C.2     1  UNL1        0.1894
     35 N         -24.6476    1.2710   27.4643 N.3     1  UNL1       -0.2567
     36 C         -29.8038    1.7317   28.5219 C.3     1  UNL1        0.1472
     37 C         -21.9229    1.2225   27.8233 C.2     1  UNL1        0.0473
     38 C         -25.1779    0.0543   29.2392 C.3     1  UNL1        0.1026
     39 O         -29.8176   -0.4658   27.2056 O.3     1  UNL1       -0.2204
     40 C         -27.7662    0.8278   29.3497 C.3     1  UNL1        0.1918
     41 C         -22.5619    1.7843   26.7713 C.2     1  UNL1        0.0545
     42 O         -28.6560    2.0407   29.2130 O.3     1  UNL1       -0.3394
     43 C         -28.7218   -0.3565   29.1885 C.3     1  UNL1        0.0834
     44 C         -24.1859    0.6301   28.5782 C.3     1  UNL1        0.1371
@<TRIPOS>BOND
     1     1    38    1
     2     2     7    1
     3     2     1    1
     4     3     2    2
     5     4     3    1
     6     4     5    2
     7     5     6    1
     8     6     7    2
     9     8     1    1
    10     8     9    1
    11     8    12    1
    12     9    10    1
    13    10    11    1
    14    12    11    1
    15    13    14    1
    16    13    35    1
    17    14    15    1
    18    15    18    2
    19    16    17    1
    20    16    15    1
    21    19    14    2
    22    20    21    2
    23    20    19    1
    24    21    26    1
    25    22    21    1
    26    23    22    1
    27    24    23    1
    28    24    25    1
    29    26    27    1
    30    26    13    1
    31    28    41    1
    32    33    39    1
    33    33    36    1
    34    33    43    1
    35    34    32    2
    36    35    30    1
    37    35    44    1
    38    36    31    1
    39    36    42    1
    40    37    34    1
    41    38    29    1
    42    40    29    1
    43    41    30    1
    44    41    37    2
    45    42    40    1
    46    43    40    1
    47    44    34    1
    48    44    38    1
