@<TRIPOS>MOLECULE
outputs/IAG933/test6/raw/output_4370_IAG933_linker_design_.xyz
 42 45 0 0 0
SMALL
GASTEIGER

@<TRIPOS>ATOM
      1 C         -24.8550   -1.0120   30.1430 C.3     1  UNL1        0.0660
      2 C         -24.9730   -2.5050   29.7880 C.2     1  UNL1       -0.0171
      3 C         -23.9060   -3.1730   29.1460 C.2     1  UNL1       -0.0039
      4 C         -23.9890   -4.5490   28.8530 C.2     1  UNL1       -0.0003
      5 C         -25.1370   -5.2800   29.2050 C.2     1  UNL1       -0.0000
      6 C         -26.2320   -4.6110   29.7840 C.2     1  UNL1       -0.0003
      7 C         -26.1550   -3.2320   30.0650 C.2     1  UNL1       -0.0039
      8 C         -25.3870   -0.6790   31.5710 C.3     1  UNL1        0.0809
      9 C         -25.1890    0.7730   32.0280 C.3     1  UNL1        0.0195
     10 C         -25.3360    0.6840   33.5440 C.3     1  UNL1        0.0203
     11 C         -24.8290   -0.7150   33.9050 C.3     1  UNL1        0.0887
     12 N         -24.7580   -1.4810   32.6460 N.3     1  UNL1       -0.2188
     13 C         -25.6880    1.6140   26.4610 C.2     1  UNL1        0.1767
     14 C         -26.2500    2.9200   26.3950 C.2     1  UNL1        0.1135
     15 C         -25.6420    4.0930   27.1230 C.2     1  UNL1        0.2698
     16 N         -25.6140    5.2520   26.4490 N.am    1  UNL1       -0.1996
     17 C         -25.0260    6.4790   26.9630 C.3     1  UNL1        0.1388
     18 O         -25.1430    3.9660   28.2430 O.2     1  UNL1       -0.2682
     19 C         -27.4380    3.0910   25.6450 C.2     1  UNL1        0.1102
     20 N         -28.0750    2.0890   25.0030 N.2     1  UNL1       -0.2078
     21 C         -27.5430    0.8490   25.0790 C.2     1  UNL1        0.2568
     22 O         -28.1930   -0.2080   24.4770 O.2     1  UNL1       -0.4557
     23 C         -29.4600    0.0050   23.8660 C.3     1  UNL1        0.2426
     24 C         -30.0650   -1.3770   23.5730 C.3     1  UNL1        0.2292
     25 O         -30.7290   -1.8780   24.7210 O.3     1  UNL1       -0.2162
     26 C         -26.3540    0.5760   25.7770 C.2     1  UNL1        0.2297
     27 F         -25.8600   -0.6810   25.7950 F       1  UNL1       -0.1956
     28 C         -30.7524    3.3653   30.5519 C.3     1  UNL1        0.0897
     29 C         -25.5343   -0.2023   28.9810 C.2     1  UNL1        0.0702
     30 C         -21.1490    1.6736   27.6042 C.3     1  UNL1        0.0598
     31 N         -24.6215    1.2392   27.2259 N.pl3   1  UNL1       -0.1660
     32 C         -23.3999    1.5833   26.5604 C.3     1  UNL1        0.2580
     33 C         -24.5129    0.5245   28.3303 C.2     1  UNL1        0.3079
     34 C         -29.7289    2.6479   28.7424 C.3     1  UNL1        0.0748
     35 O         -27.9549    0.7237   29.0856 O.3     1  UNL1       -0.3490
     36 C         -22.7081    1.5604   27.5710 C.3     1  UNL1        0.2515
     37 N         -23.1729    0.6236   28.5572 N.pl3   1  UNL1       -0.0366
     38 C         -30.4116    1.2835   28.6506 C.3     1  UNL1        0.0494
     39 C         -28.4257    3.0027   31.2251 C.3     1  UNL1        0.0897
     40 C         -27.0702   -0.3237   28.6498 C.3     1  UNL1        0.1718
     41 C         -29.3050    0.2623   28.9136 C.3     1  UNL1        0.1441
     42 N         -29.5471    2.8537   30.2622 N.3     1  UNL1       -0.2702
@<TRIPOS>BOND
     1     1    29    1
     2     2     7    1
     3     2     1    1
     4     3     2    2
     5     4     3    1
     6     4     5    2
     7     5     6    1
     8     6     7    2
     9     8     1    1
    10     8     9    1
    11     8    12    1
    12     9    10    1
    13    10    11    1
    14    12    11    1
    15    13    31    1
    16    14    13    1
    17    14    15    1
    18    15    18    2
    19    16    17    1
    20    16    15    1
    21    19    14    2
    22    20    21    2
    23    20    19    1
    24    21    26    1
    25    22    21    1
    26    23    22    1
    27    24    23    1
    28    24    25    1
    29    26    27    1
    30    26    13    2
    31    31    33    1
    32    32    31    1
    33    32    36    1
    34    33    37    1
    35    33    29    2
    36    34    42    1
    37    36    30    1
    38    36    37    1
    39    38    34    1
    40    38    41    1
    41    40    29    1
    42    40    35    1
    43    41    35    1
    44    42    28    1
    45    42    39    1
