@<TRIPOS>MOLECULE
No_4372-gen_results/8p0m/2024-11-27-11-27-31/
 35 38 0 0 0
SMALL
GASTEIGER

@<TRIPOS>ATOM
      1 C         -28.0162   -0.8135   28.8779 C.ar    1  UNL1        0.0773
      2 C         -27.0636   -0.1189   28.6079 C.ar    1  UNL1        0.0065
      3 C         -27.0010    0.6913   27.4910 C.ar    1  UNL1        0.0016
      4 C         -28.1373    0.7363   26.6350 C.ar    1  UNL1        0.0145
      5 C         -29.2360    0.0765   27.0690 C.ar    1  UNL1        0.0480
      6 C         -29.2177   -0.6429   28.1747 C.ar    1  UNL1        0.0210
      7 N         -30.3516    0.1564   26.2430 N.pl3   1  UNL1       -0.3091
      8 C         -30.2688    0.1234   24.9366 C.3     1  UNL1        0.0728
      9 C         -29.6118   -0.5250   24.3822 C.3     1  UNL1        0.0214
     10 C         -31.6880    0.1773   24.3386 C.3     1  UNL1        0.0198
     11 C         -31.6045    0.2495   26.9916 C.3     1  UNL1        0.0907
     12 C         -32.6902    0.5689   26.2687 C.3     1  UNL1        0.0215
     13 C         -32.7852    0.6329   24.9352 C.3     1  UNL1        0.0035
     14 C         -28.0651   -1.6421   30.1762 C.2     1  UNL1        0.3457
     15 O         -28.5892   -1.5746   31.0373 O.2     1  UNL1       -0.2445
     16 O         -27.1099   -2.6964   29.9773 O.3     1  UNL1       -0.4210
     17 C         -25.8247   -2.4111   29.7462 C.ar    1  UNL1        0.1490
     18 C         -25.2576   -3.2178   28.8388 C.ar    1  UNL1        0.0376
     19 C         -23.8497   -2.9795   28.5827 C.ar    1  UNL1        0.0033
     20 C         -23.1712   -1.8694   29.1547 C.ar    1  UNL1        0.0068
     21 C         -23.8777   -1.1068   30.1238 C.ar    1  UNL1        0.0828
     22 C         -25.1779   -1.3767   30.4462 C.ar    1  UNL1        0.0442
     23 C         -23.1184   -0.0624   30.8401 C.2     1  UNL1        0.3879
     24 O         -23.6326    0.5746   31.7764 O.co2   1  UNL1       -0.2406
     25 O         -21.9374    0.2379   30.3532 O.co2   1  UNL1       -0.2406
     26 C         -25.7730    1.4227   27.0159 C.ar    1  UNL1        0.0063
     27 C         -25.0637    1.1254   26.0945 C.ar    1  UNL1        0.0002
     28 C         -23.7767    1.7599   25.8494 C.ar    1  UNL1        0.0000
     29 C         -23.3467    2.6555   26.8440 C.ar    1  UNL1        0.0002
     30 C         -25.1667    2.3318   28.0420 C.ar    1  UNL1        0.0756
     31 C         -26.0178    2.7011   29.2570 C.2     1  UNL1        0.3413
     32 C         -23.9030    2.9970   27.9324 C.ar    1  UNL1        0.0064
     33 O         -27.0039    2.9731   29.2741 O.2     1  UNL1       -0.2449
     34 O         -25.1682    3.0176   30.3388 O.3     1  UNL1       -0.4413
     35 C         -25.8356    3.2170   31.5405 C.3     1  UNL1        0.2560
@<TRIPOS>BOND
     1     5     7    1
     2     7     8    1
     3     8     9    1
     4     8    10    1
     5     7    11    1
     6    12    13    1
     7     1    14    1
     8    14    15    2
     9    14    16    1
    10    16    17    1
    11    21    23    1
    12    23    24   ar
    13    23    25   ar
    14     3    26    1
    15    30    31    1
    16    31    33    2
    17    31    34    1
    18    34    35    1
    19    10    13    1
    20    12    11    1
    21    17    18   ar
    22    18    19   ar
    23    19    20   ar
    24    20    21   ar
    25    21    22   ar
    26    22    17   ar
    27     1     2   ar
    28     2     3   ar
    29     3     4   ar
    30     4     5   ar
    31     5     6   ar
    32     6     1   ar
    33    26    27   ar
    34    27    28   ar
    35    28    29   ar
    36    29    32   ar
    37    32    30   ar
    38    30    26   ar
