@<TRIPOS>MOLECULE
outputs/IAG933/test6/raw/output_4376_IAG933_linker_design_.xyz
 44 47 0 0 0
SMALL
GASTEIGER

@<TRIPOS>ATOM
      1 C         -24.8550   -1.0120   30.1430 C.3     1  UNL1        0.1116
      2 C         -24.9730   -2.5050   29.7880 C.2     1  UNL1       -0.0030
      3 C         -23.9060   -3.1730   29.1460 C.2     1  UNL1       -0.0026
      4 C         -23.9890   -4.5490   28.8530 C.2     1  UNL1       -0.0003
      5 C         -25.1370   -5.2800   29.2050 C.2     1  UNL1       -0.0000
      6 C         -26.2320   -4.6110   29.7840 C.2     1  UNL1       -0.0003
      7 C         -26.1550   -3.2320   30.0650 C.2     1  UNL1       -0.0026
      8 C         -25.3870   -0.6790   31.5710 C.3     1  UNL1        0.0950
      9 C         -25.1890    0.7730   32.0280 C.3     1  UNL1        0.0209
     10 C         -25.3360    0.6840   33.5440 C.3     1  UNL1        0.0203
     11 C         -24.8290   -0.7150   33.9050 C.3     1  UNL1        0.0888
     12 N         -24.7580   -1.4810   32.6460 N.3     1  UNL1       -0.2174
     13 C         -25.6880    1.6140   26.4610 C.2     1  UNL1        0.0415
     14 C         -26.2500    2.9200   26.3950 C.2     1  UNL1        0.0767
     15 C         -25.6420    4.0930   27.1230 C.2     1  UNL1        0.2664
     16 N         -25.6140    5.2520   26.4490 N.am    1  UNL1       -0.1997
     17 C         -25.0260    6.4790   26.9630 C.3     1  UNL1        0.1388
     18 O         -25.1430    3.9660   28.2430 O.2     1  UNL1       -0.2683
     19 C         -27.4380    3.0910   25.6450 C.2     1  UNL1        0.1067
     20 N         -28.0750    2.0890   25.0030 N.2     1  UNL1       -0.2081
     21 C         -27.5430    0.8490   25.0790 C.2     1  UNL1        0.2533
     22 O         -28.1930   -0.2080   24.4770 O.2     1  UNL1       -0.4558
     23 C         -29.4600    0.0050   23.8660 C.3     1  UNL1        0.2426
     24 C         -30.0650   -1.3770   23.5730 C.3     1  UNL1        0.2292
     25 O         -30.7290   -1.8780   24.7210 O.3     1  UNL1       -0.2162
     26 C         -26.3540    0.5760   25.7770 C.2     1  UNL1        0.1932
     27 F         -25.8600   -0.6810   25.7950 F       1  UNL1       -0.1992
     28 C         -24.5179    0.4440   28.3292 C.2     1  UNL1        0.0528
     29 C         -22.6630    0.4189   29.4186 C.2     1  UNL1        0.0037
     30 C         -30.2288   -2.9426   30.4812 C.2     1  UNL1        0.3493
     31 C         -24.5188    1.1617   27.1233 C.2     1  UNL1        0.0456
     32 O         -31.3708   -3.2435   29.7589 O.2     1  UNL1       -0.2442
     33 O         -29.4044   -3.9159   30.8464 O.3     1  UNL1       -0.4409
     34 C         -29.6914   -4.2697   32.2160 C.3     1  UNL1        0.2560
     35 F         -21.1873    1.6524   27.5355 F       1  UNL1       -0.2018
     36 C         -26.8448    0.2623   29.1218 C.3     1  UNL1        0.1260
     37 F         -22.9494    2.0572   25.4825 F       1  UNL1       -0.2018
     38 C         -23.2921    0.5855   28.6706 C.2     1  UNL1        0.0431
     39 C         -28.1277   -0.4631   28.8536 C.2     1  UNL1        0.0370
     40 C         -23.2598    1.5055   26.6114 C.2     1  UNL1        0.1686
     41 C         -29.1392   -0.8214   29.8941 C.1     1  UNL1       -0.0969
     42 C         -22.4402    1.0760   27.6059 C.2     1  UNL1        0.1685
     43 C         -29.8540   -1.6313   30.8833 C.2     1  UNL1        0.1230
     44 N         -25.4973   -0.1555   29.0921 N.pl3   1  UNL1       -0.2995
@<TRIPOS>BOND
     1     1    44    1
     2     2     7    1
     3     2     1    1
     4     3     2    2
     5     4     3    1
     6     4     5    2
     7     5     6    1
     8     6     7    2
     9     8     1    1
    10     8     9    1
    11     8    12    1
    12     9    10    1
    13    10    11    1
    14    12    11    1
    15    13    31    1
    16    14    13    1
    17    14    15    1
    18    15    18    2
    19    16    17    1
    20    16    15    1
    21    19    14    2
    22    20    21    2
    23    20    19    1
    24    21    26    1
    25    22    21    1
    26    23    22    1
    27    24    23    1
    28    24    25    1
    29    26    27    1
    30    26    13    2
    31    28    38    1
    32    28    44    1
    33    30    33    1
    34    30    43    1
    35    31    28    2
    36    32    30    2
    37    33    34    1
    38    35    42    1
    39    37    40    1
    40    38    29    2
    41    39    36    1
    42    39    41    2
    43    40    31    1
    44    40    42    2
    45    41    43    2
    46    42    38    1
    47    44    36    1
