@<TRIPOS>MOLECULE
outputs/IAG933/test6/raw/output_4377_IAG933_linker_design_.xyz
 42 45 0 0 0
SMALL
GASTEIGER

@<TRIPOS>ATOM
      1 C         -24.8550   -1.0120   30.1430 C.3     1  UNL1        0.0625
      2 C         -24.9730   -2.5050   29.7880 C.2     1  UNL1       -0.0191
      3 C         -23.9060   -3.1730   29.1460 C.2     1  UNL1       -0.0042
      4 C         -23.9890   -4.5490   28.8530 C.2     1  UNL1       -0.0003
      5 C         -25.1370   -5.2800   29.2050 C.2     1  UNL1       -0.0000
      6 C         -26.2320   -4.6110   29.7840 C.2     1  UNL1       -0.0003
      7 C         -26.1550   -3.2320   30.0650 C.2     1  UNL1       -0.0042
      8 C         -25.3870   -0.6790   31.5710 C.3     1  UNL1        0.0788
      9 C         -25.1890    0.7730   32.0280 C.3     1  UNL1        0.0193
     10 C         -25.3360    0.6840   33.5440 C.3     1  UNL1        0.0202
     11 C         -24.8290   -0.7150   33.9050 C.3     1  UNL1        0.0887
     12 N         -24.7580   -1.4810   32.6460 N.3     1  UNL1       -0.2191
     13 C         -25.6880    1.6140   26.4610 C.2     1  UNL1        0.0387
     14 C         -26.2500    2.9200   26.3950 C.2     1  UNL1        0.0766
     15 C         -25.6420    4.0930   27.1230 C.2     1  UNL1        0.2664
     16 N         -25.6140    5.2520   26.4490 N.am    1  UNL1       -0.1997
     17 C         -25.0260    6.4790   26.9630 C.3     1  UNL1        0.1388
     18 O         -25.1430    3.9660   28.2430 O.2     1  UNL1       -0.2683
     19 C         -27.4380    3.0910   25.6450 C.2     1  UNL1        0.1067
     20 N         -28.0750    2.0890   25.0030 N.2     1  UNL1       -0.2081
     21 C         -27.5430    0.8490   25.0790 C.2     1  UNL1        0.2533
     22 O         -28.1930   -0.2080   24.4770 O.2     1  UNL1       -0.4558
     23 C         -29.4600    0.0050   23.8660 C.3     1  UNL1        0.2426
     24 C         -30.0650   -1.3770   23.5730 C.3     1  UNL1        0.2292
     25 O         -30.7290   -1.8780   24.7210 O.3     1  UNL1       -0.2162
     26 C         -26.3540    0.5760   25.7770 C.2     1  UNL1        0.1931
     27 F         -25.8600   -0.6810   25.7950 F       1  UNL1       -0.1992
     28 C         -24.2111    0.5751   28.3053 C.2     1  UNL1        0.0262
     29 F         -22.3981   -0.3155   29.8214 F       1  UNL1       -0.2044
     30 C         -25.4163    0.0299   29.0416 C.3     1  UNL1        0.1250
     31 C         -22.8194    0.4084   28.7849 C.2     1  UNL1        0.1378
     32 C         -21.9176    1.8146   27.0115 C.2     1  UNL1        0.0137
     33 O         -29.7432   -0.4703   27.7244 O.3     1  UNL1       -0.2132
     34 C         -21.7241    0.9855   28.1307 C.2     1  UNL1        0.0302
     35 C         -27.8341    0.0433   29.1586 C.2     1  UNL1        0.2721
     36 C         -23.1951    1.9926   26.5303 C.2     1  UNL1        0.0576
     37 C         -29.8306   -1.4626   29.9601 C.3     1  UNL1        0.0456
     38 C         -24.3831    1.3795   27.1023 C.2     1  UNL1        0.0129
     39 C         -29.0272   -0.8645   28.8656 C.3     1  UNL1        0.2291
     40 N         -26.6852   -0.1624   28.3989 N.am    1  UNL1       -0.2001
     41 O         -27.9816    0.8932   30.0296 O.2     1  UNL1       -0.2706
     42 CL        -23.2580    3.0201   25.1592 Cl      1  UNL1       -0.0823
@<TRIPOS>BOND
     1     1    30    1
     2     2     7    1
     3     2     1    1
     4     3     2    2
     5     4     3    1
     6     4     5    2
     7     5     6    1
     8     6     7    2
     9     8     1    1
    10     8     9    1
    11     8    12    1
    12     9    10    1
    13    10    11    1
    14    12    11    1
    15    13    38    1
    16    14    13    1
    17    14    15    1
    18    15    18    2
    19    16    17    1
    20    16    15    1
    21    19    14    2
    22    20    21    2
    23    20    19    1
    24    21    26    1
    25    22    21    1
    26    23    22    1
    27    24    23    1
    28    24    25    1
    29    26    27    1
    30    26    13    2
    31    28    31    1
    32    28    30    1
    33    30    40    1
    34    31    29    1
    35    32    34    1
    36    33    39    1
    37    34    31    2
    38    35    41    2
    39    36    32    2
    40    36    38    1
    41    38    28    2
    42    39    35    1
    43    39    37    1
    44    40    35    1
    45    42    36    1
