@<TRIPOS>MOLECULE
outputs/IAG933/test6/raw/output_4378_IAG933_linker_design_.xyz
 42 45 0 0 0
SMALL
GASTEIGER

@<TRIPOS>ATOM
      1 C         -24.8550   -1.0120   30.1430 C.3     1  UNL1        0.1137
      2 C         -24.9730   -2.5050   29.7880 C.2     1  UNL1       -0.0050
      3 C         -23.9060   -3.1730   29.1460 C.2     1  UNL1       -0.0029
      4 C         -23.9890   -4.5490   28.8530 C.2     1  UNL1       -0.0003
      5 C         -25.1370   -5.2800   29.2050 C.2     1  UNL1       -0.0000
      6 C         -26.2320   -4.6110   29.7840 C.2     1  UNL1       -0.0003
      7 C         -26.1550   -3.2320   30.0650 C.2     1  UNL1       -0.0029
      8 C         -25.3870   -0.6790   31.5710 C.3     1  UNL1        0.0930
      9 C         -25.1890    0.7730   32.0280 C.3     1  UNL1        0.0206
     10 C         -25.3360    0.6840   33.5440 C.3     1  UNL1        0.0203
     11 C         -24.8290   -0.7150   33.9050 C.3     1  UNL1        0.0888
     12 N         -24.7580   -1.4810   32.6460 N.3     1  UNL1       -0.2177
     13 C         -25.6880    1.6140   26.4610 C.2     1  UNL1        0.1604
     14 C         -26.2500    2.9200   26.3950 C.2     1  UNL1        0.0901
     15 C         -25.6420    4.0930   27.1230 C.2     1  UNL1        0.2655
     16 N         -25.6140    5.2520   26.4490 N.am    1  UNL1       -0.1999
     17 C         -25.0260    6.4790   26.9630 C.3     1  UNL1        0.1388
     18 O         -25.1430    3.9660   28.2430 O.2     1  UNL1       -0.2685
     19 C         -27.4380    3.0910   25.6450 C.3     1  UNL1        0.1622
     20 N         -28.0750    2.0890   25.0030 N.2     1  UNL1       -0.2338
     21 C         -27.5430    0.8490   25.0790 C.2     1  UNL1        0.2374
     22 O         -28.1930   -0.2080   24.4770 O.2     1  UNL1       -0.4584
     23 C         -29.4600    0.0050   23.8660 C.3     1  UNL1        0.2423
     24 C         -30.0650   -1.3770   23.5730 C.3     1  UNL1        0.2292
     25 O         -30.7290   -1.8780   24.7210 O.3     1  UNL1       -0.2162
     26 C         -26.3540    0.5760   25.7770 C.3     1  UNL1        0.2910
     27 F         -25.8600   -0.6810   25.7950 F       1  UNL1       -0.2189
     28 O         -25.0392    5.2996   33.0987 O.3     1  UNL1       -0.3500
     29 O         -21.4886    2.0691   26.2117 O.2     1  UNL1       -0.3733
     30 C         -23.6838    2.1407   30.5717 C.1     1  UNL1        0.0572
     31 C         -25.3560    5.4442   34.4412 C.3     1  UNL1        0.1741
     32 O         -24.7879    1.3337   27.3958 O.2     1  UNL1       -0.4704
     33 C         -26.0959    5.0404   32.1543 C.3     1  UNL1        0.1563
     34 C         -25.7754    3.8004   31.3668 C.3     1  UNL1        0.1104
     35 N         -21.3535    1.2843   27.4218 N.2     1  UNL1       -0.0840
     36 C         -22.4672    0.8982   27.9028 C.2     1  UNL1        0.1632
     37 C         -24.6730    3.0761   31.0366 C.1     1  UNL1       -0.0591
     38 C         -23.5237    1.3109   26.9125 C.3     1  UNL1        0.2543
     39 C         -22.8602    0.1921   29.1772 C.3     1  UNL1        0.2490
     40 N         -24.1797   -0.3832   29.1994 N.3     1  UNL1       -0.1812
     41 O         -23.0006    1.2780   30.1505 O.3     1  UNL1       -0.2621
     42 C         -22.8593    1.9988   25.8179 C.3     1  UNL1        0.2877
@<TRIPOS>BOND
     1     1    40    1
     2     2     7    1
     3     2     1    1
     4     3     2    2
     5     4     3    1
     6     4     5    2
     7     5     6    1
     8     6     7    2
     9     8     1    1
    10     8     9    1
    11     8    12    1
    12     9    10    1
    13    10    11    1
    14    12    11    1
    15    13    32    1
    16    14    13    2
    17    14    15    1
    18    15    18    2
    19    16    17    1
    20    16    15    1
    21    19    14    1
    22    20    21    2
    23    20    19    1
    24    21    26    1
    25    22    21    1
    26    23    22    1
    27    24    23    1
    28    24    25    1
    29    26    27    1
    30    26    13    1
    31    28    31    1
    32    29    35    1
    33    30    37    3
    34    33    28    1
    35    34    33    1
    36    35    36    2
    37    36    39    1
    38    37    34    1
    39    38    32    1
    40    38    36    1
    41    39    40    1
    42    39    41    1
    43    41    30    1
    44    42    29    1
    45    42    38    1
