@<TRIPOS>MOLECULE
outputs/IAG933/test6/raw/output_4379_IAG933_linker_design_.xyz
 44 47 0 0 0
SMALL
GASTEIGER

@<TRIPOS>ATOM
      1 C         -24.8550   -1.0120   30.1430 C.3     1  UNL1        0.0968
      2 C         -24.9730   -2.5050   29.7880 C.2     1  UNL1       -0.0064
      3 C         -23.9060   -3.1730   29.1460 C.2     1  UNL1       -0.0029
      4 C         -23.9890   -4.5490   28.8530 C.2     1  UNL1       -0.0003
      5 C         -25.1370   -5.2800   29.2050 C.2     1  UNL1       -0.0000
      6 C         -26.2320   -4.6110   29.7840 C.2     1  UNL1       -0.0003
      7 C         -26.1550   -3.2320   30.0650 C.2     1  UNL1       -0.0029
      8 C         -25.3870   -0.6790   31.5710 C.3     1  UNL1        0.0916
      9 C         -25.1890    0.7730   32.0280 C.3     1  UNL1        0.0206
     10 C         -25.3360    0.6840   33.5440 C.3     1  UNL1        0.0203
     11 C         -24.8290   -0.7150   33.9050 C.3     1  UNL1        0.0888
     12 N         -24.7580   -1.4810   32.6460 N.3     1  UNL1       -0.2178
     13 C         -25.6880    1.6140   26.4610 C.3     1  UNL1        0.0813
     14 C         -26.2500    2.9200   26.3950 C.2     1  UNL1        0.0554
     15 C         -25.6420    4.0930   27.1230 C.2     1  UNL1        0.2625
     16 N         -25.6140    5.2520   26.4490 N.am    1  UNL1       -0.2000
     17 C         -25.0260    6.4790   26.9630 C.3     1  UNL1        0.1388
     18 O         -25.1430    3.9660   28.2430 O.2     1  UNL1       -0.2687
     19 C         -27.4380    3.0910   25.6450 C.2     1  UNL1        0.1022
     20 N         -28.0750    2.0890   25.0030 N.2     1  UNL1       -0.2119
     21 C         -27.5430    0.8490   25.0790 C.2     1  UNL1        0.2341
     22 O         -28.1930   -0.2080   24.4770 O.2     1  UNL1       -0.4585
     23 C         -29.4600    0.0050   23.8660 C.3     1  UNL1        0.2423
     24 C         -30.0650   -1.3770   23.5730 C.3     1  UNL1        0.2292
     25 O         -30.7290   -1.8780   24.7210 O.3     1  UNL1       -0.2162
     26 C         -26.3540    0.5760   25.7770 C.3     1  UNL1        0.2405
     27 F         -25.8600   -0.6810   25.7950 F       1  UNL1       -0.2269
     28 O         -23.7182    2.3695   24.8789 O.co2   1  UNL1       -0.2456
     29 O         -21.0015    1.3026   27.9837 O.2     1  UNL1       -0.2945
     30 N         -23.7404   -0.1451   29.7451 N.3     1  UNL1       -0.2601
     31 F         -26.0109    5.5889   31.3149 F       1  UNL1       -0.1965
     32 C         -24.1817    2.3948   30.4039 C.2     1  UNL1       -0.0092
     33 C         -23.5010    1.2620   28.1799 C.3     1  UNL1        0.0889
     34 C         -24.3012    1.4212   26.9030 C.3     1  UNL1        0.1193
     35 C         -23.2826    1.9632   25.8616 C.2     1  UNL1        0.3652
     36 C         -22.1462    0.9230   28.3693 C.2     1  UNL1        0.1685
     37 F         -26.8579    5.3617   33.6098 F       1  UNL1       -0.2278
     38 C         -24.2167    1.2188   29.3528 C.3     1  UNL1        0.0878
     39 F         -24.4376    4.7970   32.6075 F       1  UNL1       -0.1965
     40 C         -25.3055    3.4846   30.8449 C.2     1  UNL1        0.0385
     41 C         -26.5221    4.1139   32.9936 C.3     1  UNL1        0.2636
     42 O         -22.0676    2.2619   25.8673 O.co2   1  UNL1       -0.2456
     43 C         -22.3041   -0.1676   29.3556 C.3     1  UNL1        0.1381
     44 C         -25.5603    4.4389   31.9561 C.3     1  UNL1        0.3145
@<TRIPOS>BOND
     1     1     2    1
     2     2     7    1
     3     3     2    2
     4     4     3    1
     5     4     5    2
     6     5     6    1
     7     6     7    2
     8     8     1    1
     9     8     9    1
    10     8    12    1
    11     9    10    1
    12    10    11    1
    13    12    11    1
    14    13    34    1
    15    14    13    1
    16    14    15    1
    17    15    18    2
    18    16    17    1
    19    16    15    1
    20    19    14    2
    21    20    21    2
    22    20    19    1
    23    21    26    1
    24    22    21    1
    25    23    22    1
    26    24    23    1
    27    24    25    1
    28    26    27    1
    29    26    13    1
    30    28    35   ar
    31    29    36    2
    32    30     1    1
    33    31    44    1
    34    32    40    2
    35    33    34    1
    36    33    36    1
    37    33    38    1
    38    34    35    1
    39    35    42   ar
    40    36    43    1
    41    38    30    1
    42    38    32    1
    43    40    44    1
    44    41    37    1
    45    43    30    1
    46    44    39    1
    47    44    41    1
