@<TRIPOS>MOLECULE
outputs/IAG933/test6/raw/output_4380_IAG933_linker_design_.xyz
 42 45 0 0 0
SMALL
GASTEIGER

@<TRIPOS>ATOM
      1 C         -24.8550   -1.0120   30.1430 C.3     1  UNL1        0.0619
      2 C         -24.9730   -2.5050   29.7880 C.2     1  UNL1       -0.0170
      3 C         -23.9060   -3.1730   29.1460 C.2     1  UNL1       -0.0039
      4 C         -23.9890   -4.5490   28.8530 C.2     1  UNL1       -0.0003
      5 C         -25.1370   -5.2800   29.2050 C.2     1  UNL1       -0.0000
      6 C         -26.2320   -4.6110   29.7840 C.2     1  UNL1       -0.0003
      7 C         -26.1550   -3.2320   30.0650 C.2     1  UNL1       -0.0039
      8 C         -25.3870   -0.6790   31.5710 C.3     1  UNL1        0.0809
      9 C         -25.1890    0.7730   32.0280 C.3     1  UNL1        0.0195
     10 C         -25.3360    0.6840   33.5440 C.3     1  UNL1        0.0203
     11 C         -24.8290   -0.7150   33.9050 C.3     1  UNL1        0.0887
     12 N         -24.7580   -1.4810   32.6460 N.3     1  UNL1       -0.2188
     13 C         -25.6880    1.6140   26.4610 C.2     1  UNL1        0.0402
     14 C         -26.2500    2.9200   26.3950 C.2     1  UNL1        0.0766
     15 C         -25.6420    4.0930   27.1230 C.2     1  UNL1        0.2664
     16 N         -25.6140    5.2520   26.4490 N.am    1  UNL1       -0.1997
     17 C         -25.0260    6.4790   26.9630 C.3     1  UNL1        0.1388
     18 O         -25.1430    3.9660   28.2430 O.2     1  UNL1       -0.2683
     19 C         -27.4380    3.0910   25.6450 C.2     1  UNL1        0.1067
     20 N         -28.0750    2.0890   25.0030 N.2     1  UNL1       -0.2081
     21 C         -27.5430    0.8490   25.0790 C.2     1  UNL1        0.2533
     22 O         -28.1930   -0.2080   24.4770 O.2     1  UNL1       -0.4558
     23 C         -29.4600    0.0050   23.8660 C.3     1  UNL1        0.2426
     24 C         -30.0650   -1.3770   23.5730 C.3     1  UNL1        0.2292
     25 O         -30.7290   -1.8780   24.7210 O.3     1  UNL1       -0.2162
     26 C         -26.3540    0.5760   25.7770 C.2     1  UNL1        0.1931
     27 F         -25.8600   -0.6810   25.7950 F       1  UNL1       -0.1992
     28 C         -24.4085   -0.1989   29.2410 C.2     1  UNL1        0.0006
     29 CL        -22.7963    2.3209   25.6864 Cl      1  UNL1       -0.0799
     30 C         -29.0471    1.9897   28.1377 C.2     1  UNL1       -0.0173
     31 C         -27.7450    0.1492   28.6613 C.2     1  UNL1        0.2492
     32 C         -25.2683    0.3959   28.4302 C.2     1  UNL1        0.0707
     33 C         -24.6888    1.1966   27.3170 C.2     1  UNL1        0.0303
     34 C         -28.4995    1.8350   30.4596 C.3     1  UNL1        0.0144
     35 C         -23.0043    0.0531   29.0143 C.2     1  UNL1        0.0279
     36 C         -23.3560    1.4515   27.0551 C.2     1  UNL1        0.0863
     37 C         -28.0553    1.5834   29.0122 C.3     1  UNL1        0.1005
     38 O         -28.5867   -0.6756   28.4138 O.2     1  UNL1       -0.2726
     39 N         -26.4984   -0.1960   28.5142 N.am    1  UNL1       -0.1792
     40 C         -22.5041    0.8483   27.9594 C.2     1  UNL1        0.1504
     41 C         -30.3796    1.7363   27.9482 C.2     1  UNL1       -0.0044
     42 F         -21.2035    1.1076   27.7765 F       1  UNL1       -0.2033
@<TRIPOS>BOND
     1     1    28    1
     2     2     7    1
     3     2     1    1
     4     3     2    2
     5     4     3    1
     6     4     5    2
     7     5     6    1
     8     6     7    2
     9     8     1    1
    10     8     9    1
    11     8    12    1
    12     9    10    1
    13    10    11    1
    14    12    11    1
    15    13    33    1
    16    14    13    1
    17    14    15    1
    18    15    18    2
    19    16    17    1
    20    16    15    1
    21    19    14    2
    22    20    21    2
    23    20    19    1
    24    21    26    1
    25    22    21    1
    26    23    22    1
    27    24    23    1
    28    24    25    1
    29    26    27    1
    30    26    13    2
    31    29    36    1
    32    30    37    1
    33    31    37    1
    34    32    39    1
    35    32    28    2
    36    33    32    1
    37    35    28    1
    38    36    33    2
    39    36    40    1
    40    37    34    1
    41    38    31    2
    42    39    31    1
    43    40    35    2
    44    41    30    2
    45    42    40    1
