@<TRIPOS>MOLECULE
outputs/IAG933/test6/raw/output_4381_IAG933_linker_design_.xyz
 46 49 0 0 0
SMALL
GASTEIGER

@<TRIPOS>ATOM
      1 C         -24.8550   -1.0120   30.1430 C.3     1  UNL1        0.0437
      2 C         -24.9730   -2.5050   29.7880 C.2     1  UNL1       -0.0208
      3 C         -23.9060   -3.1730   29.1460 C.2     1  UNL1       -0.0042
      4 C         -23.9890   -4.5490   28.8530 C.2     1  UNL1       -0.0003
      5 C         -25.1370   -5.2800   29.2050 C.2     1  UNL1       -0.0000
      6 C         -26.2320   -4.6110   29.7840 C.2     1  UNL1       -0.0003
      7 C         -26.1550   -3.2320   30.0650 C.2     1  UNL1       -0.0042
      8 C         -25.3870   -0.6790   31.5710 C.3     1  UNL1        0.0774
      9 C         -25.1890    0.7730   32.0280 C.3     1  UNL1        0.0219
     10 C         -25.3360    0.6840   33.5440 C.3     1  UNL1        0.0205
     11 C         -24.8290   -0.7150   33.9050 C.3     1  UNL1        0.0887
     12 N         -24.7580   -1.4810   32.6460 N.3     1  UNL1       -0.2191
     13 C         -25.6880    1.6140   26.4610 C.3     1  UNL1        0.0861
     14 C         -26.2500    2.9200   26.3950 C.2     1  UNL1        0.0562
     15 C         -25.6420    4.0930   27.1230 C.2     1  UNL1        0.2625
     16 N         -25.6140    5.2520   26.4490 N.am    1  UNL1       -0.2000
     17 C         -25.0260    6.4790   26.9630 C.3     1  UNL1        0.1388
     18 O         -25.1430    3.9660   28.2430 O.2     1  UNL1       -0.2687
     19 C         -27.4380    3.0910   25.6450 C.2     1  UNL1        0.1022
     20 N         -28.0750    2.0890   25.0030 N.2     1  UNL1       -0.2119
     21 C         -27.5430    0.8490   25.0790 C.2     1  UNL1        0.2341
     22 O         -28.1930   -0.2080   24.4770 O.2     1  UNL1       -0.4585
     23 C         -29.4600    0.0050   23.8660 C.3     1  UNL1        0.2423
     24 C         -30.0650   -1.3770   23.5730 C.3     1  UNL1        0.2292
     25 O         -30.7290   -1.8780   24.7210 O.3     1  UNL1       -0.2162
     26 C         -26.3540    0.5760   25.7770 C.3     1  UNL1        0.2413
     27 F         -25.8600   -0.6810   25.7950 F       1  UNL1       -0.2268
     28 C         -21.7265    1.5928   27.3930 C.3     1  UNL1        0.0014
     29 C         -26.1624    8.6689   37.3542 C.3     1  UNL1        0.0253
     30 N         -24.2172    0.8083   28.2230 N.3     1  UNL1       -0.2190
     31 C         -22.9628    2.0442   26.6423 C.3     1  UNL1        0.0165
     32 N         -26.2680    7.6312   35.0808 N.am    1  UNL1       -0.2017
     33 C         -24.2689    1.1853   26.7947 C.3     1  UNL1        0.0801
     34 C         -25.4915    3.4208   31.9954 C.2     1  UNL1       -0.0224
     35 C         -26.8412    5.3453   32.5039 C.2     1  UNL1        0.0042
     36 C         -26.9658    8.2023   36.2108 C.3     1  UNL1        0.1155
     37 C         -26.5882    4.2182   31.6666 C.2     1  UNL1       -0.0041
     38 O         -26.6342    5.5238   35.8545 O.2     1  UNL1       -0.2684
     39 C         -24.7432    4.9696   33.6666 C.2     1  UNL1        0.0042
     40 C         -23.9757    2.2047   30.3509 C.3     1  UNL1        0.0232
     41 C         -24.4866    3.8255   32.9058 C.2     1  UNL1       -0.0041
     42 C         -22.7409    2.3698   25.1872 C.3     1  UNL1        0.0014
     43 C         -24.4383    1.8644   29.0184 C.3     1  UNL1        0.0890
     44 C         -25.2954    2.1348   31.2590 C.3     1  UNL1        0.0252
     45 C         -26.3149    6.2802   34.9383 C.2     1  UNL1        0.2648
     46 C         -25.9721    5.5733   33.6028 C.2     1  UNL1        0.0550
@<TRIPOS>BOND
     1     2     7    1
     2     2     1    1
     3     3     2    2
     4     4     3    1
     5     4     5    2
     6     5     6    1
     7     6     7    2
     8     8     1    1
     9     8     9    1
    10     8    12    1
    11     9    44    1
    12     9    10    1
    13    10    11    1
    14    12    11    1
    15    13    33    1
    16    14    13    1
    17    14    15    1
    18    15    18    2
    19    16    17    1
    20    16    15    1
    21    19    14    2
    22    20    21    2
    23    20    19    1
    24    21    26    1
    25    22    21    1
    26    23    22    1
    27    24    23    1
    28    24    25    1
    29    26    27    1
    30    26    13    1
    31    30    43    1
    32    31    28    1
    33    32    36    1
    34    33    31    1
    35    33    30    1
    36    34    41    1
    37    35    46    2
    38    36    29    1
    39    37    34    2
    40    37    35    1
    41    41    39    2
    42    42    31    1
    43    43    40    1
    44    44    40    1
    45    44    34    1
    46    45    32    1
    47    45    38    2
    48    46    39    1
    49    46    45    1
