@<TRIPOS>MOLECULE
outputs/IAG933/test6/raw/output_4383_IAG933_linker_design_.xyz
 45 49 0 0 0
SMALL
GASTEIGER

@<TRIPOS>ATOM
      1 C         -24.8550   -1.0120   30.1430 C.3     1  UNL1        0.1116
      2 C         -24.9730   -2.5050   29.7880 C.2     1  UNL1       -0.0030
      3 C         -23.9060   -3.1730   29.1460 C.2     1  UNL1       -0.0026
      4 C         -23.9890   -4.5490   28.8530 C.2     1  UNL1       -0.0003
      5 C         -25.1370   -5.2800   29.2050 C.2     1  UNL1       -0.0000
      6 C         -26.2320   -4.6110   29.7840 C.2     1  UNL1       -0.0003
      7 C         -26.1550   -3.2320   30.0650 C.2     1  UNL1       -0.0026
      8 C         -25.3870   -0.6790   31.5710 C.3     1  UNL1        0.0950
      9 C         -25.1890    0.7730   32.0280 C.3     1  UNL1        0.0209
     10 C         -25.3360    0.6840   33.5440 C.3     1  UNL1        0.0203
     11 C         -24.8290   -0.7150   33.9050 C.3     1  UNL1        0.0888
     12 N         -24.7580   -1.4810   32.6460 N.3     1  UNL1       -0.2174
     13 C         -25.6880    1.6140   26.4610 C.2     1  UNL1        0.0378
     14 C         -26.2500    2.9200   26.3950 C.2     1  UNL1        0.0765
     15 C         -25.6420    4.0930   27.1230 C.2     1  UNL1        0.2664
     16 N         -25.6140    5.2520   26.4490 N.am    1  UNL1       -0.1997
     17 C         -25.0260    6.4790   26.9630 C.3     1  UNL1        0.1388
     18 O         -25.1430    3.9660   28.2430 O.2     1  UNL1       -0.2683
     19 C         -27.4380    3.0910   25.6450 C.2     1  UNL1        0.1067
     20 N         -28.0750    2.0890   25.0030 N.2     1  UNL1       -0.2081
     21 C         -27.5430    0.8490   25.0790 C.2     1  UNL1        0.2533
     22 O         -28.1930   -0.2080   24.4770 O.2     1  UNL1       -0.4558
     23 C         -29.4600    0.0050   23.8660 C.3     1  UNL1        0.2426
     24 C         -30.0650   -1.3770   23.5730 C.3     1  UNL1        0.2292
     25 O         -30.7290   -1.8780   24.7210 O.3     1  UNL1       -0.2162
     26 C         -26.3540    0.5760   25.7770 C.2     1  UNL1        0.1930
     27 F         -25.8600   -0.6810   25.7950 F       1  UNL1       -0.1992
     28 C         -29.5685    3.0371   29.7655 C.3     1  UNL1        0.0759
     29 C         -30.0447    3.2285   32.1491 C.3     1  UNL1        0.1088
     30 C         -22.0129    1.7382   26.6888 C.2     1  UNL1       -0.0000
     31 C         -27.2481   -0.9442   28.9282 C.2     1  UNL1        0.0586
     32 C         -29.7209    4.4134   29.2418 C.3     1  UNL1        0.0189
     33 C         -23.0139    1.1281   28.8108 C.2     1  UNL1       -0.0026
     34 C         -29.5996    1.7835   28.8939 C.3     1  UNL1        0.0378
     35 C         -24.2940    1.1874   28.2609 C.2     1  UNL1       -0.0023
     36 C         -28.6283   -0.4548   28.9572 C.2     1  UNL1        0.0082
     37 C         -21.9043    1.3807   28.0295 C.2     1  UNL1       -0.0003
     38 C         -29.2621    0.7872   29.5617 C.3     1  UNL1        0.1149
     39 C         -24.3804    1.5337   26.9321 C.2     1  UNL1        0.0002
     40 N         -29.7185    2.4358   30.9550 N.3     1  UNL1       -0.2035
     41 C         -23.2815    1.7947   26.1237 C.2     1  UNL1       -0.0002
     42 C         -25.6039    1.0508   29.0616 C.3     1  UNL1        0.1180
     43 C         -30.0973    1.4452   27.5825 C.3     1  UNL1        0.0033
     44 N         -29.5054    1.0641   30.8763 N.3     1  UNL1       -0.1438
     45 N         -25.9096   -0.3850   29.2550 N.pl3   1  UNL1       -0.2993
@<TRIPOS>BOND
     1     1    45    1
     2     2     7    1
     3     2     1    1
     4     3     2    2
     5     4     3    1
     6     4     5    2
     7     5     6    1
     8     6     7    2
     9     8     1    1
    10     8     9    1
    11     8    12    1
    12     9    10    1
    13    10    11    1
    14    12    11    1
    15    13    39    1
    16    14    13    1
    17    14    15    1
    18    15    18    2
    19    16    17    1
    20    16    15    1
    21    19    14    2
    22    20    21    2
    23    20    19    1
    24    21    26    1
    25    22    21    1
    26    23    22    1
    27    24    23    1
    28    24    25    1
    29    26    27    1
    30    26    13    2
    31    28    32    1
    32    28    40    1
    33    30    37    1
    34    31    36    2
    35    31    45    1
    36    34    43    1
    37    34    38    1
    38    34    28    1
    39    35    33    1
    40    35    42    1
    41    37    33    2
    42    38    36    1
    43    38    44    1
    44    39    35    2
    45    40    29    1
    46    41    30    2
    47    41    39    1
    48    42    45    1
    49    44    40    1
