@<TRIPOS>MOLECULE
outputs/IAG933/test6/raw/output_4384_IAG933_linker_design_.xyz
 43 48 0 0 0
SMALL
GASTEIGER

@<TRIPOS>ATOM
      1 C         -24.8550   -1.0120   30.1430 C.3     1  UNL1        0.1233
      2 C         -24.9730   -2.5050   29.7880 C.2     1  UNL1       -0.0005
      3 C         -23.9060   -3.1730   29.1460 C.2     1  UNL1       -0.0024
      4 C         -23.9890   -4.5490   28.8530 C.2     1  UNL1       -0.0003
      5 C         -25.1370   -5.2800   29.2050 C.2     1  UNL1       -0.0000
      6 C         -26.2320   -4.6110   29.7840 C.2     1  UNL1       -0.0003
      7 C         -26.1550   -3.2320   30.0650 C.2     1  UNL1       -0.0024
      8 C         -25.3870   -0.6790   31.5710 C.3     1  UNL1        0.0976
      9 C         -25.1890    0.7730   32.0280 C.3     1  UNL1        0.0211
     10 C         -25.3360    0.6840   33.5440 C.3     1  UNL1        0.0203
     11 C         -24.8290   -0.7150   33.9050 C.3     1  UNL1        0.0888
     12 N         -24.7580   -1.4810   32.6460 N.3     1  UNL1       -0.2172
     13 C         -25.6880    1.6140   26.4610 C.3     1  UNL1        0.0937
     14 C         -26.2500    2.9200   26.3950 C.2     1  UNL1        0.0589
     15 C         -25.6420    4.0930   27.1230 C.2     1  UNL1        0.2628
     16 N         -25.6140    5.2520   26.4490 N.am    1  UNL1       -0.2000
     17 C         -25.0260    6.4790   26.9630 C.3     1  UNL1        0.1388
     18 O         -25.1430    3.9660   28.2430 O.2     1  UNL1       -0.2686
     19 C         -27.4380    3.0910   25.6450 C.2     1  UNL1        0.1025
     20 N         -28.0750    2.0890   25.0030 N.2     1  UNL1       -0.2118
     21 C         -27.5430    0.8490   25.0790 C.2     1  UNL1        0.2344
     22 O         -28.1930   -0.2080   24.4770 O.2     1  UNL1       -0.4585
     23 C         -29.4600    0.0050   23.8660 C.3     1  UNL1        0.2423
     24 C         -30.0650   -1.3770   23.5730 C.3     1  UNL1        0.2292
     25 O         -30.7290   -1.8780   24.7210 O.3     1  UNL1       -0.2162
     26 C         -26.3540    0.5760   25.7770 C.3     1  UNL1        0.2440
     27 F         -25.8600   -0.6810   25.7950 F       1  UNL1       -0.2265
     28 C         -28.6325    0.3427   29.2946 C.3     1  UNL1        0.0363
     29 C         -24.9682    1.1174   27.6335 C.ar    1  UNL1        0.0041
     30 C         -21.9483    0.3959   28.6469 C.3     1  UNL1        0.2524
     31 C         -23.5183    0.2676   28.7192 C.ar    1  UNL1        0.0873
     32 C         -27.1805    0.8251   29.0716 C.3     1  UNL1        0.0460
     33 C         -29.5772    0.1177   28.0551 C.3     1  UNL1        0.1523
     34 N         -24.7870   -0.0668   29.3865 N.ar    1  UNL1       -0.3278
     35 C         -23.6082    1.1645   27.6578 C.ar    1  UNL1        0.0884
     36 C         -30.7168    1.1439   28.1673 C.3     1  UNL1        0.0329
     37 C         -31.0547    1.0251   29.7009 C.3     1  UNL1        0.0027
     38 O         -22.4484    2.1029   25.8924 O.2     1  UNL1       -0.2448
     39 O         -21.4290    1.2775   27.5658 O.3     1  UNL1       -0.4388
     40 C         -22.5267    1.5876   27.0044 C.2     1  UNL1        0.3425
     41 C         -29.6143    0.9552   30.3278 C.3     1  UNL1        0.0030
     42 C         -25.7391    0.6457   28.7534 C.ar    1  UNL1        0.0339
     43 O         -30.1099   -1.1960   28.3431 O.3     1  UNL1       -0.2231
@<TRIPOS>BOND
     1     1     2    1
     2     2     7    1
     3     3     2    2
     4     4     3    1
     5     4     5    2
     6     5     6    1
     7     6     7    2
     8     8     1    1
     9     8     9    1
    10     8    12    1
    11     9    10    1
    12    10    11    1
    13    12    11    1
    14    13    29    1
    15    14    13    1
    16    14    15    1
    17    15    18    2
    18    16    17    1
    19    16    15    1
    20    19    14    2
    21    20    21    2
    22    20    19    1
    23    21    26    1
    24    22    21    1
    25    23    22    1
    26    24    23    1
    27    24    25    1
    28    26    27    1
    29    26    13    1
    30    28    32    1
    31    28    41    1
    32    29    35   ar
    33    29    42   ar
    34    30    31    1
    35    31    34   ar
    36    33    36    1
    37    33    43    1
    38    33    28    1
    39    34     1    1
    40    35    31   ar
    41    36    37    1
    42    37    41    1
    43    38    40    2
    44    39    30    1
    45    40    39    1
    46    40    35    1
    47    42    32    1
    48    42    34   ar
