@<TRIPOS>MOLECULE
No_4388-gen_results/8p0m/2024-11-27-11-27-31/
 13 13 0 0 0
SMALL
GASTEIGER

@<TRIPOS>ATOM
      1 C         -28.0162   -0.8135   28.8779 C.ar    1  UNL1        0.0074
      2 C         -27.0636   -0.1189   28.6079 C.ar    1  UNL1        0.0823
      3 C         -26.9287    1.1713   29.0083 C.ar    1  UNL1        0.0074
      4 C         -27.9560    1.7411   29.7840 C.ar    1  UNL1        0.0003
      5 C         -29.0569   -0.3271   29.7466 C.ar    1  UNL1        0.0003
      6 C         -28.9828    0.9722   30.1516 C.ar    1  UNL1        0.0000
      7 P         -25.6542   -0.7325   27.6370 P.3     1  UNL1        0.3921
      8 O         -24.5454    0.1265   27.9688 O.3     1  UNL1       -0.2870
      9 O         -25.2765   -2.0436   28.1280 O.3     1  UNL1       -0.1363
     10 O         -25.8837   -0.2606   26.2890 O.2     1  UNL1       -0.2507
     11 C         -24.0602    1.2424   27.2744 C.3     1  UNL1        0.1871
     12 C         -22.7470    1.6920   27.8072 C.3     1  UNL1        0.2145
     13 O         -22.6262    1.7584   29.0772 O.3     1  UNL1       -0.2176
@<TRIPOS>BOND
     1     2     7    1
     2     7     8    1
     3     7     9    1
     4     7    10    2
     5     8    11    1
     6    11    12    1
     7    12    13    1
     8     1     2   ar
     9     2     3   ar
    10     3     4   ar
    11     4     6   ar
    12     6     5   ar
    13     5     1   ar
