@<TRIPOS>MOLECULE
outputs/IAG933/test6/raw/output_4393_IAG933_linker_design_.xyz
 41 44 0 0 0
SMALL
GASTEIGER

@<TRIPOS>ATOM
      1 C         -24.8550   -1.0120   30.1430 C.3     1  UNL1        0.2034
      2 C         -24.9730   -2.5050   29.7880 C.2     1  UNL1        0.0186
      3 C         -23.9060   -3.1730   29.1460 C.2     1  UNL1       -0.0008
      4 C         -23.9890   -4.5490   28.8530 C.2     1  UNL1       -0.0002
      5 C         -25.1370   -5.2800   29.2050 C.2     1  UNL1       -0.0000
      6 C         -26.2320   -4.6110   29.7840 C.2     1  UNL1       -0.0002
      7 C         -26.1550   -3.2320   30.0650 C.2     1  UNL1       -0.0008
      8 C         -25.3870   -0.6790   31.5710 C.3     1  UNL1        0.1170
      9 C         -25.1890    0.7730   32.0280 C.3     1  UNL1        0.0229
     10 C         -25.3360    0.6840   33.5440 C.3     1  UNL1        0.0204
     11 C         -24.8290   -0.7150   33.9050 C.3     1  UNL1        0.0888
     12 N         -24.7580   -1.4810   32.6460 N.3     1  UNL1       -0.2154
     13 C         -25.6880    1.6140   26.4610 C.2     1  UNL1        0.0407
     14 C         -26.2500    2.9200   26.3950 C.2     1  UNL1        0.0745
     15 C         -25.6420    4.0930   27.1230 C.2     1  UNL1        0.2245
     16 N         -25.6140    5.2520   26.4490 N.2     1  UNL1       -0.2356
     17 C         -25.0260    6.4790   26.9630 C.3     1  UNL1        0.1550
     18 O         -25.1430    3.9660   28.2430 O.2     1  UNL1       -0.4280
     19 C         -27.4380    3.0910   25.6450 C.2     1  UNL1        0.1068
     20 N         -28.0750    2.0890   25.0030 N.2     1  UNL1       -0.2081
     21 C         -27.5430    0.8490   25.0790 C.2     1  UNL1        0.2533
     22 O         -28.1930   -0.2080   24.4770 O.2     1  UNL1       -0.4558
     23 C         -29.4600    0.0050   23.8660 C.3     1  UNL1        0.2426
     24 C         -30.0650   -1.3770   23.5730 C.3     1  UNL1        0.2292
     25 O         -30.7290   -1.8780   24.7210 O.3     1  UNL1       -0.2162
     26 C         -26.3540    0.5760   25.7770 C.2     1  UNL1        0.1931
     27 F         -25.8600   -0.6810   25.7950 F       1  UNL1       -0.1992
     28 O         -25.7769    4.4956   30.8641 O.co2   1  UNL1       -0.2386
     29 CL        -22.7030    2.7084   25.1603 Cl      1  UNL1        0.0622
     30 C         -22.9719    1.8064   28.1998 C.3     1  UNL1        0.1728
     31 O         -23.7241    2.7740   28.0337 O.3     1  UNL1       -0.3073
     32 C         -21.5431   -0.2318   29.2282 C.3     1  UNL1        0.0663
     33 C         -21.8762    1.3865   27.5340 C.3     1  UNL1        0.1687
     34 C         -26.1193    3.6617   30.0887 C.2     1  UNL1        0.4345
     35 C         -22.8495   -0.0394   29.5913 C.2     1  UNL1        0.1146
     36 O         -27.1963    3.2256   29.8249 O.co2   1  UNL1       -0.2386
     37 O         -21.8031    1.7269   26.1834 O.3     1  UNL1       -0.2643
     38 C         -24.8077    3.0708   29.0544 C.3     1  UNL1        0.3970
     39 C         -20.9935    0.5233   28.1498 C.3     1  UNL1        0.0423
     40 C         -23.4453    1.0159   29.0480 C.2     1  UNL1        0.0379
     41 O         -23.4915   -0.8159   30.4714 O.2     1  UNL1       -0.4778
@<TRIPOS>BOND
     1     1    41    1
     2     2     7    1
     3     2     1    1
     4     3     2    2
     5     4     3    1
     6     4     5    2
     7     5     6    1
     8     6     7    2
     9     8     1    1
    10     8     9    1
    11     8    12    1
    12     9    10    1
    13    10    11    1
    14    12    11    1
    15    14    13    1
    16    14    15    1
    17    15    18    1
    18    16    17    1
    19    16    15    2
    20    18    38    1
    21    19    14    2
    22    20    21    2
    23    20    19    1
    24    21    26    1
    25    22    21    1
    26    23    22    1
    27    24    23    1
    28    24    25    1
    29    26    27    1
    30    26    13    2
    31    29    37    1
    32    30    31    1
    33    30    40    1
    34    32    35    1
    35    33    37    1
    36    33    39    1
    37    33    30    1
    38    34    28   ar
    39    35    41    1
    40    36    34   ar
    41    38    31    1
    42    38    34    1
    43    39    32    1
    44    40    35    2
