@<TRIPOS>MOLECULE
outputs/IAG933/test6/raw/output_4394_IAG933_linker_design_.xyz
 45 50 0 0 0
SMALL
GASTEIGER

@<TRIPOS>ATOM
      1 C         -24.8550   -1.0120   30.1430 C.3     1  UNL1        0.0454
      2 C         -24.9730   -2.5050   29.7880 C.2     1  UNL1       -0.0207
      3 C         -23.9060   -3.1730   29.1460 C.2     1  UNL1       -0.0042
      4 C         -23.9890   -4.5490   28.8530 C.2     1  UNL1       -0.0003
      5 C         -25.1370   -5.2800   29.2050 C.2     1  UNL1       -0.0000
      6 C         -26.2320   -4.6110   29.7840 C.2     1  UNL1       -0.0003
      7 C         -26.1550   -3.2320   30.0650 C.2     1  UNL1       -0.0042
      8 C         -25.3870   -0.6790   31.5710 C.3     1  UNL1        0.0953
      9 C         -25.1890    0.7730   32.0280 C.3     1  UNL1        0.0949
     10 C         -25.3360    0.6840   33.5440 C.3     1  UNL1        0.0401
     11 C         -24.8290   -0.7150   33.9050 C.3     1  UNL1        0.0905
     12 N         -24.7580   -1.4810   32.6460 N.3     1  UNL1       -0.2174
     13 C         -25.6880    1.6140   26.4610 C.2     1  UNL1        0.0864
     14 C         -26.2500    2.9200   26.3950 C.2     1  UNL1        0.0899
     15 C         -25.6420    4.0930   27.1230 C.2     1  UNL1        0.2676
     16 N         -25.6140    5.2520   26.4490 N.am    1  UNL1       -0.1997
     17 C         -25.0260    6.4790   26.9630 C.3     1  UNL1        0.1388
     18 O         -25.1430    3.9660   28.2430 O.2     1  UNL1       -0.2683
     19 C         -27.4380    3.0910   25.6450 C.2     1  UNL1        0.1080
     20 N         -28.0750    2.0890   25.0030 N.2     1  UNL1       -0.2080
     21 C         -27.5430    0.8490   25.0790 C.2     1  UNL1        0.2546
     22 O         -28.1930   -0.2080   24.4770 O.2     1  UNL1       -0.4558
     23 C         -29.4600    0.0050   23.8660 C.3     1  UNL1        0.2426
     24 C         -30.0650   -1.3770   23.5730 C.3     1  UNL1        0.2292
     25 O         -30.7290   -1.8780   24.7210 O.3     1  UNL1       -0.2162
     26 C         -26.3540    0.5760   25.7770 C.2     1  UNL1        0.2062
     27 F         -25.8600   -0.6810   25.7950 F       1  UNL1       -0.1979
     28 C         -22.7917    1.5974   27.1179 C.3     1  UNL1        0.0962
     29 C         -21.3802    1.9681   27.4117 C.3     1  UNL1        0.0449
     30 C         -25.3127    4.8694   32.4554 C.2     1  UNL1       -0.0018
     31 C         -21.7569    7.3773   32.0055 C.3     1  UNL1        0.0742
     32 C         -24.2067    7.4415   31.9308 C.2     1  UNL1        0.0061
     33 O         -23.1610    2.7773   31.5252 O.2     1  UNL1       -0.2508
     34 C         -24.0379    2.2138   31.0226 C.2     1  UNL1        0.3235
     35 N         -24.5280    1.4911   26.8655 N.pl3   1  UNL1       -0.3036
     36 C         -25.7588    3.3803   32.4556 C.3     1  UNL1        0.1217
     37 C         -25.9258    5.7876   31.6230 C.2     1  UNL1       -0.0026
     38 C         -22.5810    0.7725   28.3831 C.3     1  UNL1        0.1167
     39 C         -25.3611    7.0235   31.2863 C.2     1  UNL1        0.0002
     40 C         -23.6429    6.6344   32.9191 C.2     1  UNL1        0.0250
     41 C         -23.2458    1.8068   25.8815 C.3     1  UNL1        0.1106
     42 S         -22.0583    6.9247   33.6318 S.3     1  UNL1       -0.1127
     43 C         -24.2641    5.3963   33.2169 C.2     1  UNL1        0.0035
     44 N         -25.3798    2.1779   31.5015 N.am    1  UNL1       -0.2590
     45 N         -23.4141    1.5882   29.8030 N.am    1  UNL1       -0.1884
@<TRIPOS>BOND
     1     2     7    1
     2     2     1    1
     3     3     2    2
     4     4     3    1
     5     4     5    2
     6     5     6    1
     7     6     7    2
     8     8     1    1
     9     8     9    1
    10     8    12    1
    11     9    44    1
    12     9    10    1
    13    10    11    1
    14    12    11    1
    15    13    35    1
    16    14    13    1
    17    14    15    1
    18    15    18    2
    19    16    17    1
    20    16    15    1
    21    19    14    2
    22    20    21    2
    23    20    19    1
    24    21    26    1
    25    22    21    1
    26    23    22    1
    27    24    23    1
    28    24    25    1
    29    26    27    1
    30    26    13    2
    31    28    41    1
    32    28    29    1
    33    28    38    1
    34    29    38    1
    35    30    36    1
    36    30    43    1
    37    31    42    1
    38    32    40    1
    39    34    44   am
    40    34    33    2
    41    35    28    1
    42    37    30    2
    43    38    45    1
    44    39    37    1
    45    39    32    2
    46    40    43    2
    47    40    42    1
    48    41    35    1
    49    44    36    1
    50    45    34    1
