@<TRIPOS>MOLECULE
No_4395-gen_results/8p0m/2024-11-27-11-27-31/
 20 23 0 0 0
SMALL
GASTEIGER

@<TRIPOS>ATOM
      1 C         -28.0162   -0.8135   28.8779 C.ar    1  UNL1        0.0148
      2 C         -28.4690   -0.7850   29.8287 C.ar    1  UNL1        0.0013
      3 C         -26.5455   -0.8762   28.8500 C.ar    1  UNL1        0.0516
      4 C         -25.8041   -1.0324   30.0571 C.ar    1  UNL1       -0.0038
      5 C         -26.5373   -1.0386   31.2171 C.ar    1  UNL1       -0.0027
      6 C         -27.8843   -0.9532   31.1862 C.ar    1  UNL1       -0.0002
      7 C         -24.3655   -1.1134   30.0483 C.3     1  UNL1        0.0552
      8 C         -23.6254   -0.9434   29.0230 C.ar    1  UNL1       -0.0038
      9 C         -22.3775   -0.3348   29.0683 C.ar    1  UNL1       -0.0027
     10 C         -21.6875    0.0953   27.9336 C.ar    1  UNL1       -0.0002
     11 C         -22.4753    1.0139   27.1299 C.ar    1  UNL1        0.0013
     12 C         -23.9006    0.8194   27.0941 C.ar    1  UNL1        0.0148
     13 C         -24.4473   -0.2081   27.9248 C.ar    1  UNL1        0.0516
     14 N         -25.7861   -0.4732   27.7616 N.pl3   1  UNL1       -0.2694
     15 C         -26.3591   -0.2281   26.5185 C.2     1  UNL1        0.0388
     16 C         -25.8543   -0.5507   25.4282 C.2     1  UNL1        0.0122
     17 C         -26.4374   -0.2996   24.1519 C.2     1  UNL1        0.0150
     18 C         -27.7888    0.2459   24.3533 C.2     1  UNL1        0.0725
     19 C         -27.5889    0.5937   26.2062 C.3     1  UNL1        0.0863
     20 N         -28.1625    0.7781   25.2420 N.pl3   1  UNL1       -0.1323
@<TRIPOS>BOND
     1     4     7    1
     2     3    14    1
     3    13    14    1
     4    14    15    1
     5    15    16    2
     6    16    17    1
     7    17    18    2
     8    15    19    1
     9    18    19    1
    10    18    20    1
    11     7     8    1
    12     1     2   ar
    13     2     6   ar
    14     6     5   ar
    15     5     4   ar
    16     4     3   ar
    17     3     1   ar
    18     8     9   ar
    19     9    10   ar
    20    10    11   ar
    21    11    12   ar
    22    12    13   ar
    23    13     8   ar
