@<TRIPOS>MOLECULE
No_4396-gen_results/8p0m/2024-11-27-11-27-31/
 23 24 0 0 0
SMALL
GASTEIGER

@<TRIPOS>ATOM
      1 C         -28.0162   -0.8135   28.8779 C.3     1  UNL1        0.0304
      2 C         -27.0636   -0.1189   28.6079 C.ar    1  UNL1       -0.0218
      3 C         -25.7923   -0.4302   29.0761 C.ar    1  UNL1       -0.0034
      4 C         -24.5456    0.3494   28.8225 C.ar    1  UNL1        0.0111
      5 C         -24.6586    1.4196   27.8878 C.ar    1  UNL1        0.0577
      6 C         -25.9471    1.6811   27.3792 C.ar    1  UNL1        0.0111
      7 C         -27.0439    0.9739   27.6871 C.ar    1  UNL1       -0.0034
      8 C         -28.6597   -0.4600   30.2006 C.3     1  UNL1        0.0225
      9 C         -29.7497   -1.2486   30.6773 C.2     1  UNL1       -0.0254
     10 CL        -23.2584    2.2741   27.5441 Cl      1  UNL1       -0.0822
     11 C         -30.0794   -2.2425   29.9404 C.2     1  UNL1        0.0431
     12 C         -31.2494   -2.9748   30.4825 C.3     1  UNL1        0.3673
     13 C         -31.6703   -4.1226   29.7329 C.3     1  UNL1        0.4586
     14 F         -30.7616   -4.6711   29.3298 F       1  UNL1       -0.1647
     15 F         -32.3606   -4.9662   30.5461 F       1  UNL1       -0.1647
     16 F         -32.5033   -3.7233   28.7454 F       1  UNL1       -0.1647
     17 F         -30.9513   -3.3656   31.7571 F       1  UNL1       -0.1904
     18 F         -32.2889   -2.1057   30.6185 F       1  UNL1       -0.1904
     19 C         -29.0052    1.0734   30.2024 C.3     1  UNL1        0.0044
     20 C         -27.4946   -0.6702   31.2898 C.3     1  UNL1        0.0044
     21 C         -28.4438    1.9331   30.9155 C.3     1  UNL1        0.0003
     22 C         -26.9629    0.3369   32.1285 C.3     1  UNL1        0.0003
     23 C         -27.4463    1.6600   31.9281 C.3     1  UNL1        0.0000
@<TRIPOS>BOND
     1     1     2    1
     2     1     8    1
     3     8     9    1
     4     5    10    1
     5     9    11    2
     6    11    12    1
     7    12    13    1
     8    13    14    1
     9    13    15    1
    10    13    16    1
    11    12    17    1
    12    12    18    1
    13     8    19    1
    14     8    20    1
    15    21    23    1
    16    22    23    1
    17    19    21    1
    18    22    20    1
    19     2     3   ar
    20     3     4   ar
    21     4     5   ar
    22     5     6   ar
    23     6     7   ar
    24     7     2   ar
