@<TRIPOS>MOLECULE
No_4397-gen_results/8p0m/2024-11-27-11-27-31/
 19 20 0 0 0
SMALL
GASTEIGER

@<TRIPOS>ATOM
      1 O         -28.1229   -1.3353   28.4874 O.2     1  UNL1       -0.2696
      2 C         -27.4806   -0.4044   28.7094 C.2     1  UNL1        0.2525
      3 C         -26.3804   -0.0867   27.9394 C.ar    1  UNL1        0.0539
      4 N         -27.8993    0.6459   29.6321 N.am    1  UNL1       -0.2571
      5 C         -26.3190    0.9178   27.1016 C.ar    1  UNL1        0.0045
      6 C         -25.1519   -0.8370   28.1792 C.ar    1  UNL1        0.0045
      7 C         -25.1266    1.1744   26.2946 C.ar    1  UNL1        0.0001
      8 C         -23.9065   -0.4909   27.5569 C.ar    1  UNL1        0.0001
      9 C         -23.9564    0.5366   26.6142 C.ar    1  UNL1        0.0000
     10 C         -27.2080    1.8279   29.9655 C.2     1  UNL1        0.0319
     11 C         -26.1555    1.7269   30.7161 C.2     1  UNL1        0.0105
     12 C         -25.8342    0.7941   31.6774 C.ar    1  UNL1        0.0009
     13 C         -26.7784    0.0520   32.2222 C.ar    1  UNL1        0.0000
     14 C         -29.3345    0.7007   29.6989 C.3     1  UNL1        0.1200
     15 C         -26.3227   -0.9037   33.2081 C.ar    1  UNL1        0.0000
     16 C         -25.0183   -0.9921   33.5546 C.ar    1  UNL1        0.0000
     17 C         -24.1054   -0.2687   32.8366 C.ar    1  UNL1        0.0000
     18 C         -24.4315    0.6686   31.9250 C.ar    1  UNL1        0.0000
     19 C         -27.8108    3.0244   29.5246 C.3     1  UNL1        0.0475
@<TRIPOS>BOND
     1     1     2    2
     2     2     3    1
     3     2     4   am
     4     4    10    1
     5    10    11    2
     6    11    12    1
     7     4    14    1
     8    10    19    1
     9    12    13   ar
    10    13    15   ar
    11    15    16   ar
    12    16    17   ar
    13    17    18   ar
    14    18    12   ar
    15     3     5   ar
    16     5     7   ar
    17     7     9   ar
    18     9     8   ar
    19     8     6   ar
    20     6     3   ar
