@<TRIPOS>MOLECULE
No_4399-gen_results/8p0m/2024-11-27-11-27-31/
 35 37 0 0 0
SMALL
GASTEIGER

@<TRIPOS>ATOM
      1 C         -28.0162   -0.8135   28.8779 C.ar    1  UNL1        0.0002
      2 C         -27.0636   -0.1190   28.6079 C.ar    1  UNL1       -0.0003
      3 C         -26.8756    1.1325   28.9134 C.ar    1  UNL1       -0.0035
      4 C         -25.6883    1.9515   28.5672 C.ar    1  UNL1       -0.0137
      5 C         -24.6394    1.2834   27.8753 C.ar    1  UNL1        0.0863
      6 C         -24.8181   -0.0802   27.6166 C.ar    1  UNL1        0.0073
      7 C         -25.9311   -0.7717   27.9696 C.ar    1  UNL1        0.0002
      8 C         -29.2149   -0.1385   29.0986 C.ar    1  UNL1        0.0066
      9 C         -29.2032    1.2244   29.3900 C.ar    1  UNL1        0.0798
     10 C         -28.0353    1.9224   29.1787 C.ar    1  UNL1        0.0063
     11 C         -23.3504    1.8716   27.5974 C.2     1  UNL1        0.4102
     12 N         -22.9828    2.5994   26.7534 N.2     1  UNL1       -0.0533
     13 N         -22.3057    1.6039   28.5622 N.pl3   1  UNL1        0.2159
     14 C         -23.9726    2.8562   25.7411 C.3     1  UNL1        0.3208
     15 C         -30.4392    1.9032   29.8662 C.2     1  UNL1        0.3878
     16 O         -30.4950    2.4539   30.8571 O.co2   1  UNL1       -0.2406
     17 O         -31.2963    2.0467   28.8716 O.co2   1  UNL1       -0.2406
     18 C         -25.5470    3.3579   28.8906 C.3     1  UNL1        0.0386
     19 C         -25.2552    3.7300   30.2005 C.3     1  UNL1        0.0771
     20 C         -25.8513    4.3170   27.9027 C.3     1  UNL1        0.0064
     21 N         -26.0160    4.2660   30.9367 N.3     1  UNL1       -0.2605
     22 C         -25.8254    4.4647   32.2173 C.3     1  UNL1        0.1846
     23 C         -27.2090    4.9712   30.4706 C.3     1  UNL1        0.0840
     24 C         -24.8351    4.8662   32.8493 C.2     1  UNL1        0.3831
     25 O         -23.7435    4.5887   32.2977 O.co2   1  UNL1       -0.2438
     26 C         -27.1326    5.9583   29.5350 C.3     1  UNL1        0.1193
     27 C         -26.0680    5.6315   28.1700 C.3     1  UNL1        0.0130
     28 C         -27.9326    7.0637   29.3364 C.2     1  UNL1        0.3657
     29 O         -28.6313    7.3453   30.1991 O.co2   1  UNL1       -0.2456
     30 O         -27.7389    7.8140   28.3725 O.co2   1  UNL1       -0.2456
     31 O         -24.8419    5.7367   33.8081 O.co2   1  UNL1       -0.2438
     32 C         -26.3148    3.1467   33.0734 C.2     1  UNL1        0.0009
     33 C         -26.9084    3.3089   34.2732 C.2     1  UNL1       -0.0027
     34 C         -27.3310    2.1460   34.9311 C.2     1  UNL1       -0.0003
     35 C         -27.5612    1.2812   34.4323 C.2     1  UNL1       -0.0000
@<TRIPOS>BOND
     1     5    11    1
     2    11    12    2
     3    11    13    1
     4    12    14    1
     5     9    15    1
     6    15    16   ar
     7    15    17   ar
     8     4    18    1
     9    18    19    1
    10    18    20    1
    11    19    21    1
    12    21    22    1
    13    21    23    1
    14    22    24    1
    15    24    25   ar
    16    23    26    1
    17    20    27    1
    18    26    27    1
    19    26    28    1
    20    28    29   ar
    21    28    30   ar
    22    24    31   ar
    23    22    32    1
    24    32    33    2
    25    33    34    1
    26    34    35    2
    27     3     4   ar
    28     4     5   ar
    29     5     6   ar
    30     6     7   ar
    31     7     2   ar
    32     1     2   ar
    33     2     3   ar
    34     3    10   ar
    35    10     9   ar
    36     9     8   ar
    37     8     1   ar
