@<TRIPOS>MOLECULE
No_44-gen_results/8p0m/2024-11-27-11-27-31/
 24 26 0 0 0
SMALL
GASTEIGER

@<TRIPOS>ATOM
      1 C         -28.0162   -0.8135   28.8779 C.ar    1  UNL1        0.0046
      2 C         -28.4690   -0.7850   29.8287 C.ar    1  UNL1        0.0536
      3 C         -26.5042   -0.7777   28.8766 C.ar    1  UNL1        0.0016
      4 C         -25.8103   -0.8531   30.1028 C.ar    1  UNL1        0.0177
      5 C         -27.9906   -0.8916   31.2257 C.ar    1  UNL1        0.0046
      6 C         -26.6042   -0.8676   31.2652 C.ar    1  UNL1        0.0016
      7 C         -24.3894   -0.8049   30.1638 C.ar    1  UNL1        0.0827
      8 N         -23.7687   -1.1336   31.0449 N.ar    1  UNL1       -0.2437
      9 C         -23.6162   -0.3408   28.9983 C.ar    1  UNL1        0.0372
     10 C         -22.2174   -0.3267   29.2881 C.ar    1  UNL1        0.0921
     11 C         -22.4620   -0.8593   31.2220 C.ar    1  UNL1        0.1002
     12 N         -21.3982    0.1368   28.1280 N.pl3   1  UNL1       -0.1280
     13 C         -21.6170   -0.5446   30.4142 C.ar    1  UNL1        0.0387
     14 C         -30.0926   -0.8003   29.8450 C.2     1  UNL1        0.2494
     15 O         -30.4969   -0.3393   28.8818 O.2     1  UNL1       -0.2699
     16 N         -30.8069   -1.2958   30.8682 N.am    1  UNL1       -0.2678
     17 C         -32.2487   -1.2864   30.7905 C.3     1  UNL1        0.0942
     18 C         -32.8101   -2.0775   31.5228 C.3     1  UNL1        0.0216
     19 C         -32.1776   -2.7889   32.6065 C.3     1  UNL1        0.0040
     20 C         -30.7695   -2.8143   32.6597 C.3     1  UNL1        0.0315
     21 C         -30.1053   -2.1804   31.7565 C.3     1  UNL1        0.1792
     22 C         -28.6716   -1.9767   31.9767 C.2     1  UNL1        0.3825
     23 O         -28.1361   -2.4761   32.9736 O.co2   1  UNL1       -0.2438
     24 O         -28.0774   -2.7179   31.5093 O.co2   1  UNL1       -0.2438
@<TRIPOS>BOND
     1     4     7    1
     2    10    12    1
     3     2    14    1
     4    14    15    2
     5    14    16   am
     6    16    17    1
     7    18    19    1
     8    16    21    1
     9    20    21    1
    10    21    22    1
    11    22    23   ar
    12    22    24   ar
    13    17    18    1
    14    19    20    1
    15     7     8   ar
    16     8    11   ar
    17    11    13   ar
    18    13    10   ar
    19    10     9   ar
    20     9     7   ar
    21     1     2   ar
    22     2     5   ar
    23     5     6   ar
    24     6     4   ar
    25     4     3   ar
    26     3     1   ar
