@<TRIPOS>MOLECULE
outputs/IAG933/test6/raw/output_4402_IAG933_linker_design_.xyz
 43 47 0 0 0
SMALL
GASTEIGER

@<TRIPOS>ATOM
      1 C         -24.8550   -1.0120   30.1430 C.3     1  UNL1        0.1983
      2 C         -24.9730   -2.5050   29.7880 C.2     1  UNL1        0.0213
      3 C         -23.9060   -3.1730   29.1460 C.2     1  UNL1       -0.0004
      4 C         -23.9890   -4.5490   28.8530 C.2     1  UNL1       -0.0002
      5 C         -25.1370   -5.2800   29.2050 C.2     1  UNL1       -0.0000
      6 C         -26.2320   -4.6110   29.7840 C.2     1  UNL1       -0.0002
      7 C         -26.1550   -3.2320   30.0650 C.2     1  UNL1       -0.0004
      8 C         -25.3870   -0.6790   31.5710 C.3     1  UNL1        0.1197
      9 C         -25.1890    0.7730   32.0280 C.3     1  UNL1        0.0233
     10 C         -25.3360    0.6840   33.5440 C.3     1  UNL1        0.0204
     11 C         -24.8290   -0.7150   33.9050 C.3     1  UNL1        0.0889
     12 N         -24.7580   -1.4810   32.6460 N.3     1  UNL1       -0.2150
     13 C         -25.6880    1.6140   26.4610 C.2     1  UNL1        0.1812
     14 C         -26.2500    2.9200   26.3950 C.2     1  UNL1        0.1139
     15 C         -25.6420    4.0930   27.1230 C.2     1  UNL1        0.2698
     16 N         -25.6140    5.2520   26.4490 N.am    1  UNL1       -0.1996
     17 C         -25.0260    6.4790   26.9630 C.3     1  UNL1        0.1388
     18 O         -25.1430    3.9660   28.2430 O.2     1  UNL1       -0.2682
     19 C         -27.4380    3.0910   25.6450 C.2     1  UNL1        0.1102
     20 N         -28.0750    2.0890   25.0030 N.2     1  UNL1       -0.2078
     21 C         -27.5430    0.8490   25.0790 C.2     1  UNL1        0.2568
     22 O         -28.1930   -0.2080   24.4770 O.2     1  UNL1       -0.4557
     23 C         -29.4600    0.0050   23.8660 C.3     1  UNL1        0.2426
     24 C         -30.0650   -1.3770   23.5730 C.3     1  UNL1        0.2292
     25 O         -30.7290   -1.8780   24.7210 O.3     1  UNL1       -0.2162
     26 C         -26.3540    0.5760   25.7770 C.2     1  UNL1        0.2301
     27 F         -25.8600   -0.6810   25.7950 F       1  UNL1       -0.1956
     28 N         -25.3511   -0.1029   29.0101 N.pl3   1  UNL1       -0.1907
     29 C         -28.3335   -0.8256   28.9237 C.3     1  UNL1        0.0625
     30 C         -29.6718    1.0821   29.6892 C.2     1  UNL1        0.3172
     31 C         -27.0286   -0.2767   28.7006 C.3     1  UNL1        0.2029
     32 C         -29.4574    0.0484   28.7077 C.3     1  UNL1        0.1138
     33 C         -23.4172    2.0082   26.7005 C.2     1  UNL1        0.1795
     34 C         -22.5773    1.4784   27.5755 C.2     1  UNL1        0.0634
     35 N         -24.5422    1.4003   27.2037 N.pl3   1  UNL1       -0.1464
     36 O         -28.6539    1.2325   30.6771 O.3     1  UNL1       -0.4444
     37 C         -24.4380    0.6794   28.3065 C.2     1  UNL1        0.3143
     38 O         -30.6604    1.7895   29.6466 O.2     1  UNL1       -0.2501
     39 O         -22.2752    0.1505   29.3653 O.2     1  UNL1       -0.4686
     40 C         -23.2269    0.6736   28.6039 C.2     1  UNL1        0.2148
     41 C         -21.0255    0.2748   28.5763 C.3     1  UNL1        0.2106
     42 C         -28.8718    2.3322   31.6145 C.3     1  UNL1        0.2556
     43 C         -21.0957    1.3473   27.6041 C.3     1  UNL1        0.0806
@<TRIPOS>BOND
     1     1    28    1
     2     2     7    1
     3     2     1    1
     4     3     2    2
     5     4     3    1
     6     4     5    2
     7     5     6    1
     8     6     7    2
     9     8     1    1
    10     8     9    1
    11     8    12    1
    12     9    10    1
    13    10    11    1
    14    12    11    1
    15    13    35    1
    16    14    13    1
    17    14    15    1
    18    15    18    2
    19    16    17    1
    20    16    15    1
    21    19    14    2
    22    20    21    2
    23    20    19    1
    24    21    26    1
    25    22    21    1
    26    23    22    1
    27    24    23    1
    28    24    25    1
    29    26    27    1
    30    26    13    2
    31    30    36    1
    32    31    29    1
    33    31    28    1
    34    32    29    1
    35    32    30    1
    36    33    35    1
    37    33    34    2
    38    34    43    1
    39    34    40    1
    40    35    37    1
    41    36    42    1
    42    37    40    2
    43    37    28    1
    44    38    30    2
    45    40    39    1
    46    41    39    1
    47    43    41    1
