@<TRIPOS>MOLECULE
outputs/IAG933/test6/raw/output_4403_IAG933_linker_design_.xyz
 45 50 0 0 0
SMALL
GASTEIGER

@<TRIPOS>ATOM
      1 C         -24.8550   -1.0120   30.1430 C.3     1  UNL1        0.1112
      2 C         -24.9730   -2.5050   29.7880 C.2     1  UNL1       -0.0030
      3 C         -23.9060   -3.1730   29.1460 C.2     1  UNL1       -0.0026
      4 C         -23.9890   -4.5490   28.8530 C.2     1  UNL1       -0.0003
      5 C         -25.1370   -5.2800   29.2050 C.2     1  UNL1       -0.0000
      6 C         -26.2320   -4.6110   29.7840 C.2     1  UNL1       -0.0003
      7 C         -26.1550   -3.2320   30.0650 C.2     1  UNL1       -0.0026
      8 C         -25.3870   -0.6790   31.5710 C.3     1  UNL1        0.0950
      9 C         -25.1890    0.7730   32.0280 C.3     1  UNL1        0.0209
     10 C         -25.3360    0.6840   33.5440 C.3     1  UNL1        0.0203
     11 C         -24.8290   -0.7150   33.9050 C.3     1  UNL1        0.0888
     12 N         -24.7580   -1.4810   32.6460 N.3     1  UNL1       -0.2174
     13 C         -25.6880    1.6140   26.4610 C.2     1  UNL1        0.0393
     14 C         -26.2500    2.9200   26.3950 C.2     1  UNL1        0.0766
     15 C         -25.6420    4.0930   27.1230 C.2     1  UNL1        0.2664
     16 N         -25.6140    5.2520   26.4490 N.am    1  UNL1       -0.1997
     17 C         -25.0260    6.4790   26.9630 C.3     1  UNL1        0.1388
     18 O         -25.1430    3.9660   28.2430 O.2     1  UNL1       -0.2683
     19 C         -27.4380    3.0910   25.6450 C.2     1  UNL1        0.1067
     20 N         -28.0750    2.0890   25.0030 N.2     1  UNL1       -0.2081
     21 C         -27.5430    0.8490   25.0790 C.2     1  UNL1        0.2533
     22 O         -28.1930   -0.2080   24.4770 O.2     1  UNL1       -0.4558
     23 C         -29.4600    0.0050   23.8660 C.3     1  UNL1        0.2426
     24 C         -30.0650   -1.3770   23.5730 C.3     1  UNL1        0.2292
     25 O         -30.7290   -1.8780   24.7210 O.3     1  UNL1       -0.2162
     26 C         -26.3540    0.5760   25.7770 C.2     1  UNL1        0.1931
     27 F         -25.8600   -0.6810   25.7950 F       1  UNL1       -0.1992
     28 C         -31.6577    0.5954   29.1615 C.3     1  UNL1        0.0322
     29 C         -24.3347    0.5726   28.3986 C.2     1  UNL1        0.0482
     30 O         -29.9662   -0.6959   27.9689 O.3     1  UNL1       -0.3562
     31 C         -30.7436    1.7500   29.5314 C.3     1  UNL1        0.0050
     32 N         -25.3519   -0.0361   29.1492 N.pl3   1  UNL1       -0.3056
     33 C         -31.1797    0.0524   27.8291 C.3     1  UNL1        0.1420
     34 C         -24.4562    1.3687   27.2136 C.2     1  UNL1        0.0181
     35 C         -29.1796   -0.1313   29.0312 C.3     1  UNL1        0.1168
     36 C         -29.3544    1.3974   28.9942 C.3     1  UNL1        0.0274
     37 C         -22.0411    1.6945   27.2033 C.2     1  UNL1        0.1402
     38 C         -26.6247    0.3463   28.9832 C.3     1  UNL1        0.0755
     39 C         -23.2884    1.9034   26.6577 C.2     1  UNL1        0.0309
     40 C         -26.8704    1.6476   29.2286 C.3     1  UNL1        0.0199
     41 C         -28.2184    2.1318   29.6773 C.3     1  UNL1        0.0041
     42 C         -27.7316   -0.6521   29.1374 C.3     1  UNL1        0.0493
     43 C         -21.8641    0.8974   28.3380 C.2     1  UNL1        0.0309
     44 C         -23.0331    0.3798   28.9320 C.2     1  UNL1        0.0168
     45 F         -20.9941    2.3024   26.6532 F       1  UNL1       -0.2042
@<TRIPOS>BOND
     1     1    32    1
     2     2     7    1
     3     2     1    1
     4     3     2    2
     5     4     3    1
     6     4     5    2
     7     5     6    1
     8     6     7    2
     9     8     1    1
    10     8     9    1
    11     8    12    1
    12     9    10    1
    13    10    11    1
    14    12    11    1
    15    13    34    1
    16    14    13    1
    17    14    15    1
    18    15    18    2
    19    16    17    1
    20    16    15    1
    21    19    14    2
    22    20    21    2
    23    20    19    1
    24    21    26    1
    25    22    21    1
    26    23    22    1
    27    24    23    1
    28    24    25    1
    29    26    27    1
    30    26    13    2
    31    28    31    1
    32    29    44    1
    33    29    32    1
    34    30    35    1
    35    33    30    1
    36    33    28    1
    37    34    29    2
    38    35    42    1
    39    36    35    1
    40    36    31    1
    41    36    41    1
    42    37    43    1
    43    38    42    1
    44    38    32    1
    45    38    40    1
    46    39    37    2
    47    39    34    1
    48    40    41    1
    49    43    44    2
    50    45    37    1
