@<TRIPOS>MOLECULE
No_4404-gen_results/8p0m/2024-11-27-11-27-31/
 29 31 0 0 0
SMALL
GASTEIGER

@<TRIPOS>ATOM
      1 C         -28.0162   -0.8135   28.8779 C.ar    1  UNL1       -0.0020
      2 C         -28.4690   -0.7850   29.8287 C.ar    1  UNL1        0.0528
      3 C         -26.5042   -0.7777   28.8766 C.ar    1  UNL1       -0.0201
      4 C         -25.8103   -0.8531   30.1028 C.ar    1  UNL1       -0.0007
      5 C         -27.9906   -0.8916   31.2257 C.ar    1  UNL1        0.0020
      6 C         -26.6042   -0.8676   31.2652 C.ar    1  UNL1       -0.0025
      7 C         -30.0739   -0.8360   29.8615 C.3     1  UNL1        0.3499
      8 CL        -30.8127   -0.0176   28.8674 Cl      1  UNL1       -0.0423
      9 F         -30.5214   -0.6701   31.1370 F       1  UNL1       -0.1825
     10 F         -30.3427   -2.1994   29.6616 F       1  UNL1       -0.1825
     11 C         -25.6562   -0.7058   27.6686 C.3     1  UNL1        0.0484
     12 C         -25.9189    0.3682   26.7586 C.2     1  UNL1       -0.0355
     13 C         -24.9509    0.7901   25.9684 C.2     1  UNL1       -0.0078
     14 C         -24.1321    1.7370   25.9658 C.2     1  UNL1       -0.0006
     15 C         -24.2134    2.8646   26.5308 C.2     1  UNL1       -0.0003
     16 C         -25.5143    3.0727   27.2428 C.2     1  UNL1       -0.0039
     17 C         -26.4387    2.3463   27.7357 C.2     1  UNL1       -0.0181
     18 C         -26.7461    1.2912   27.2813 C.3     1  UNL1        0.0486
     19 C         -24.4173   -0.8183   30.2088 C.3     1  UNL1        0.1379
     20 N         -23.9163   -0.2058   31.2526 N.3     1  UNL1       -0.2588
     21 BR        -23.5034   -2.2742   29.5790 Br      1  UNL1       -0.0587
     22 C         -24.1071   -0.1692   32.4030 C.3     1  UNL1        0.0905
     23 C         -23.0303    0.9242   30.6506 C.3     1  UNL1        0.0905
     24 C         -27.4531    3.1598   28.5770 C.ar    1  UNL1       -0.0037
     25 C         -28.6844    3.3901   28.1409 C.ar    1  UNL1       -0.0003
     26 C         -29.6508    3.8292   29.0201 C.ar    1  UNL1       -0.0000
     27 C         -29.3485    4.0985   30.3731 C.ar    1  UNL1       -0.0000
     28 C         -27.0907    3.3580   29.9872 C.ar    1  UNL1       -0.0003
     29 C         -28.0303    3.8541   30.8785 C.ar    1  UNL1       -0.0000
@<TRIPOS>BOND
     1     2     7    1
     2     7     8    1
     3     7     9    1
     4     7    10    1
     5     3    11    1
     6    11    12    1
     7    12    13    2
     8    13    14    1
     9    14    15    2
    10    15    16    1
    11    16    17    2
    12    12    18    1
    13    17    18    1
    14     4    19    1
    15    19    20    1
    16    19    21    1
    17    20    22    1
    18    20    23    1
    19    17    24    1
    20    24    25   ar
    21    25    26   ar
    22    26    27   ar
    23    27    29   ar
    24    29    28   ar
    25    28    24   ar
    26     1     2   ar
    27     2     5   ar
    28     5     6   ar
    29     6     4   ar
    30     4     3   ar
    31     3     1   ar
