@<TRIPOS>MOLECULE
outputs/IAG933/test6/raw/output_4405_IAG933_linker_design_.xyz
 44 47 0 0 0
SMALL
GASTEIGER

@<TRIPOS>ATOM
      1 C         -24.8550   -1.0120   30.1430 C.3     1  UNL1        0.1197
      2 C         -24.9730   -2.5050   29.7880 C.2     1  UNL1       -0.0025
      3 C         -23.9060   -3.1730   29.1460 C.2     1  UNL1       -0.0026
      4 C         -23.9890   -4.5490   28.8530 C.2     1  UNL1       -0.0003
      5 C         -25.1370   -5.2800   29.2050 C.2     1  UNL1       -0.0000
      6 C         -26.2320   -4.6110   29.7840 C.2     1  UNL1       -0.0003
      7 C         -26.1550   -3.2320   30.0650 C.2     1  UNL1       -0.0026
      8 C         -25.3870   -0.6790   31.5710 C.3     1  UNL1        0.0955
      9 C         -25.1890    0.7730   32.0280 C.3     1  UNL1        0.0209
     10 C         -25.3360    0.6840   33.5440 C.3     1  UNL1        0.0203
     11 C         -24.8290   -0.7150   33.9050 C.3     1  UNL1        0.0888
     12 N         -24.7580   -1.4810   32.6460 N.3     1  UNL1       -0.2174
     13 C         -25.6880    1.6140   26.4610 C.2     1  UNL1        0.0447
     14 C         -26.2500    2.9200   26.3950 C.2     1  UNL1        0.0768
     15 C         -25.6420    4.0930   27.1230 C.2     1  UNL1        0.2664
     16 N         -25.6140    5.2520   26.4490 N.am    1  UNL1       -0.1997
     17 C         -25.0260    6.4790   26.9630 C.3     1  UNL1        0.1388
     18 O         -25.1430    3.9660   28.2430 O.2     1  UNL1       -0.2683
     19 C         -27.4380    3.0910   25.6450 C.2     1  UNL1        0.1067
     20 N         -28.0750    2.0890   25.0030 N.2     1  UNL1       -0.2081
     21 C         -27.5430    0.8490   25.0790 C.2     1  UNL1        0.2533
     22 O         -28.1930   -0.2080   24.4770 O.2     1  UNL1       -0.4558
     23 C         -29.4600    0.0050   23.8660 C.3     1  UNL1        0.2426
     24 C         -30.0650   -1.3770   23.5730 C.3     1  UNL1        0.2292
     25 O         -30.7290   -1.8780   24.7210 O.3     1  UNL1       -0.2162
     26 C         -26.3540    0.5760   25.7770 C.2     1  UNL1        0.1933
     27 F         -25.8600   -0.6810   25.7950 F       1  UNL1       -0.1992
     28 C         -24.1602    0.7193   28.3514 C.2     1  UNL1        0.0999
     29 C         -28.4302    1.8569   29.6091 C.3     1  UNL1        0.1488
     30 O         -27.0647   -0.4817   28.4738 O.2     1  UNL1       -0.2504
     31 C         -23.5065    1.6241   25.9575 C.2     1  UNL1        0.2891
     32 O         -22.4311   -0.0896   29.9609 O.2     1  UNL1       -0.2851
     33 O         -22.3301    2.2510   26.0654 O.2     1  UNL1       -0.4259
     34 O         -27.3009    3.2772   31.2120 O.3     1  UNL1       -0.3492
     35 F         -23.7814    1.2745   24.6611 F       1  UNL1       -0.1628
     36 C         -27.2010    4.7093   31.0311 C.3     1  UNL1        0.1742
     37 C         -22.7573    0.6365   28.8431 C.2     1  UNL1        0.2126
     38 C         -21.5822    1.2548   28.2544 C.2     1  UNL1        0.0840
     39 C         -26.4494    0.4378   28.9594 C.2     1  UNL1        0.3274
     40 N         -26.9830    1.6732   29.2482 N.am    1  UNL1       -0.1855
     41 N         -25.1752    0.1286   29.1855 N.am    1  UNL1       -0.2350
     42 C         -21.5019    2.0896   27.0975 C.2     1  UNL1        0.1855
     43 C         -28.5978    2.7835   30.8542 C.3     1  UNL1        0.1657
     44 C         -24.4089    1.2989   27.0186 C.2     1  UNL1        0.0831
@<TRIPOS>BOND
     1     1    41    1
     2     2     7    1
     3     2     1    1
     4     3     2    2
     5     4     3    1
     6     4     5    2
     7     5     6    1
     8     6     7    2
     9     8     1    1
    10     8     9    1
    11     8    12    1
    12     9    10    1
    13    10    11    1
    14    12    11    1
    15    13    44    1
    16    14    13    1
    17    14    15    1
    18    15    18    2
    19    16    17    1
    20    16    15    1
    21    19    14    2
    22    20    21    2
    23    20    19    1
    24    21    26    1
    25    22    21    1
    26    23    22    1
    27    24    23    1
    28    24    25    1
    29    26    27    1
    30    26    13    2
    31    28    37    2
    32    28    41    1
    33    29    43    1
    34    30    39    2
    35    31    33    1
    36    31    44    2
    37    33    42    1
    38    35    31    1
    39    36    34    1
    40    37    32    1
    41    38    37    1
    42    39    41   am
    43    39    40    1
    44    40    29    1
    45    42    38    2
    46    43    34    1
    47    44    28    1
