@<TRIPOS>MOLECULE
outputs/IAG933/test6/raw/output_4408_IAG933_linker_design_.xyz
 46 50 0 0 0
SMALL
GASTEIGER

@<TRIPOS>ATOM
      1 C         -24.8550   -1.0120   30.1430 C.3     1  UNL1        0.0473
      2 C         -24.9730   -2.5050   29.7880 C.2     1  UNL1       -0.0207
      3 C         -23.9060   -3.1730   29.1460 C.2     1  UNL1       -0.0042
      4 C         -23.9890   -4.5490   28.8530 C.2     1  UNL1       -0.0003
      5 C         -25.1370   -5.2800   29.2050 C.2     1  UNL1       -0.0000
      6 C         -26.2320   -4.6110   29.7840 C.2     1  UNL1       -0.0003
      7 C         -26.1550   -3.2320   30.0650 C.2     1  UNL1       -0.0042
      8 C         -25.3870   -0.6790   31.5710 C.3     1  UNL1        0.0773
      9 C         -25.1890    0.7730   32.0280 C.3     1  UNL1        0.0192
     10 C         -25.3360    0.6840   33.5440 C.3     1  UNL1        0.0202
     11 C         -24.8290   -0.7150   33.9050 C.3     1  UNL1        0.0887
     12 N         -24.7580   -1.4810   32.6460 N.3     1  UNL1       -0.2191
     13 C         -25.6880    1.6140   26.4610 C.3     1  UNL1        0.0750
     14 C         -26.2500    2.9200   26.3950 C.2     1  UNL1        0.0551
     15 C         -25.6420    4.0930   27.1230 C.2     1  UNL1        0.2624
     16 N         -25.6140    5.2520   26.4490 N.am    1  UNL1       -0.2000
     17 C         -25.0260    6.4790   26.9630 C.3     1  UNL1        0.1388
     18 O         -25.1430    3.9660   28.2430 O.2     1  UNL1       -0.2687
     19 C         -27.4380    3.0910   25.6450 C.2     1  UNL1        0.1021
     20 N         -28.0750    2.0890   25.0030 N.2     1  UNL1       -0.2119
     21 C         -27.5430    0.8490   25.0790 C.2     1  UNL1        0.2341
     22 O         -28.1930   -0.2080   24.4770 O.2     1  UNL1       -0.4585
     23 C         -29.4600    0.0050   23.8660 C.3     1  UNL1        0.2423
     24 C         -30.0650   -1.3770   23.5730 C.3     1  UNL1        0.2292
     25 O         -30.7290   -1.8780   24.7210 O.3     1  UNL1       -0.2162
     26 C         -26.3540    0.5760   25.7770 C.3     1  UNL1        0.2403
     27 F         -25.8600   -0.6810   25.7950 F       1  UNL1       -0.2269
     28 C         -24.9728    0.0223   28.7515 C.3     1  UNL1        0.0884
     29 O         -21.6975    2.2603   25.9165 O.2     1  UNL1       -0.2510
     30 C         -24.7614    1.1329   27.4409 C.3     1  UNL1        0.0498
     31 C         -23.0315    2.2454   25.8557 C.2     1  UNL1        0.2455
     32 O         -29.2280    5.7558   30.1301 O.3     1  UNL1       -0.2189
     33 O         -27.2315   -0.7817   28.5785 O.2     1  UNL1       -0.2733
     34 C         -22.3644    1.3041   27.8690 C.2     1  UNL1        0.4586
     35 C         -28.8811    2.4068   32.3478 C.3     1  UNL1        0.2214
     36 C         -23.4941    1.6117   27.1056 C.2     1  UNL1        0.1156
     37 C         -30.1102    4.2084   31.6050 C.3     1  UNL1        0.1780
     38 O         -29.9342    3.2059   32.5837 O.3     1  UNL1       -0.3345
     39 C         -27.8868    1.4117   30.6464 C.3     1  UNL1        0.1921
     40 N         -21.2737    1.6952   27.1491 N.2     1  UNL1        0.1685
     41 C         -26.4327    0.0981   28.8025 C.2     1  UNL1        0.2429
     42 N         -28.4573    2.3717   30.9919 N.3     1  UNL1       -0.2262
     43 C         -28.5126    3.4609   29.9183 C.3     1  UNL1        0.1114
     44 N         -22.3872    0.7757   29.1625 N.pl3   1  UNL1        0.2203
     45 N         -26.8681    1.2754   29.5149 N.am    1  UNL1       -0.1871
     46 C         -28.8934    4.6236   30.8180 C.3     1  UNL1        0.1974
@<TRIPOS>BOND
     1     1    28    1
     2     2     7    1
     3     2     1    1
     4     3     2    2
     5     4     3    1
     6     4     5    2
     7     5     6    1
     8     6     7    2
     9     8     1    1
    10     8     9    1
    11     8    12    1
    12     9    10    1
    13    10    11    1
    14    12    11    1
    15    13    30    1
    16    14    13    1
    17    14    15    1
    18    15    18    2
    19    16    17    1
    20    16    15    1
    21    19    14    2
    22    20    21    2
    23    20    19    1
    24    21    26    1
    25    22    21    1
    26    23    22    1
    27    24    23    1
    28    24    25    1
    29    26    27    1
    30    26    13    1
    31    28    41    1
    32    29    40    1
    33    30    28    1
    34    31    29    1
    35    31    36    2
    36    33    41    2
    37    34    44    1
    38    35    38    1
    39    36    30    1
    40    36    34    1
    41    37    38    1
    42    39    42    1
    43    40    34    2
    44    41    45    1
    45    42    35    1
    46    43    46    1
    47    43    42    1
    48    45    39    1
    49    46    32    1
    50    46    37    1
