@<TRIPOS>MOLECULE
No_4409-gen_results/8p0m/2024-11-27-11-27-31/
 19 19 0 0 0
SMALL
GASTEIGER

@<TRIPOS>ATOM
      1 C         -28.0162   -0.8135   28.8779 C.ar    1  UNL1        0.0069
      2 C         -28.4690   -0.7850   29.8287 C.ar    1  UNL1        0.0555
      3 C         -26.5042   -0.7777   28.8766 C.ar    1  UNL1        0.0298
      4 C         -25.8103   -0.8531   30.1028 C.ar    1  UNL1        0.1401
      5 C         -27.9906   -0.8916   31.2257 C.ar    1  UNL1        0.0069
      6 C         -26.6042   -0.8676   31.2652 C.ar    1  UNL1        0.0298
      7 F         -24.5534   -0.7870   30.1406 F       1  UNL1       -0.2042
      8 C         -30.0954   -0.8409   29.8497 C.2     1  UNL1        0.2684
      9 N         -30.7546    0.0836   30.4685 N.am    1  UNL1       -0.1838
     10 C         -31.9488    0.1571   30.5965 C.2     1  UNL1        0.0339
     11 C         -32.6370    1.2982   31.2153 C.3     1  UNL1        0.0647
     12 C         -32.4522   -0.9211   31.2735 C.3     1  UNL1        0.0449
     13 O         -30.5644   -1.8276   29.3542 O.2     1  UNL1       -0.2680
     14 C         -32.2273    2.5653   30.8128 C.2     1  UNL1       -0.0204
     15 C         -31.3308    2.8072   30.0574 C.2     1  UNL1       -0.0042
     16 C         -31.1112    3.7970   29.4855 C.2     1  UNL1       -0.0003
     17 C         -29.9505    4.0786   28.5666 C.2     1  UNL1       -0.0000
     18 C         -29.0860    2.9906   28.4260 C.2     1  UNL1       -0.0000
     19 C         -29.2788    1.8818   29.1606 C.2     1  UNL1       -0.0000
@<TRIPOS>BOND
     1     4     7    1
     2     2     8    1
     3     8     9    1
     4     9    10    2
     5    10    11    1
     6    10    12    1
     7     8    13    2
     8    11    14    1
     9    14    15    2
    10    15    16    1
    11    16    17    2
    12    17    18    1
    13    18    19    2
    14     1     2   ar
    15     2     5   ar
    16     5     6   ar
    17     6     4   ar
    18     4     3   ar
    19     3     1   ar
