@<TRIPOS>MOLECULE
No_4410-gen_results/8p0m/2024-11-27-11-27-31/
 21 23 0 0 0
SMALL
GASTEIGER

@<TRIPOS>ATOM
      1 C         -28.0162   -0.8135   28.8779 C.ar    1  UNL1       -0.0042
      2 C         -28.4690   -0.7850   29.8287 C.ar    1  UNL1       -0.0003
      3 C         -26.5455   -0.8762   28.8500 C.ar    1  UNL1       -0.0217
      4 C         -25.6825   -0.7773   27.6829 C.3     1  UNL1        0.0523
      5 C         -27.9181   -1.0034   31.1877 C.ar    1  UNL1       -0.0003
      6 C         -26.5308   -1.0794   31.2463 C.ar    1  UNL1       -0.0046
      7 C         -25.7798   -1.0462   30.0905 C.ar    1  UNL1       -0.0255
      8 C         -25.8977    0.2387   26.7449 C.ar    1  UNL1       -0.0178
      9 C         -26.8246    1.1178   26.8570 C.ar    1  UNL1       -0.0039
     10 C         -26.9997    2.0705   25.8008 C.ar    1  UNL1       -0.0003
     11 C         -26.1783    1.9290   24.7230 C.ar    1  UNL1       -0.0000
     12 C         -25.2356    0.9351   24.6922 C.ar    1  UNL1       -0.0003
     13 C         -25.0303    0.0686   25.6247 C.ar    1  UNL1       -0.0039
     14 C         -24.3844   -1.1628   30.1382 C.3     1  UNL1        0.0307
     15 C         -23.5983   -0.1621   30.4785 C.3     1  UNL1        0.0310
     16 C         -23.9529    0.9640   31.2104 C.ar    1  UNL1       -0.0218
     17 C         -23.2851    2.2658   31.1046 C.ar    1  UNL1       -0.0043
     18 C         -23.9769    3.3572   31.7506 C.ar    1  UNL1       -0.0003
     19 C         -25.1658    3.1217   32.4999 C.ar    1  UNL1       -0.0000
     20 C         -25.6921    1.8664   32.6080 C.ar    1  UNL1       -0.0003
     21 C         -25.1215    0.8977   31.9701 C.ar    1  UNL1       -0.0043
@<TRIPOS>BOND
     1     3     4    1
     2     7    14    1
     3    14    15    1
     4    15    16    1
     5     4     8    1
     6     8     9   ar
     7     9    10   ar
     8    10    11   ar
     9    11    12   ar
    10    12    13   ar
    11    13     8   ar
    12     1     2   ar
    13     2     5   ar
    14     5     6   ar
    15     6     7   ar
    16     7     3   ar
    17     3     1   ar
    18    16    17   ar
    19    17    18   ar
    20    18    19   ar
    21    19    20   ar
    22    20    21   ar
    23    21    16   ar
