@<TRIPOS>MOLECULE
outputs/IAG933/test6/raw/output_4411_IAG933_linker_design_.xyz
 45 48 0 0 0
SMALL
GASTEIGER

@<TRIPOS>ATOM
      1 C         -24.8550   -1.0120   30.1430 C.3     1  UNL1        0.1111
      2 C         -24.9730   -2.5050   29.7880 C.2     1  UNL1       -0.0051
      3 C         -23.9060   -3.1730   29.1460 C.2     1  UNL1       -0.0029
      4 C         -23.9890   -4.5490   28.8530 C.2     1  UNL1       -0.0003
      5 C         -25.1370   -5.2800   29.2050 C.2     1  UNL1       -0.0000
      6 C         -26.2320   -4.6110   29.7840 C.2     1  UNL1       -0.0003
      7 C         -26.1550   -3.2320   30.0650 C.2     1  UNL1       -0.0029
      8 C         -25.3870   -0.6790   31.5710 C.3     1  UNL1        0.0929
      9 C         -25.1890    0.7730   32.0280 C.3     1  UNL1        0.0206
     10 C         -25.3360    0.6840   33.5440 C.3     1  UNL1        0.0203
     11 C         -24.8290   -0.7150   33.9050 C.3     1  UNL1        0.0888
     12 N         -24.7580   -1.4810   32.6460 N.3     1  UNL1       -0.2177
     13 C         -25.6880    1.6140   26.4610 C.3     1  UNL1        0.0925
     14 C         -26.2500    2.9200   26.3950 C.2     1  UNL1        0.0587
     15 C         -25.6420    4.0930   27.1230 C.2     1  UNL1        0.2627
     16 N         -25.6140    5.2520   26.4490 N.am    1  UNL1       -0.2000
     17 C         -25.0260    6.4790   26.9630 C.3     1  UNL1        0.1388
     18 O         -25.1430    3.9660   28.2430 O.2     1  UNL1       -0.2686
     19 C         -27.4380    3.0910   25.6450 C.2     1  UNL1        0.1025
     20 N         -28.0750    2.0890   25.0030 N.2     1  UNL1       -0.2118
     21 C         -27.5430    0.8490   25.0790 C.2     1  UNL1        0.2344
     22 O         -28.1930   -0.2080   24.4770 O.2     1  UNL1       -0.4585
     23 C         -29.4600    0.0050   23.8660 C.3     1  UNL1        0.2423
     24 C         -30.0650   -1.3770   23.5730 C.3     1  UNL1        0.2292
     25 O         -30.7290   -1.8780   24.7210 O.3     1  UNL1       -0.2162
     26 C         -26.3540    0.5760   25.7770 C.3     1  UNL1        0.2438
     27 F         -25.8600   -0.6810   25.7950 F       1  UNL1       -0.2265
     28 C         -25.0134    1.2399   27.7332 C.2     1  UNL1        0.0148
     29 C         -26.8856    1.5881   29.1980 C.3     1  UNL1        0.0476
     30 C         -31.0402    2.7254   26.4648 C.3     1  UNL1        0.0307
     31 C         -23.6678    1.1310   28.1062 C.2     1  UNL1        0.1816
     32 C         -28.1777    2.1530   28.9686 C.2     1  UNL1       -0.0247
     33 C         -22.6056    1.6204   27.3217 C.3     1  UNL1        0.1407
     34 C         -30.0695    5.3609   27.4428 C.3     1  UNL1        0.0307
     35 CL        -22.7891    2.0352   25.6515 Cl      1  UNL1       -0.1067
     36 C         -28.5620    3.2272   29.8481 C.2     1  UNL1       -0.0261
     37 C         -29.1229    1.8004   27.9682 C.2     1  UNL1       -0.0091
     38 N         -25.6763   -0.3628   29.2096 N.3     1  UNL1       -0.2105
     39 C         -30.0178    2.8357   27.5651 C.2     1  UNL1       -0.0261
     40 O         -23.2582    0.5551   29.2021 O.2     1  UNL1       -0.2907
     41 C         -21.2124    1.6709   27.7872 C.3     1  UNL1        0.0258
     42 C         -27.7309    3.5464   31.0725 C.3     1  UNL1        0.0307
     43 C         -29.5010    4.0893   29.4854 C.2     1  UNL1       -0.0091
     44 C         -29.9177    4.0482   28.1591 C.2     1  UNL1       -0.0261
     45 C         -25.8414    0.8334   28.7328 C.3     1  UNL1        0.0989
@<TRIPOS>BOND
     1     1    38    1
     2     2     7    1
     3     2     1    1
     4     3     2    2
     5     4     3    1
     6     4     5    2
     7     5     6    1
     8     6     7    2
     9     8     1    1
    10     8     9    1
    11     8    12    1
    12     9    10    1
    13    10    11    1
    14    12    11    1
    15    13    28    1
    16    14    13    1
    17    14    15    1
    18    15    18    2
    19    16    17    1
    20    16    15    1
    21    19    14    2
    22    20    21    2
    23    20    19    1
    24    21    26    1
    25    22    21    1
    26    23    22    1
    27    24    23    1
    28    24    25    1
    29    26    27    1
    30    26    13    1
    31    28    31    2
    32    28    45    1
    33    30    39    1
    34    31    40    1
    35    32    29    1
    36    32    36    1
    37    33    41    1
    38    33    31    1
    39    34    44    1
    40    35    33    1
    41    36    42    1
    42    37    32    2
    43    39    37    1
    44    39    44    2
    45    43    36    2
    46    44    43    1
    47    45    29    1
    48    45    38    1
