@<TRIPOS>MOLECULE
outputs/IAG933/test6/raw/output_4412_IAG933_linker_design_.xyz
 42 46 0 0 0
SMALL
GASTEIGER

@<TRIPOS>ATOM
      1 C         -24.8550   -1.0120   30.1430 C.3     1  UNL1        0.0629
      2 C         -24.9730   -2.5050   29.7880 C.2     1  UNL1       -0.0170
      3 C         -23.9060   -3.1730   29.1460 C.2     1  UNL1       -0.0039
      4 C         -23.9890   -4.5490   28.8530 C.2     1  UNL1       -0.0003
      5 C         -25.1370   -5.2800   29.2050 C.2     1  UNL1       -0.0000
      6 C         -26.2320   -4.6110   29.7840 C.2     1  UNL1       -0.0003
      7 C         -26.1550   -3.2320   30.0650 C.2     1  UNL1       -0.0039
      8 C         -25.3870   -0.6790   31.5710 C.3     1  UNL1        0.0809
      9 C         -25.1890    0.7730   32.0280 C.3     1  UNL1        0.0195
     10 C         -25.3360    0.6840   33.5440 C.3     1  UNL1        0.0203
     11 C         -24.8290   -0.7150   33.9050 C.3     1  UNL1        0.0887
     12 N         -24.7580   -1.4810   32.6460 N.3     1  UNL1       -0.2188
     13 C         -25.6880    1.6140   26.4610 C.3     1  UNL1        0.0927
     14 C         -26.2500    2.9200   26.3950 C.2     1  UNL1        0.0589
     15 C         -25.6420    4.0930   27.1230 C.2     1  UNL1        0.2628
     16 N         -25.6140    5.2520   26.4490 N.am    1  UNL1       -0.2000
     17 C         -25.0260    6.4790   26.9630 C.3     1  UNL1        0.1388
     18 O         -25.1430    3.9660   28.2430 O.2     1  UNL1       -0.2686
     19 C         -27.4380    3.0910   25.6450 C.2     1  UNL1        0.1025
     20 N         -28.0750    2.0890   25.0030 N.2     1  UNL1       -0.2118
     21 C         -27.5430    0.8490   25.0790 C.2     1  UNL1        0.2344
     22 O         -28.1930   -0.2080   24.4770 O.2     1  UNL1       -0.4585
     23 C         -29.4600    0.0050   23.8660 C.3     1  UNL1        0.2423
     24 C         -30.0650   -1.3770   23.5730 C.3     1  UNL1        0.2292
     25 O         -30.7290   -1.8780   24.7210 O.3     1  UNL1       -0.2162
     26 C         -26.3540    0.5760   25.7770 C.3     1  UNL1        0.2440
     27 F         -25.8600   -0.6810   25.7950 F       1  UNL1       -0.2265
     28 O         -23.4069    2.2185   24.7049 O.2     1  UNL1       -0.2425
     29 C         -25.3992    0.8569   28.5726 C.ar    1  UNL1        0.0300
     30 C         -27.4326    3.5778   29.8591 C.3     1  UNL1        0.0086
     31 N         -21.3911    1.5299   27.5017 N.3     1  UNL1       -0.0707
     32 C         -23.5501    1.4866   27.0073 C.ar    1  UNL1        0.0974
     33 C         -22.8445    2.0377   25.8931 C.2     1  UNL1        0.3688
     34 C         -24.8393    1.3252   27.4138 C.ar    1  UNL1       -0.0045
     35 F         -22.2890   -0.5459   29.4982 F       1  UNL1       -0.2028
     36 O         -21.5592    2.2083   26.2185 O.3     1  UNL1       -0.3112
     37 C         -24.4853    0.0459   29.1799 C.ar    1  UNL1        0.0145
     38 C         -23.1218    0.2443   28.8954 C.ar    1  UNL1        0.1574
     39 C         -22.6302    1.0775   27.9090 C.ar    1  UNL1        0.1530
     40 O         -27.5263    0.2062   29.4366 O.2     1  UNL1       -0.2914
     41 C         -27.2893    2.3180   29.4340 C.3     1  UNL1        0.0691
     42 C         -26.8106    1.0640   29.1262 C.2     1  UNL1        0.1725
@<TRIPOS>BOND
     1     1    37    1
     2     2     7    1
     3     2     1    1
     4     3     2    2
     5     4     3    1
     6     4     5    2
     7     5     6    1
     8     6     7    2
     9     8     1    1
    10     8     9    1
    11     8    12    1
    12     9    10    1
    13    10    11    1
    14    12    11    1
    15    13    34    1
    16    14    13    1
    17    14    15    1
    18    15    18    2
    19    16    17    1
    20    16    15    1
    21    19    14    2
    22    20    21    2
    23    20    19    1
    24    21    26    1
    25    22    21    1
    26    23    22    1
    27    24    23    1
    28    24    25    1
    29    26    27    1
    30    26    13    1
    31    28    33    2
    32    29    42    1
    33    29    37   ar
    34    31    39    1
    35    32    34   ar
    36    32    39   ar
    37    33    36    1
    38    33    32    1
    39    34    29   ar
    40    36    31    1
    41    38    37   ar
    42    38    35    1
    43    39    38   ar
    44    41    30    1
    45    42    41    1
    46    42    40    2
