@<TRIPOS>MOLECULE
outputs/IAG933/test6/raw/output_4413_IAG933_linker_design_.xyz
 42 47 0 0 0
SMALL
GASTEIGER

@<TRIPOS>ATOM
      1 C         -24.8550   -1.0120   30.1430 C.3     1  UNL1        0.0408
      2 C         -24.9730   -2.5050   29.7880 C.2     1  UNL1       -0.0211
      3 C         -23.9060   -3.1730   29.1460 C.2     1  UNL1       -0.0042
      4 C         -23.9890   -4.5490   28.8530 C.2     1  UNL1       -0.0003
      5 C         -25.1370   -5.2800   29.2050 C.2     1  UNL1       -0.0000
      6 C         -26.2320   -4.6110   29.7840 C.2     1  UNL1       -0.0003
      7 C         -26.1550   -3.2320   30.0650 C.2     1  UNL1       -0.0042
      8 C         -25.3870   -0.6790   31.5710 C.3     1  UNL1        0.0769
      9 C         -25.1890    0.7730   32.0280 C.3     1  UNL1        0.0192
     10 C         -25.3360    0.6840   33.5440 C.3     1  UNL1        0.0202
     11 C         -24.8290   -0.7150   33.9050 C.3     1  UNL1        0.0887
     12 N         -24.7580   -1.4810   32.6460 N.3     1  UNL1       -0.2191
     13 C         -25.6880    1.6140   26.4610 C.2     1  UNL1        0.0688
     14 C         -26.2500    2.9200   26.3950 C.2     1  UNL1        0.0772
     15 C         -25.6420    4.0930   27.1230 C.2     1  UNL1        0.2663
     16 N         -25.6140    5.2520   26.4490 N.am    1  UNL1       -0.1997
     17 C         -25.0260    6.4790   26.9630 C.3     1  UNL1        0.1388
     18 O         -25.1430    3.9660   28.2430 O.2     1  UNL1       -0.2683
     19 C         -27.4380    3.0910   25.6450 C.2     1  UNL1        0.1066
     20 N         -28.0750    2.0890   25.0030 N.2     1  UNL1       -0.2081
     21 C         -27.5430    0.8490   25.0790 C.2     1  UNL1        0.2531
     22 O         -28.1930   -0.2080   24.4770 O.2     1  UNL1       -0.4558
     23 C         -29.4600    0.0050   23.8660 C.3     1  UNL1        0.2426
     24 C         -30.0650   -1.3770   23.5730 C.3     1  UNL1        0.2292
     25 O         -30.7290   -1.8780   24.7210 O.3     1  UNL1       -0.2162
     26 C         -26.3540    0.5760   25.7770 C.2     1  UNL1        0.1937
     27 F         -25.8600   -0.6810   25.7950 F       1  UNL1       -0.1994
     28 C         -24.7289    1.1638   26.9915 C.3     1  UNL1        0.2330
     29 C         -27.0473   -0.4681   28.4982 C.3     1  UNL1        0.0029
     30 C         -24.6480    0.2885   28.1122 C.3     1  UNL1        0.1487
     31 O         -29.9061   -0.7630   28.9938 O.3     1  UNL1       -0.3511
     32 O         -24.4699   -0.6685   27.1916 O.3     1  UNL1       -0.3287
     33 C         -28.5134   -0.3033   29.3931 C.3     1  UNL1        0.0002
     34 C         -22.7420    1.1130   27.9919 C.3     1  UNL1        0.1206
     35 C         -23.4193    0.3347   29.0154 C.3     1  UNL1        0.0621
     36 C         -28.7181    1.2746   29.2988 C.3     1  UNL1        0.0026
     37 C         -30.5957    0.1385   28.2102 C.3     1  UNL1        0.1448
     38 O         -23.4443    1.6889   26.8673 O.3     1  UNL1       -0.3315
     39 C         -29.7217    1.4356   28.1441 C.3     1  UNL1        0.0322
     40 C         -25.7449   -0.0455   29.1628 C.3     1  UNL1        0.0356
     41 C         -31.0292   -0.1024   29.5912 C.3     1  UNL1        0.1715
     42 C         -21.1806    1.2466   27.8433 C.3     1  UNL1        0.0322
@<TRIPOS>BOND
     1     1    40    1
     2     2     7    1
     3     2     1    1
     4     3     2    2
     5     4     3    1
     6     4     5    2
     7     5     6    1
     8     6     7    2
     9     8     1    1
    10     8     9    1
    11     8    12    1
    12     9    10    1
    13    10    11    1
    14    12    11    1
    15    14    13    1
    16    14    15    1
    17    15    18    2
    18    16    17    1
    19    16    15    1
    20    19    14    2
    21    20    21    2
    22    20    19    1
    23    21    26    1
    24    22    21    1
    25    23    22    1
    26    24    23    1
    27    24    25    1
    28    26    27    1
    29    26    13    2
    30    28    13    1
    31    28    32    1
    32    28    30    1
    33    29    33    1
    34    30    35    1
    35    30    40    1
    36    31    41    1
    37    32    30    1
    38    34    42    1
    39    34    35    1
    40    36    33    1
    41    37    39    1
    42    37    31    1
    43    37    41    1
    44    38    28    1
    45    38    34    1
    46    39    36    1
    47    40    29    1
