@<TRIPOS>MOLECULE
outputs/IAG933/test6/raw/output_4415_IAG933_linker_design_.xyz
 44 48 0 0 0
SMALL
GASTEIGER

@<TRIPOS>ATOM
      1 C         -24.8550   -1.0120   30.1430 C.3     1  UNL1        0.1553
      2 C         -24.9730   -2.5050   29.7880 C.2     1  UNL1        0.0060
      3 C         -23.9060   -3.1730   29.1460 C.2     1  UNL1       -0.0019
      4 C         -23.9890   -4.5490   28.8530 C.2     1  UNL1       -0.0002
      5 C         -25.1370   -5.2800   29.2050 C.2     1  UNL1       -0.0000
      6 C         -26.2320   -4.6110   29.7840 C.2     1  UNL1       -0.0002
      7 C         -26.1550   -3.2320   30.0650 C.2     1  UNL1       -0.0019
      8 C         -25.3870   -0.6790   31.5710 C.3     1  UNL1        0.1127
      9 C         -25.1890    0.7730   32.0280 C.3     1  UNL1        0.0968
     10 C         -25.3360    0.6840   33.5440 C.3     1  UNL1        0.0294
     11 C         -24.8290   -0.7150   33.9050 C.3     1  UNL1        0.0893
     12 N         -24.7580   -1.4810   32.6460 N.3     1  UNL1       -0.2161
     13 C         -25.6880    1.6140   26.4610 C.2     1  UNL1        0.0206
     14 C         -26.2500    2.9200   26.3950 C.2     1  UNL1        0.0727
     15 C         -25.6420    4.0930   27.1230 C.2     1  UNL1        0.2661
     16 N         -25.6140    5.2520   26.4490 N.am    1  UNL1       -0.1997
     17 C         -25.0260    6.4790   26.9630 C.3     1  UNL1        0.1388
     18 O         -25.1430    3.9660   28.2430 O.2     1  UNL1       -0.2683
     19 C         -27.4380    3.0910   25.6450 C.2     1  UNL1        0.1064
     20 N         -28.0750    2.0890   25.0030 N.2     1  UNL1       -0.2081
     21 C         -27.5430    0.8490   25.0790 C.2     1  UNL1        0.2530
     22 O         -28.1930   -0.2080   24.4770 O.2     1  UNL1       -0.4558
     23 C         -29.4600    0.0050   23.8660 C.3     1  UNL1        0.2426
     24 C         -30.0650   -1.3770   23.5730 C.3     1  UNL1        0.2292
     25 O         -30.7290   -1.8780   24.7210 O.3     1  UNL1       -0.2162
     26 C         -26.3540    0.5760   25.7770 C.2     1  UNL1        0.1893
     27 F         -25.8600   -0.6810   25.7950 F       1  UNL1       -0.1996
     28 C         -24.3842    0.9975   28.5576 C.3     1  UNL1        0.1782
     29 O         -24.7176   -0.3838   28.8639 O.3     1  UNL1       -0.3379
     30 C         -24.3388    1.3892   27.0851 C.3     1  UNL1        0.0863
     31 C         -22.2496    1.6871   27.8656 C.3     1  UNL1        0.2522
     32 O         -26.0829    3.0032   32.0540 O.2     1  UNL1       -0.2748
     33 C         -25.5469    1.9408   29.2412 C.3     1  UNL1        0.1379
     34 O         -29.0208    0.5522   29.4954 O.3     1  UNL1       -0.2185
     35 F         -20.9347    1.9491   27.7884 F       1  UNL1       -0.2163
     36 N         -26.6948    1.7248   30.2334 N.am    1  UNL1       -0.2729
     37 C         -26.0081    1.9447   31.4634 C.2     1  UNL1        0.2269
     38 C         -30.1283    2.5240   31.0508 C.3     1  UNL1        0.2165
     39 C         -23.1456    2.1221   26.7282 C.3     1  UNL1        0.1372
     40 C         -29.1795    1.7666   30.1662 C.3     1  UNL1        0.2044
     41 O         -29.2817    2.8849   32.1349 O.3     1  UNL1       -0.2175
     42 N         -22.9000    1.0993   28.8739 N.3     1  UNL1       -0.1606
     43 CL        -22.4842    2.2614   25.1801 Cl      1  UNL1       -0.1100
     44 C         -27.8856    2.5894   29.8922 C.3     1  UNL1        0.1290
@<TRIPOS>BOND
     1     1     2    1
     2     1     8    1
     3     2     7    1
     4     3     2    2
     5     4     3    1
     6     4     5    2
     7     5     6    1
     8     6     7    2
     9     8     9    1
    10     8    12    1
    11     9    10    1
    12    10    11    1
    13    12    11    1
    14    14    13    1
    15    14    15    1
    16    15    18    2
    17    16    17    1
    18    16    15    1
    19    19    14    2
    20    20    21    2
    21    20    19    1
    22    21    26    1
    23    22    21    1
    24    23    22    1
    25    24    23    1
    26    24    25    1
    27    26    27    1
    28    26    13    2
    29    28    29    1
    30    28    42    1
    31    28    33    1
    32    29     1    1
    33    30    13    1
    34    30    28    1
    35    31    35    1
    36    31    42    1
    37    33    36    1
    38    36    37   am
    39    37     9    1
    40    37    32    2
    41    38    41    1
    42    39    43    1
    43    39    30    1
    44    39    31    1
    45    40    34    1
    46    40    38    1
    47    44    40    1
    48    44    36    1
