@<TRIPOS>MOLECULE
outputs/IAG933/test6/raw/output_4416_IAG933_linker_design_.xyz
 40 43 0 0 0
SMALL
GASTEIGER

@<TRIPOS>ATOM
      1 C         -24.8550   -1.0120   30.1430 C.3     1  UNL1        0.0968
      2 C         -24.9730   -2.5050   29.7880 C.2     1  UNL1       -0.0064
      3 C         -23.9060   -3.1730   29.1460 C.2     1  UNL1       -0.0029
      4 C         -23.9890   -4.5490   28.8530 C.2     1  UNL1       -0.0003
      5 C         -25.1370   -5.2800   29.2050 C.2     1  UNL1       -0.0000
      6 C         -26.2320   -4.6110   29.7840 C.2     1  UNL1       -0.0003
      7 C         -26.1550   -3.2320   30.0650 C.2     1  UNL1       -0.0029
      8 C         -25.3870   -0.6790   31.5710 C.3     1  UNL1        0.0984
      9 C         -25.1890    0.7730   32.0280 C.3     1  UNL1        0.0767
     10 C         -25.3360    0.6840   33.5440 C.3     1  UNL1        0.0276
     11 C         -24.8290   -0.7150   33.9050 C.3     1  UNL1        0.0892
     12 N         -24.7580   -1.4810   32.6460 N.3     1  UNL1       -0.2173
     13 C         -25.6880    1.6140   26.4610 C.2     1  UNL1        0.0368
     14 C         -26.2500    2.9200   26.3950 C.2     1  UNL1        0.0742
     15 C         -25.6420    4.0930   27.1230 C.2     1  UNL1        0.2662
     16 N         -25.6140    5.2520   26.4490 N.am    1  UNL1       -0.1997
     17 C         -25.0260    6.4790   26.9630 C.3     1  UNL1        0.1388
     18 O         -25.1430    3.9660   28.2430 O.2     1  UNL1       -0.2683
     19 C         -27.4380    3.0910   25.6450 C.2     1  UNL1        0.1065
     20 N         -28.0750    2.0890   25.0030 N.2     1  UNL1       -0.2081
     21 C         -27.5430    0.8490   25.0790 C.2     1  UNL1        0.2530
     22 O         -28.1930   -0.2080   24.4770 O.2     1  UNL1       -0.4558
     23 C         -29.4600    0.0050   23.8660 C.3     1  UNL1        0.2426
     24 C         -30.0650   -1.3770   23.5730 C.3     1  UNL1        0.2292
     25 O         -30.7290   -1.8780   24.7210 O.3     1  UNL1       -0.2162
     26 C         -26.3540    0.5760   25.7770 C.2     1  UNL1        0.1908
     27 F         -25.8600   -0.6810   25.7950 F       1  UNL1       -0.1995
     28 C         -22.5235    0.5640   28.6434 C.3     1  UNL1        0.2185
     29 N         -23.6309    2.0349   26.6015 N.pl3   1  UNL1       -0.2300
     30 C         -21.5114    1.2449   27.6033 C.2     1  UNL1        0.1652
     31 C         -23.4196    1.4166   29.5116 C.3     1  UNL1        0.1128
     32 O         -22.2723   -0.5213   29.3795 O.3     1  UNL1       -0.2143
     33 N         -24.6081    0.3518   29.5795 N.3     1  UNL1       -0.2649
     34 F         -20.4262    1.2900   27.7944 F       1  UNL1       -0.2048
     35 C         -24.6146    1.2925   27.0229 C.3     1  UNL1        0.1331
     36 C         -25.1396    2.2474   31.7586 C.2     1  UNL1        0.1521
     37 O         -24.0257    2.8193   31.6817 O.2     1  UNL1       -0.2960
     38 C         -26.2974    3.1434   32.1365 C.3     1  UNL1        0.0723
     39 C         -22.1798    1.9347   26.5193 C.2     1  UNL1        0.1081
     40 C         -24.9443    0.1893   28.1035 C.3     1  UNL1        0.0988
@<TRIPOS>BOND
     1     1     2    1
     2     2     7    1
     3     3     2    2
     4     4     3    1
     5     4     5    2
     6     5     6    1
     7     6     7    2
     8     8     1    1
     9     8     9    1
    10     8    12    1
    11     9    36    1
    12     9    10    1
    13    10    11    1
    14    12    11    1
    15    14    13    1
    16    14    15    1
    17    15    18    2
    18    16    17    1
    19    16    15    1
    20    19    14    2
    21    20    21    2
    22    20    19    1
    23    21    26    1
    24    22    21    1
    25    23    22    1
    26    24    23    1
    27    24    25    1
    28    26    27    1
    29    26    13    2
    30    28    32    1
    31    28    31    1
    32    29    35    1
    33    30    34    1
    34    30    28    1
    35    31    33    1
    36    33     1    1
    37    35    13    1
    38    35    40    1
    39    36    38    1
    40    37    36    2
    41    39    29    1
    42    39    30    2
    43    40    33    1
