@<TRIPOS>MOLECULE
outputs/IAG933/test6/raw/output_4417_IAG933_linker_design_.xyz
 45 49 0 0 0
SMALL
GASTEIGER

@<TRIPOS>ATOM
      1 C         -24.8550   -1.0120   30.1430 C.3     1  UNL1        0.0981
      2 C         -24.9730   -2.5050   29.7880 C.2     1  UNL1       -0.0064
      3 C         -23.9060   -3.1730   29.1460 C.2     1  UNL1       -0.0029
      4 C         -23.9890   -4.5490   28.8530 C.2     1  UNL1       -0.0003
      5 C         -25.1370   -5.2800   29.2050 C.2     1  UNL1       -0.0000
      6 C         -26.2320   -4.6110   29.7840 C.2     1  UNL1       -0.0003
      7 C         -26.1550   -3.2320   30.0650 C.2     1  UNL1       -0.0029
      8 C         -25.3870   -0.6790   31.5710 C.3     1  UNL1        0.0916
      9 C         -25.1890    0.7730   32.0280 C.3     1  UNL1        0.0206
     10 C         -25.3360    0.6840   33.5440 C.3     1  UNL1        0.0203
     11 C         -24.8290   -0.7150   33.9050 C.3     1  UNL1        0.0888
     12 N         -24.7580   -1.4810   32.6460 N.3     1  UNL1       -0.2178
     13 C         -25.6880    1.6140   26.4610 C.2     1  UNL1        0.0206
     14 C         -26.2500    2.9200   26.3950 C.2     1  UNL1        0.0727
     15 C         -25.6420    4.0930   27.1230 C.2     1  UNL1        0.2661
     16 N         -25.6140    5.2520   26.4490 N.am    1  UNL1       -0.1997
     17 C         -25.0260    6.4790   26.9630 C.3     1  UNL1        0.1388
     18 O         -25.1430    3.9660   28.2430 O.2     1  UNL1       -0.2683
     19 C         -27.4380    3.0910   25.6450 C.2     1  UNL1        0.1064
     20 N         -28.0750    2.0890   25.0030 N.2     1  UNL1       -0.2081
     21 C         -27.5430    0.8490   25.0790 C.2     1  UNL1        0.2530
     22 O         -28.1930   -0.2080   24.4770 O.2     1  UNL1       -0.4558
     23 C         -29.4600    0.0050   23.8660 C.3     1  UNL1        0.2426
     24 C         -30.0650   -1.3770   23.5730 C.3     1  UNL1        0.2292
     25 O         -30.7290   -1.8780   24.7210 O.3     1  UNL1       -0.2162
     26 C         -26.3540    0.5760   25.7770 C.2     1  UNL1        0.1893
     27 F         -25.8600   -0.6810   25.7950 F       1  UNL1       -0.1996
     28 N         -30.5977   -0.1988   28.3515 N.3     1  UNL1       -0.2476
     29 C         -24.5592    1.3799   27.3379 C.3     1  UNL1        0.0854
     30 C         -29.4517    0.1050   29.2105 C.3     1  UNL1        0.2199
     31 CL        -22.8296    2.3261   25.3179 Cl      1  UNL1       -0.1119
     32 C         -23.1148    1.4790   26.8085 C.3     1  UNL1        0.1173
     33 C         -21.7360    1.3545   27.6866 C.3     1  UNL1        0.1603
     34 N         -25.0544   -0.1235   29.0509 N.3     1  UNL1       -0.2443
     35 C         -23.9025    0.5730   28.4845 C.3     1  UNL1        0.1818
     36 C         -33.7005   -0.0923   26.9138 C.3     1  UNL1        0.0233
     37 N         -35.8810   -0.6795   26.1777 N.3     1  UNL1       -0.1314
     38 C         -27.3941    0.4107   29.3226 C.3     1  UNL1        0.1612
     39 C         -26.2479   -0.2462   28.5116 C.3     1  UNL1        0.1066
     40 O         -22.4472    0.6202   28.8403 O.3     1  UNL1       -0.3392
     41 C         -34.5122   -1.1439   26.2045 C.3     1  UNL1        0.1094
     42 C         -32.4380   -0.7522   27.5893 C.3     1  UNL1        0.0336
     43 C         -31.1678   -0.8725   27.0779 C.3     1  UNL1        0.0757
     44 C         -31.9057    0.3400   28.4794 C.3     1  UNL1        0.0757
     45 O         -28.4708   -0.4563   29.6606 O.3     1  UNL1       -0.3358
@<TRIPOS>BOND
     1     1    34    1
     2     2     7    1
     3     2     1    1
     4     3     2    2
     5     4     3    1
     6     4     5    2
     7     5     6    1
     8     6     7    2
     9     8     1    1
    10     8     9    1
    11     8    12    1
    12     9    10    1
    13    10    11    1
    14    12    11    1
    15    14    13    1
    16    14    15    1
    17    15    18    2
    18    16    17    1
    19    16    15    1
    20    19    14    2
    21    20    21    2
    22    20    19    1
    23    21    26    1
    24    22    21    1
    25    23    22    1
    26    24    23    1
    27    24    25    1
    28    26    27    1
    29    26    13    2
    30    28    44    1
    31    28    30    1
    32    29    13    1
    33    29    35    1
    34    30    45    1
    35    32    31    1
    36    32    29    1
    37    32    33    1
    38    33    40    1
    39    35    40    1
    40    35    34    1
    41    37    41    1
    42    38    45    1
    43    39    34    1
    44    39    38    1
    45    41    36    1
    46    42    36    1
    47    42    44    1
    48    43    42    1
    49    43    28    1
