@<TRIPOS>MOLECULE
outputs/IAG933/test6/raw/output_442_IAG933_linker_design_.xyz
 47 51 0 0 0
SMALL
GASTEIGER

@<TRIPOS>ATOM
      1 C         -24.8550   -1.0120   30.1430 C.3     1  UNL1        0.0711
      2 C         -24.9730   -2.5050   29.7880 C.2     1  UNL1       -0.0184
      3 C         -23.9060   -3.1730   29.1460 C.2     1  UNL1       -0.0041
      4 C         -23.9890   -4.5490   28.8530 C.2     1  UNL1       -0.0003
      5 C         -25.1370   -5.2800   29.2050 C.2     1  UNL1       -0.0000
      6 C         -26.2320   -4.6110   29.7840 C.2     1  UNL1       -0.0003
      7 C         -26.1550   -3.2320   30.0650 C.2     1  UNL1       -0.0041
      8 C         -25.3870   -0.6790   31.5710 C.3     1  UNL1        0.0795
      9 C         -25.1890    0.7730   32.0280 C.3     1  UNL1        0.0193
     10 C         -25.3360    0.6840   33.5440 C.3     1  UNL1        0.0202
     11 C         -24.8290   -0.7150   33.9050 C.3     1  UNL1        0.0887
     12 N         -24.7580   -1.4810   32.6460 N.3     1  UNL1       -0.2190
     13 C         -25.6880    1.6140   26.4610 C.2     1  UNL1        0.0937
     14 C         -26.2500    2.9200   26.3950 C.2     1  UNL1        0.0905
     15 C         -25.6420    4.0930   27.1230 C.2     1  UNL1        0.2677
     16 N         -25.6140    5.2520   26.4490 N.am    1  UNL1       -0.1997
     17 C         -25.0260    6.4790   26.9630 C.3     1  UNL1        0.1388
     18 O         -25.1430    3.9660   28.2430 O.2     1  UNL1       -0.2683
     19 C         -27.4380    3.0910   25.6450 C.2     1  UNL1        0.1080
     20 N         -28.0750    2.0890   25.0030 N.2     1  UNL1       -0.2080
     21 C         -27.5430    0.8490   25.0790 C.2     1  UNL1        0.2546
     22 O         -28.1930   -0.2080   24.4770 O.2     1  UNL1       -0.4558
     23 C         -29.4600    0.0050   23.8660 C.3     1  UNL1        0.2426
     24 C         -30.0650   -1.3770   23.5730 C.3     1  UNL1        0.2292
     25 O         -30.7290   -1.8780   24.7210 O.3     1  UNL1       -0.2162
     26 C         -26.3540    0.5760   25.7770 C.2     1  UNL1        0.2068
     27 F         -25.8600   -0.6810   25.7950 F       1  UNL1       -0.1979
     28 C         -23.1848    2.0013   26.2744 C.2     1  UNL1        0.0694
     29 C         -31.9116   -0.3029   26.9264 C.3     1  UNL1        0.0160
     30 C         -24.1795    0.7357   28.2049 C.2     1  UNL1        0.0605
     31 C         -32.7337    0.4682   25.9024 C.3     1  UNL1        0.0028
     32 C         -29.9256    2.0414   28.8112 C.3     1  UNL1        0.1048
     33 C         -32.9124    0.8307   28.9073 C.3     1  UNL1        0.0173
     34 C         -31.6401    0.4613   28.2526 C.3     1  UNL1        0.0576
     35 C         -22.5918    0.8248   28.4629 C.2     1  UNL1        0.0145
     36 C         -31.5015    2.3478   26.9489 C.3     1  UNL1        0.0721
     37 C         -27.9591   -0.8822   29.3254 C.3     1  UNL1        0.2943
     38 C         -28.4935    1.3462   30.9361 C.3     1  UNL1        0.2129
     39 C         -29.1924    1.1345   29.5721 C.3     1  UNL1        0.1666
     40 N         -30.8508    1.6587   27.8788 N.3     1  UNL1       -0.2719
     41 C         -21.9964    1.5531   27.2073 C.2     1  UNL1        0.0174
     42 N         -24.4337    1.4788   27.0089 N.pl3   1  UNL1       -0.2636
     43 C         -25.1639   -0.1133   29.1324 C.3     1  UNL1        0.1591
     44 O         -29.1652    0.4355   31.7975 O.3     1  UNL1       -0.2177
     45 O         -26.7202   -0.3543   28.9763 O.3     1  UNL1       -0.3231
     46 O         -29.0525   -0.2445   28.9952 O.3     1  UNL1       -0.3251
     47 C         -31.9146    1.7582   25.5724 C.3     1  UNL1        0.0174
@<TRIPOS>BOND
     1     1    43    1
     2     2     7    1
     3     2     1    1
     4     3     2    2
     5     4     3    1
     6     4     5    2
     7     5     6    1
     8     6     7    2
     9     8     1    1
    10     8     9    1
    11     8    12    1
    12     9    10    1
    13    10    11    1
    14    12    11    1
    15    13    42    1
    16    14    13    1
    17    14    15    1
    18    15    18    2
    19    16    17    1
    20    16    15    1
    21    19    14    2
    22    20    21    2
    23    20    19    1
    24    21    26    1
    25    22    21    1
    26    23    22    1
    27    24    23    1
    28    24    25    1
    29    26    27    1
    30    26    13    2
    31    28    42    1
    32    28    41    2
    33    29    34    1
    34    30    35    2
    35    30    43    1
    36    31    29    1
    37    34    33    1
    38    36    40    1
    39    38    44    1
    40    39    32    1
    41    39    38    1
    42    40    34    1
    43    40    32    1
    44    41    35    1
    45    42    30    1
    46    43    45    1
    47    45    37    1
    48    46    37    1
    49    46    39    1
    50    47    31    1
    51    47    36    1
