@<TRIPOS>MOLECULE
outputs/IAG933/test6/raw/output_4420_IAG933_linker_design_.xyz
 43 45 0 0 0
SMALL
GASTEIGER

@<TRIPOS>ATOM
      1 C         -24.8550   -1.0120   30.1430 C.3     1  UNL1        0.1533
      2 C         -24.9730   -2.5050   29.7880 C.2     1  UNL1        0.0059
      3 C         -23.9060   -3.1730   29.1460 C.2     1  UNL1       -0.0019
      4 C         -23.9890   -4.5490   28.8530 C.2     1  UNL1       -0.0002
      5 C         -25.1370   -5.2800   29.2050 C.2     1  UNL1       -0.0000
      6 C         -26.2320   -4.6110   29.7840 C.2     1  UNL1       -0.0002
      7 C         -26.1550   -3.2320   30.0650 C.2     1  UNL1       -0.0019
      8 C         -25.3870   -0.6790   31.5710 C.3     1  UNL1        0.1046
      9 C         -25.1890    0.7730   32.0280 C.3     1  UNL1        0.0313
     10 C         -25.3360    0.6840   33.5440 C.3     1  UNL1        0.0208
     11 C         -24.8290   -0.7150   33.9050 C.3     1  UNL1        0.0888
     12 N         -24.7580   -1.4810   32.6460 N.3     1  UNL1       -0.2166
     13 C         -25.6880    1.6140   26.4610 C.2     1  UNL1        0.1791
     14 C         -26.2500    2.9200   26.3950 C.2     1  UNL1        0.1106
     15 C         -25.6420    4.0930   27.1230 C.2     1  UNL1        0.2694
     16 N         -25.6140    5.2520   26.4490 N.am    1  UNL1       -0.1996
     17 C         -25.0260    6.4790   26.9630 C.3     1  UNL1        0.1388
     18 O         -25.1430    3.9660   28.2430 O.2     1  UNL1       -0.2682
     19 C         -27.4380    3.0910   25.6450 C.2     1  UNL1        0.1098
     20 N         -28.0750    2.0890   25.0030 N.2     1  UNL1       -0.2079
     21 C         -27.5430    0.8490   25.0790 C.2     1  UNL1        0.2564
     22 O         -28.1930   -0.2080   24.4770 O.2     1  UNL1       -0.4558
     23 C         -29.4600    0.0050   23.8660 C.3     1  UNL1        0.2426
     24 C         -30.0650   -1.3770   23.5730 C.3     1  UNL1        0.2292
     25 O         -30.7290   -1.8780   24.7210 O.3     1  UNL1       -0.2162
     26 C         -26.3540    0.5760   25.7770 C.2     1  UNL1        0.2268
     27 F         -25.8600   -0.6810   25.7950 F       1  UNL1       -0.1960
     28 C         -27.2249    5.0738   32.5711 C.3     1  UNL1        0.0437
     29 C         -25.7899    5.3267   32.1835 C.3     1  UNL1        0.1363
     30 C         -24.9957    3.0328   31.4607 C.2     1  UNL1        0.3168
     31 O         -23.7872    0.1273   29.8997 O.3     1  UNL1       -0.3489
     32 CL        -20.7267    1.9026   27.3305 Cl      1  UNL1       -0.1056
     33 C         -22.3626    1.0144   29.4689 C.3     1  UNL1        0.1652
     34 O         -23.1399    2.2637   25.9668 O.3     1  UNL1       -0.3169
     35 C         -25.1535    6.3624   33.0983 C.3     1  UNL1        0.0437
     36 O         -24.6498    1.1618   27.3650 O.2     1  UNL1       -0.4487
     37 O         -23.7865    2.7591   31.0566 O.2     1  UNL1       -0.2501
     38 O         -25.0805    4.2165   32.1645 O.3     1  UNL1       -0.4557
     39 C         -22.2978    1.3604   27.9498 C.3     1  UNL1        0.1791
     40 C         -25.8263    5.9650   30.8243 C.3     1  UNL1        0.0437
     41 C         -25.9009    2.1468   31.4699 C.3     1  UNL1        0.1111
     42 C         -23.2974    1.5085   27.0210 C.3     1  UNL1        0.3056
     43 C         -23.0715    2.1024   24.5428 C.3     1  UNL1        0.1780
@<TRIPOS>BOND
     1     1    31    1
     2     2     7    1
     3     2     1    1
     4     3     2    2
     5     4     3    1
     6     4     5    2
     7     5     6    1
     8     6     7    2
     9     8     1    1
    10     8     9    1
    11     8    12    1
    12     9    41    1
    13     9    10    1
    14    10    11    1
    15    12    11    1
    16    13    36    1
    17    14    13    1
    18    14    15    1
    19    15    18    2
    20    16    17    1
    21    16    15    1
    22    19    14    2
    23    20    21    2
    24    20    19    1
    25    21    26    1
    26    22    21    1
    27    23    22    1
    28    24    23    1
    29    24    25    1
    30    26    27    1
    31    26    13    2
    32    29    28    1
    33    29    35    1
    34    30    41    1
    35    30    38    1
    36    33    31    1
    37    37    30    2
    38    38    29    1
    39    39    32    1
    40    39    33    1
    41    40    29    1
    42    42    34    1
    43    42    36    1
    44    42    39    1
    45    43    34    1
