@<TRIPOS>MOLECULE
outputs/IAG933/test6/raw/output_4423_IAG933_linker_design_.xyz
 49 54 0 0 0
SMALL
GASTEIGER

@<TRIPOS>ATOM
      1 C         -24.8550   -1.0120   30.1430 C.3     1  UNL1        0.0604
      2 C         -24.9730   -2.5050   29.7880 C.2     1  UNL1       -0.0171
      3 C         -23.9060   -3.1730   29.1460 C.2     1  UNL1       -0.0039
      4 C         -23.9890   -4.5490   28.8530 C.2     1  UNL1       -0.0003
      5 C         -25.1370   -5.2800   29.2050 C.2     1  UNL1       -0.0000
      6 C         -26.2320   -4.6110   29.7840 C.2     1  UNL1       -0.0003
      7 C         -26.1550   -3.2320   30.0650 C.2     1  UNL1       -0.0039
      8 C         -25.3870   -0.6790   31.5710 C.3     1  UNL1        0.0808
      9 C         -25.1890    0.7730   32.0280 C.3     1  UNL1        0.0195
     10 C         -25.3360    0.6840   33.5440 C.3     1  UNL1        0.0203
     11 C         -24.8290   -0.7150   33.9050 C.3     1  UNL1        0.0887
     12 N         -24.7580   -1.4810   32.6460 N.3     1  UNL1       -0.2188
     13 C         -25.6880    1.6140   26.4610 C.2     1  UNL1        0.0379
     14 C         -26.2500    2.9200   26.3950 C.2     1  UNL1        0.0765
     15 C         -25.6420    4.0930   27.1230 C.2     1  UNL1        0.2664
     16 N         -25.6140    5.2520   26.4490 N.am    1  UNL1       -0.1997
     17 C         -25.0260    6.4790   26.9630 C.3     1  UNL1        0.1388
     18 O         -25.1430    3.9660   28.2430 O.2     1  UNL1       -0.2683
     19 C         -27.4380    3.0910   25.6450 C.2     1  UNL1        0.1067
     20 N         -28.0750    2.0890   25.0030 N.2     1  UNL1       -0.2081
     21 C         -27.5430    0.8490   25.0790 C.2     1  UNL1        0.2533
     22 O         -28.1930   -0.2080   24.4770 O.2     1  UNL1       -0.4560
     23 C         -29.4600    0.0050   23.8660 C.3     1  UNL1        0.2391
     24 C         -30.0650   -1.3770   23.5730 C.3     1  UNL1        0.1895
     25 O         -30.7290   -1.8780   24.7210 O.3     1  UNL1       -0.3471
     26 C         -26.3540    0.5760   25.7770 C.2     1  UNL1        0.1930
     27 F         -25.8600   -0.6810   25.7950 F       1  UNL1       -0.1992
     28 C         -30.5789    4.4641   26.8798 C.3     1  UNL1        0.0188
     29 C         -24.5284    1.3175   27.2562 C.2     1  UNL1        0.0027
     30 C         -25.2227    0.6856   28.4458 C.2     1  UNL1        0.0014
     31 C         -22.4474    1.0374   27.7499 C.2     1  UNL1        0.1398
     32 C         -27.4912   -0.3647   28.7237 C.3     1  UNL1        0.0956
     33 C         -28.3557    1.8209   30.0672 C.3     1  UNL1        0.2882
     34 C         -22.7940    0.2730   28.8700 C.2     1  UNL1        0.0255
     35 C         -31.3620   -0.8453   25.8209 C.3     1  UNL1        0.1744
     36 C         -31.2470    2.6519   29.8469 C.3     1  UNL1        0.0898
     37 N         -30.2126    3.3485   29.0469 N.3     1  UNL1       -0.2661
     38 O         -29.2218    1.1553   29.4272 O.3     1  UNL1       -0.2943
     39 C         -23.3891    1.4243   26.7922 C.2     1  UNL1        0.0295
     40 C         -26.5029    0.7605   28.8427 C.3     1  UNL1        0.1460
     41 C         -29.5890    3.5502   27.6921 C.3     1  UNL1        0.0724
     42 O         -29.7486   -0.2556   27.5488 O.3     1  UNL1       -0.3277
     43 C         -29.1166    3.2049   29.9886 C.3     1  UNL1        0.1497
     44 C         -24.2078   -0.0050   29.1666 C.2     1  UNL1       -0.0165
     45 F         -21.1797    1.4430   27.5840 F       1  UNL1       -0.2042
     46 O         -27.0202    1.9079   29.4220 O.3     1  UNL1       -0.3172
     47 C         -28.9702    0.0705   28.5393 C.3     1  UNL1        0.2409
     48 C         -31.0757   -0.7459   27.3777 C.3     1  UNL1        0.1767
     49 N         -28.1769    1.7558   31.5688 N.3     1  UNL1       -0.0736
@<TRIPOS>BOND
     1     1    44    1
     2     2     7    1
     3     2     1    1
     4     3     2    2
     5     4     3    1
     6     4     5    2
     7     5     6    1
     8     6     7    2
     9     8     1    1
    10     8     9    1
    11     8    12    1
    12     9    10    1
    13    10    11    1
    14    12    11    1
    15    13    29    1
    16    14    13    1
    17    14    15    1
    18    15    18    2
    19    16    17    1
    20    16    15    1
    21    19    14    2
    22    20    21    2
    23    20    19    1
    24    21    26    1
    25    22    21    1
    26    23    22    1
    27    24    23    1
    28    24    25    1
    29    25    35    1
    30    26    27    1
    31    26    13    2
    32    28    41    1
    33    29    30    1
    34    30    40    1
    35    30    44    2
    36    31    34    2
    37    33    49    1
    38    34    44    1
    39    35    48    1
    40    37    36    1
    41    37    43    1
    42    38    33    1
    43    39    29    2
    44    39    31    1
    45    40    32    1
    46    40    46    1
    47    41    37    1
    48    42    47    1
    49    43    33    1
    50    45    31    1
    51    46    33    1
    52    47    32    1
    53    47    38    1
    54    48    42    1
