@<TRIPOS>MOLECULE
outputs/IAG933/test6/raw/output_4425_IAG933_linker_design_.xyz
 42 45 0 0 0
SMALL
GASTEIGER

@<TRIPOS>ATOM
      1 C         -24.8550   -1.0120   30.1430 C.3     1  UNL1        0.0622
      2 C         -24.9730   -2.5050   29.7880 C.2     1  UNL1       -0.0192
      3 C         -23.9060   -3.1730   29.1460 C.2     1  UNL1       -0.0042
      4 C         -23.9890   -4.5490   28.8530 C.2     1  UNL1       -0.0003
      5 C         -25.1370   -5.2800   29.2050 C.2     1  UNL1       -0.0000
      6 C         -26.2320   -4.6110   29.7840 C.2     1  UNL1       -0.0003
      7 C         -26.1550   -3.2320   30.0650 C.2     1  UNL1       -0.0042
      8 C         -25.3870   -0.6790   31.5710 C.3     1  UNL1        0.0788
      9 C         -25.1890    0.7730   32.0280 C.3     1  UNL1        0.0193
     10 C         -25.3360    0.6840   33.5440 C.3     1  UNL1        0.0202
     11 C         -24.8290   -0.7150   33.9050 C.3     1  UNL1        0.0887
     12 N         -24.7580   -1.4810   32.6460 N.3     1  UNL1       -0.2191
     13 C         -25.6880    1.6140   26.4610 C.2     1  UNL1        0.0374
     14 C         -26.2500    2.9200   26.3950 C.2     1  UNL1        0.0765
     15 C         -25.6420    4.0930   27.1230 C.2     1  UNL1        0.2664
     16 N         -25.6140    5.2520   26.4490 N.am    1  UNL1       -0.1997
     17 C         -25.0260    6.4790   26.9630 C.3     1  UNL1        0.1388
     18 O         -25.1430    3.9660   28.2430 O.2     1  UNL1       -0.2683
     19 C         -27.4380    3.0910   25.6450 C.2     1  UNL1        0.1067
     20 N         -28.0750    2.0890   25.0030 N.2     1  UNL1       -0.2081
     21 C         -27.5430    0.8490   25.0790 C.2     1  UNL1        0.2533
     22 O         -28.1930   -0.2080   24.4770 O.2     1  UNL1       -0.4558
     23 C         -29.4600    0.0050   23.8660 C.3     1  UNL1        0.2426
     24 C         -30.0650   -1.3770   23.5730 C.3     1  UNL1        0.2292
     25 O         -30.7290   -1.8780   24.7210 O.3     1  UNL1       -0.2162
     26 C         -26.3540    0.5760   25.7770 C.2     1  UNL1        0.1930
     27 F         -25.8600   -0.6810   25.7950 F       1  UNL1       -0.1992
     28 O         -22.3668    0.3142   29.9306 O.3     1  UNL1       -0.2112
     29 C         -25.2574    0.0519   29.0405 C.3     1  UNL1        0.1216
     30 C         -22.2096    1.5537   27.6758 C.2     1  UNL1        0.1478
     31 N         -26.2602    1.1056   29.3487 N.am    1  UNL1       -0.2025
     32 C         -28.2952    1.4714   30.5663 C.3     1  UNL1        0.0782
     33 C         -24.1806    0.6991   28.3758 C.2     1  UNL1        0.0118
     34 C         -23.1360    1.7698   26.6479 C.2     1  UNL1        0.0039
     35 C         -24.3726    1.3552   27.0955 C.2     1  UNL1       -0.0031
     36 O         -28.0122   -0.1192   28.6976 O.2     1  UNL1       -0.2733
     37 C         -27.7383    2.9193   30.6168 C.3     1  UNL1        0.0096
     38 F         -20.9167    1.8261   27.6901 F       1  UNL1       -0.2062
     39 C         -29.7943    1.5357   30.2441 C.3     1  UNL1        0.0096
     40 C         -22.8796    0.8076   28.7839 C.3     1  UNL1        0.2210
     41 C         -22.8832    2.4350   25.3430 C.3     1  UNL1        0.0331
     42 C         -27.5806    0.8164   29.3995 C.2     1  UNL1        0.2411
@<TRIPOS>BOND
     1     1    29    1
     2     2     7    1
     3     2     1    1
     4     3     2    2
     5     4     3    1
     6     4     5    2
     7     5     6    1
     8     6     7    2
     9     8     1    1
    10     8     9    1
    11     8    12    1
    12     9    10    1
    13    10    11    1
    14    12    11    1
    15    13    35    1
    16    14    13    1
    17    14    15    1
    18    15    18    2
    19    16    17    1
    20    16    15    1
    21    19    14    2
    22    20    21    2
    23    20    19    1
    24    21    26    1
    25    22    21    1
    26    23    22    1
    27    24    23    1
    28    24    25    1
    29    26    27    1
    30    26    13    2
    31    29    31    1
    32    30    38    1
    33    30    40    1
    34    31    42    1
    35    32    37    1
    36    33    40    1
    37    33    29    1
    38    34    35    1
    39    34    30    2
    40    35    33    2
    41    36    42    2
    42    39    32    1
    43    40    28    1
    44    41    34    1
    45    42    32    1
