@<TRIPOS>MOLECULE
outputs/IAG933/test6/raw/output_4426_IAG933_linker_design_.xyz
 47 51 0 0 0
SMALL
GASTEIGER

@<TRIPOS>ATOM
      1 C         -24.8550   -1.0120   30.1430 C.3     1  UNL1        0.0385
      2 C         -24.9730   -2.5050   29.7880 C.2     1  UNL1       -0.0211
      3 C         -23.9060   -3.1730   29.1460 C.2     1  UNL1       -0.0042
      4 C         -23.9890   -4.5490   28.8530 C.2     1  UNL1       -0.0003
      5 C         -25.1370   -5.2800   29.2050 C.2     1  UNL1       -0.0000
      6 C         -26.2320   -4.6110   29.7840 C.2     1  UNL1       -0.0003
      7 C         -26.1550   -3.2320   30.0650 C.2     1  UNL1       -0.0042
      8 C         -25.3870   -0.6790   31.5710 C.3     1  UNL1        0.0791
      9 C         -25.1890    0.7730   32.0280 C.3     1  UNL1        0.0451
     10 C         -25.3360    0.6840   33.5440 C.3     1  UNL1        0.0226
     11 C         -24.8290   -0.7150   33.9050 C.3     1  UNL1        0.0888
     12 N         -24.7580   -1.4810   32.6460 N.3     1  UNL1       -0.2191
     13 C         -25.6880    1.6140   26.4610 C.2     1  UNL1        0.0249
     14 C         -26.2500    2.9200   26.3950 C.2     1  UNL1        0.0733
     15 C         -25.6420    4.0930   27.1230 C.2     1  UNL1        0.2661
     16 N         -25.6140    5.2520   26.4490 N.am    1  UNL1       -0.1997
     17 C         -25.0260    6.4790   26.9630 C.3     1  UNL1        0.1388
     18 O         -25.1430    3.9660   28.2430 O.2     1  UNL1       -0.2683
     19 C         -27.4380    3.0910   25.6450 C.2     1  UNL1        0.1064
     20 N         -28.0750    2.0890   25.0030 N.2     1  UNL1       -0.2081
     21 C         -27.5430    0.8490   25.0790 C.2     1  UNL1        0.2530
     22 O         -28.1930   -0.2080   24.4770 O.2     1  UNL1       -0.4558
     23 C         -29.4600    0.0050   23.8660 C.3     1  UNL1        0.2426
     24 C         -30.0650   -1.3770   23.5730 C.3     1  UNL1        0.2292
     25 O         -30.7290   -1.8780   24.7210 O.3     1  UNL1       -0.2162
     26 C         -26.3540    0.5760   25.7770 C.2     1  UNL1        0.1899
     27 F         -25.8600   -0.6810   25.7950 F       1  UNL1       -0.1995
     28 C         -27.4083    7.3077   32.6846 C.2     1  UNL1        0.3201
     29 O         -27.5605    6.7921   33.8298 O.2     1  UNL1       -0.2633
     30 O         -25.4951    2.1323   30.1340 O.3     1  UNL1       -0.3561
     31 CA        -25.5699    5.8585   32.0306 C.3     1  UNL1        0.1312
     32 S         -22.9282    2.2729   26.9414 S.3     1  UNL1       -0.1743
     33 C         -21.5390    1.6815   27.6465 C.3     1  UNL1        0.0592
     34 C         -27.7331    4.1685   31.8427 C.3     1  UNL1        0.1440
     35 N         -26.3399    6.9876   31.8942 N.am    1  UNL1       -0.1967
     36 C         -25.3124   -0.3062   28.8935 C.3     1  UNL1        0.0094
     37 C         -22.7352    2.3738   25.2560 C.3     1  UNL1        0.0592
     38 C         -24.1239    0.5613   28.5707 C.3     1  UNL1        0.0434
     39 C         -25.1144    2.2885   31.5771 C.3     1  UNL1        0.1190
     40 C         -26.6461    2.7829   32.7720 C.3     1  UNL1        0.1446
     41 O         -27.6435    2.8097   31.9588 O.3     1  UNL1       -0.3536
     42 C         -24.5871    5.7455   33.0721 C.3     1  UNL1        0.2036
     43 C         -24.4788    1.8057   29.3696 C.3     1  UNL1        0.1431
     44 C         -26.2520    4.4909   31.6987 C.3     1  UNL1        0.0570
     45 C         -24.4093    1.1696   27.1426 C.3     1  UNL1        0.0661
     46 O         -23.4087    5.2450   32.5942 O.3     1  UNL1       -0.2185
     47 C         -25.6795    3.4900   32.4556 C.3     1  UNL1        0.0610
@<TRIPOS>BOND
     1     1     2    1
     2     1     8    1
     3     2     7    1
     4     3     2    2
     5     4     3    1
     6     4     5    2
     7     5     6    1
     8     6     7    2
     9     8     9    1
    10     8    12    1
    11     9    10    1
    12    10    11    1
    13    12    11    1
    14    13    45    1
    15    14    13    1
    16    14    15    1
    17    15    18    2
    18    16    17    1
    19    16    15    1
    20    19    14    2
    21    20    21    2
    22    20    19    1
    23    21    26    1
    24    22    21    1
    25    23    22    1
    26    24    23    1
    27    24    25    1
    28    26    27    1
    29    26    13    2
    30    28    29    2
    31    31    42    1
    32    32    33    1
    33    34    41    1
    34    35    31    1
    35    35    28    1
    36    36     1    1
    37    37    32    1
    38    38    45    1
    39    38    36    1
    40    38    43    1
    41    39    30    1
    42    39     9    1
    43    39    47    1
    44    41    40    1
    45    43    30    1
    46    44    34    1
    47    44    31    1
    48    44    47    1
    49    45    32    1
    50    46    42    1
    51    47    40    1
