@<TRIPOS>MOLECULE
No_4430-gen_results/8p0m/2024-11-27-11-27-31/
 15 16 0 0 0
SMALL
GASTEIGER

@<TRIPOS>ATOM
      1 C         -28.0162   -0.8135   28.8779 C.ar    1  UNL1       -0.0000
      2 C         -27.0636   -0.1189   28.6079 C.ar    1  UNL1       -0.0003
      3 C         -26.9287    1.1713   29.0083 C.ar    1  UNL1       -0.0000
      4 C         -27.9560    1.7411   29.7840 C.ar    1  UNL1       -0.0000
      5 C         -29.0569   -0.3271   29.7466 C.ar    1  UNL1       -0.0000
      6 C         -28.9828    0.9722   30.1516 C.ar    1  UNL1       -0.0000
      7 C         -25.8815   -0.6260   27.7945 C.2     1  UNL1       -0.0042
      8 C         -25.4215    0.1302   26.7096 C.2     1  UNL1       -0.0214
      9 C         -26.1536    0.5761   25.7981 C.3     1  UNL1        0.0523
     10 C         -27.5277    0.3635   25.6697 C.ar    1  UNL1       -0.0178
     11 C         -28.2302    0.9492   24.9963 C.ar    1  UNL1       -0.0039
     12 C         -29.6608    0.7397   24.8963 C.ar    1  UNL1       -0.0003
     13 C         -30.1200   -0.2555   25.6727 C.ar    1  UNL1       -0.0000
     14 C         -29.3252   -0.8606   26.5816 C.ar    1  UNL1       -0.0003
     15 C         -28.0292   -0.5800   26.6834 C.ar    1  UNL1       -0.0039
@<TRIPOS>BOND
     1     2     7    1
     2     7     8    2
     3     8     9    1
     4     9    10    1
     5     1     2   ar
     6     2     3   ar
     7     3     4   ar
     8     4     6   ar
     9     6     5   ar
    10     5     1   ar
    11    10    11   ar
    12    11    12   ar
    13    12    13   ar
    14    13    14   ar
    15    14    15   ar
    16    15    10   ar
