@<TRIPOS>MOLECULE
outputs/IAG933/test6/raw/output_4431_IAG933_linker_design_.xyz
 44 48 0 0 0
SMALL
GASTEIGER

@<TRIPOS>ATOM
      1 C         -24.8550   -1.0120   30.1430 C.3     1  UNL1        0.0427
      2 C         -24.9730   -2.5050   29.7880 C.2     1  UNL1       -0.0208
      3 C         -23.9060   -3.1730   29.1460 C.2     1  UNL1       -0.0042
      4 C         -23.9890   -4.5490   28.8530 C.2     1  UNL1       -0.0003
      5 C         -25.1370   -5.2800   29.2050 C.2     1  UNL1       -0.0000
      6 C         -26.2320   -4.6110   29.7840 C.2     1  UNL1       -0.0003
      7 C         -26.1550   -3.2320   30.0650 C.2     1  UNL1       -0.0042
      8 C         -25.3870   -0.6790   31.5710 C.3     1  UNL1        0.0784
      9 C         -25.1890    0.7730   32.0280 C.3     1  UNL1        0.0338
     10 C         -25.3360    0.6840   33.5440 C.3     1  UNL1        0.0216
     11 C         -24.8290   -0.7150   33.9050 C.3     1  UNL1        0.0887
     12 N         -24.7580   -1.4810   32.6460 N.3     1  UNL1       -0.2191
     13 C         -25.6880    1.6140   26.4610 C.2     1  UNL1        0.0400
     14 C         -26.2500    2.9200   26.3950 C.2     1  UNL1        0.0766
     15 C         -25.6420    4.0930   27.1230 C.2     1  UNL1        0.2664
     16 N         -25.6140    5.2520   26.4490 N.am    1  UNL1       -0.1997
     17 C         -25.0260    6.4790   26.9630 C.3     1  UNL1        0.1388
     18 O         -25.1430    3.9660   28.2430 O.2     1  UNL1       -0.2683
     19 C         -27.4380    3.0910   25.6450 C.2     1  UNL1        0.1067
     20 N         -28.0750    2.0890   25.0030 N.2     1  UNL1       -0.2081
     21 C         -27.5430    0.8490   25.0790 C.2     1  UNL1        0.2533
     22 O         -28.1930   -0.2080   24.4770 O.2     1  UNL1       -0.4558
     23 C         -29.4600    0.0050   23.8660 C.3     1  UNL1        0.2426
     24 C         -30.0650   -1.3770   23.5730 C.3     1  UNL1        0.2292
     25 O         -30.7290   -1.8780   24.7210 O.3     1  UNL1       -0.2162
     26 C         -26.3540    0.5760   25.7770 C.2     1  UNL1        0.1931
     27 F         -25.8600   -0.6810   25.7950 F       1  UNL1       -0.1992
     28 F         -23.1885    2.4757   25.3117 F       1  UNL1       -0.2018
     29 C         -25.4314   -0.0602   29.0810 C.3     1  UNL1        0.0322
     30 C         -27.4767    4.9817   32.1917 C.3     1  UNL1        0.0494
     31 C         -26.9340    3.5864   32.5745 C.3     1  UNL1        0.0748
     32 F         -20.9733    2.5329   26.6769 F       1  UNL1       -0.2018
     33 C         -24.8661    4.8527   31.4090 C.3     1  UNL1        0.1594
     34 C         -24.2979    0.6684   28.3882 C.2     1  UNL1       -0.0194
     35 C         -25.6220    4.1099   30.7814 C.3     1  UNL1        0.1046
     36 C         -25.2203    2.0304   31.2666 C.3     1  UNL1        0.0736
     37 C         -24.4440    1.3697   27.1526 C.2     1  UNL1        0.0283
     38 O         -25.1919    6.1758   32.4813 O.3     1  UNL1       -0.3522
     39 N         -26.2077    3.0504   31.4167 N.3     1  UNL1       -0.2705
     40 C         -21.9080    1.2379   28.4294 C.2     1  UNL1        0.0316
     41 C         -23.2521    1.9061   26.5434 C.2     1  UNL1        0.1671
     42 C         -22.0036    1.8919   27.2002 C.2     1  UNL1        0.1674
     43 C         -26.6185    6.2500   32.4979 C.3     1  UNL1        0.1437
     44 C         -23.0327    0.6062   28.9849 C.2     1  UNL1       -0.0018
@<TRIPOS>BOND
     1     1    29    1
     2     2     7    1
     3     2     1    1
     4     3     2    2
     5     4     3    1
     6     4     5    2
     7     5     6    1
     8     6     7    2
     9     8     1    1
    10     8     9    1
    11     8    12    1
    12     9    36    1
    13     9    10    1
    14    10    11    1
    15    12    11    1
    16    13    37    1
    17    14    13    1
    18    14    15    1
    19    15    18    2
    20    16    17    1
    21    16    15    1
    22    19    14    2
    23    20    21    2
    24    20    19    1
    25    21    26    1
    26    22    21    1
    27    23    22    1
    28    24    23    1
    29    24    25    1
    30    26    27    1
    31    26    13    2
    32    28    41    1
    33    30    43    1
    34    30    31    1
    35    32    42    1
    36    33    38    1
    37    34    44    1
    38    34    29    1
    39    35    33    1
    40    35    39    1
    41    36    39    1
    42    37    34    2
    43    38    43    1
    44    39    31    1
    45    40    44    2
    46    41    37    1
    47    41    42    2
    48    42    40    1
