@<TRIPOS>MOLECULE
No_4432-gen_results/8p0m/2024-11-27-11-27-31/
 30 35 0 0 0
SMALL
GASTEIGER

@<TRIPOS>ATOM
      1 C         -28.0162   -0.8135   28.8779 C.ar    1  UNL1        0.0573
      2 C         -28.4690   -0.7850   29.8287 C.ar    1  UNL1        0.0671
      3 C         -27.0871    0.2903   28.6377 C.ar    1  UNL1       -0.0107
      4 C         -26.9103    0.8486   27.4199 C.3     1  UNL1        0.0254
      5 N         -29.5034   -1.6160   30.1085 N.am    1  UNL1       -0.2523
      6 C         -27.6944    1.0538   26.6233 C.3     1  UNL1        0.0241
      7 C         -29.0521    0.8556   26.9395 C.3     1  UNL1        0.0731
      8 C         -27.9514   -0.1053   31.1168 C.ar    1  UNL1        0.0159
      9 C         -26.9533    0.8076   30.9928 C.ar    1  UNL1       -0.0020
     10 C         -26.4695    1.0250   29.7760 C.ar    1  UNL1       -0.0097
     11 C         -29.9282    1.0858   26.1986 C.3     1  UNL1        0.0198
     12 C         -31.3634    0.8480   26.5323 C.3     1  UNL1        0.0035
     13 C         -31.5654    0.1773   27.7331 C.3     1  UNL1        0.0215
     14 C         -30.5574   -0.1472   28.5295 C.3     1  UNL1        0.0929
     15 N         -29.2969    0.1686   28.1201 N.pl3   1  UNL1       -0.3083
     16 C         -30.7413   -1.0638   29.6446 C.3     1  UNL1        0.1181
     17 C         -29.4558   -2.8990   30.6492 C.2     1  UNL1        0.2528
     18 C         -30.3815   -3.8562   30.4345 C.ar    1  UNL1        0.0539
     19 C         -30.6798   -4.1955   29.5286 C.ar    1  UNL1        0.0045
     20 C         -31.4777   -5.1271   29.2416 C.ar    1  UNL1        0.0001
     21 C         -32.0092   -5.9165   30.2675 C.ar    1  UNL1        0.0000
     22 C         -31.6083   -5.6200   31.5312 C.ar    1  UNL1        0.0001
     23 C         -30.7100   -4.5571   31.7168 C.ar    1  UNL1        0.0045
     24 O         -28.3638   -3.0386   31.4004 O.2     1  UNL1       -0.2696
     25 C         -25.4159    2.0051   29.5367 C.3     1  UNL1        0.1091
     26 CL        -24.9057    2.9205   30.3137 Cl      1  UNL1       -0.1097
     27 C         -24.9630    2.1084   28.0477 C.3     1  UNL1        0.0843
     28 C         -23.6845    2.9298   27.8074 C.2     1  UNL1        0.2085
     29 C         -25.6114    1.4985   27.1015 C.3     1  UNL1        0.0138
     30 O         -23.3061    2.8707   26.5719 O.2     1  UNL1       -0.2883
@<TRIPOS>BOND
     1     3     4    1
     2     2     5    1
     3     6     7    1
     4    11    12    1
     5    13    14    1
     6     1    15    1
     7     7    15    1
     8    14    15    1
     9     5    16    1
    10    14    16    1
    11     5    17   am
    12    17    18    1
    13    17    24    2
    14    10    25    1
    15    25    26    1
    16    25    27    1
    17    27    28    1
    18     4    29    1
    19    27    29    1
    20    28    30    2
    21     7    11    1
    22    12    13    1
    23     4     6    1
    24    18    19   ar
    25    19    20   ar
    26    20    21   ar
    27    21    22   ar
    28    22    23   ar
    29    23    18   ar
    30     1     2   ar
    31     2     8   ar
    32     8     9   ar
    33     9    10   ar
    34    10     3   ar
    35     3     1   ar
