@<TRIPOS>MOLECULE
No_4434-gen_results/8p0m/2024-11-27-11-27-31/
 23 25 0 0 0
SMALL
GASTEIGER

@<TRIPOS>ATOM
      1 C         -28.0162   -0.8135   28.8779 C.ar    1  UNL1        0.0100
      2 C         -28.4690   -0.7850   29.8287 C.ar    1  UNL1        0.0684
      3 C         -26.5455   -0.8762   28.8500 C.ar    1  UNL1       -0.0035
      4 C         -25.8041   -1.0324   30.0571 C.ar    1  UNL1       -0.0209
      5 C         -24.3697   -1.0998   30.0718 C.3     1  UNL1        0.0432
      6 C         -27.9902   -1.0051   31.2092 C.ar    1  UNL1        0.0100
      7 C         -26.5616   -1.1368   31.2600 C.ar    1  UNL1       -0.0035
      8 C         -23.7274    0.1713   30.0259 C.3     1  UNL1        0.0832
      9 C         -22.4546    0.3063   29.4122 C.3     1  UNL1        0.0282
     10 C         -21.7830   -0.9262   29.0907 C.3     1  UNL1        0.0892
     11 C         -23.7636   -1.9487   28.9580 C.3     1  UNL1        0.0931
     12 N         -22.3948   -1.9498   28.8656 N.3     1  UNL1       -0.2177
     13 C         -23.8524   -1.7915   31.4777 C.3     1  UNL1        0.0063
     14 C         -24.3229    1.3756   30.6761 C.2     1  UNL1        0.2266
     15 O         -24.3433    1.5901   31.7922 O.2     1  UNL1       -0.2748
     16 N         -24.9365    2.2469   29.7572 N.am    1  UNL1       -0.2643
     17 C         -25.6723    3.4831   30.2447 C.3     1  UNL1        0.0962
     18 C         -26.0560    4.2445   29.2010 C.3     1  UNL1        0.0404
     19 C         -25.7762    3.9242   27.8885 C.3     1  UNL1        0.0923
     20 C         -24.7034    2.3106   28.3967 C.3     1  UNL1        0.1854
     21 N         -25.0957    3.0785   27.4742 N.3     1  UNL1       -0.1972
     22 C         -30.0295   -0.7265   30.0236 C.1     1  UNL1        0.1004
     23 N         -30.7222   -1.5309   30.3104 N.1     1  UNL1       -0.1908
@<TRIPOS>BOND
     1     4     5    1
     2     5     8    1
     3     9    10    1
     4     5    11    1
     5    10    12    1
     6     5    13    1
     7     8    14    1
     8    14    15    2
     9    14    16   am
    10    16    17    1
    11    18    19    1
    12    16    20    1
    13    20    21    1
    14     2    22    1
    15    22    23    3
    16    17    18    1
    17    19    21    1
    18     8     9    1
    19    12    11    1
    20     1     2   ar
    21     2     6   ar
    22     6     7   ar
    23     7     4   ar
    24     4     3   ar
    25     3     1   ar
