@<TRIPOS>MOLECULE
outputs/IAG933/test6/raw/output_4436_IAG933_linker_design_.xyz
 45 49 0 0 0
SMALL
GASTEIGER

@<TRIPOS>ATOM
      1 C         -24.8550   -1.0120   30.1430 C.3     1  UNL1        0.0441
      2 C         -24.9730   -2.5050   29.7880 C.2     1  UNL1       -0.0208
      3 C         -23.9060   -3.1730   29.1460 C.2     1  UNL1       -0.0042
      4 C         -23.9890   -4.5490   28.8530 C.2     1  UNL1       -0.0003
      5 C         -25.1370   -5.2800   29.2050 C.2     1  UNL1       -0.0000
      6 C         -26.2320   -4.6110   29.7840 C.2     1  UNL1       -0.0003
      7 C         -26.1550   -3.2320   30.0650 C.2     1  UNL1       -0.0042
      8 C         -25.3870   -0.6790   31.5710 C.3     1  UNL1        0.0824
      9 C         -25.1890    0.7730   32.0280 C.3     1  UNL1        0.0554
     10 C         -25.3360    0.6840   33.5440 C.3     1  UNL1        0.0259
     11 C         -24.8290   -0.7150   33.9050 C.3     1  UNL1        0.0891
     12 N         -24.7580   -1.4810   32.6460 N.3     1  UNL1       -0.2187
     13 C         -25.6880    1.6140   26.4610 C.2     1  UNL1        0.0237
     14 C         -26.2500    2.9200   26.3950 C.2     1  UNL1        0.0732
     15 C         -25.6420    4.0930   27.1230 C.2     1  UNL1        0.2661
     16 N         -25.6140    5.2520   26.4490 N.am    1  UNL1       -0.1997
     17 C         -25.0260    6.4790   26.9630 C.3     1  UNL1        0.1388
     18 O         -25.1430    3.9660   28.2430 O.2     1  UNL1       -0.2683
     19 C         -27.4380    3.0910   25.6450 C.2     1  UNL1        0.1064
     20 N         -28.0750    2.0890   25.0030 N.2     1  UNL1       -0.2081
     21 C         -27.5430    0.8490   25.0790 C.2     1  UNL1        0.2530
     22 O         -28.1930   -0.2080   24.4770 O.2     1  UNL1       -0.4558
     23 C         -29.4600    0.0050   23.8660 C.3     1  UNL1        0.2426
     24 C         -30.0650   -1.3770   23.5730 C.3     1  UNL1        0.2292
     25 O         -30.7290   -1.8780   24.7210 O.3     1  UNL1       -0.2162
     26 C         -26.3540    0.5760   25.7770 C.2     1  UNL1        0.1897
     27 F         -25.8600   -0.6810   25.7950 F       1  UNL1       -0.1996
     28 C         -22.0372    0.5677   28.5246 C.3     1  UNL1        0.0932
     29 C         -22.1388    1.1844   27.2559 C.2     1  UNL1        0.1624
     30 C         -23.4265    1.4779   26.8722 C.2     1  UNL1        0.0619
     31 C         -22.8873    1.0714   29.4558 C.2     1  UNL1       -0.0207
     32 C         -24.6982    1.6786   30.7364 C.2     1  UNL1        0.0485
     33 O         -21.1330    1.5003   26.4846 O.2     1  UNL1       -0.3352
     34 N         -25.0064    3.1239   30.8047 N.am    1  UNL1       -0.1826
     35 C         -25.6204    3.7728   31.7477 C.2     1  UNL1        0.2627
     36 C         -23.1334    2.0430   25.4943 C.3     1  UNL1        0.3437
     37 O         -25.7021    3.3907   32.9111 O.2     1  UNL1       -0.2714
     38 C         -25.6757    7.6217   31.1706 C.3     1  UNL1        0.0021
     39 F         -24.1236    2.4100   24.7210 F       1  UNL1       -0.1950
     40 C         -26.1897    5.1556   31.5273 C.3     1  UNL1        0.1696
     41 C         -25.0918    6.2014   31.2488 C.3     1  UNL1        0.0284
     42 C         -24.5400    1.4739   27.3936 C.3     1  UNL1        0.0739
     43 O         -21.8399    2.2601   25.2832 O.3     1  UNL1       -0.1349
     44 N         -27.6403    5.4583   31.0749 N.3     1  UNL1       -0.1231
     45 C         -24.1612    1.4415   29.2317 C.2     1  UNL1       -0.0068
@<TRIPOS>BOND
     1     2     7    1
     2     2     1    1
     3     3     2    2
     4     4     3    1
     5     4     5    2
     6     5     6    1
     7     6     7    2
     8     8     1    1
     9     8     9    1
    10     8    12    1
    11     9    32    1
    12     9    10    1
    13    10    11    1
    14    12    11    1
    15    14    13    1
    16    14    15    1
    17    15    18    2
    18    16    17    1
    19    16    15    1
    20    19    14    2
    21    20    21    2
    22    20    19    1
    23    21    26    1
    24    22    21    1
    25    23    22    1
    26    24    23    1
    27    24    25    1
    28    26    27    1
    29    26    13    2
    30    28    31    1
    31    29    28    1
    32    30    29    2
    33    30    42    1
    34    32    34    2
    35    33    29    1
    36    34    35    1
    37    35    37    2
    38    36    39    1
    39    36    30    1
    40    38    41    1
    41    40    44    1
    42    40    35    1
    43    41    40    1
    44    42    13    1
    45    42    45    1
    46    43    36    1
    47    43    33    1
    48    45    31    2
    49    45    32    1
