@<TRIPOS>MOLECULE
outputs/IAG933/test6/raw/output_444_IAG933_linker_design_.xyz
 47 52 0 0 0
SMALL
GASTEIGER

@<TRIPOS>ATOM
      1 C         -24.8550   -1.0120   30.1430 C.3     1  UNL1        0.0586
      2 C         -24.9730   -2.5050   29.7880 C.2     1  UNL1       -0.0195
      3 C         -23.9060   -3.1730   29.1460 C.2     1  UNL1       -0.0042
      4 C         -23.9890   -4.5490   28.8530 C.2     1  UNL1       -0.0003
      5 C         -25.1370   -5.2800   29.2050 C.2     1  UNL1       -0.0000
      6 C         -26.2320   -4.6110   29.7840 C.2     1  UNL1       -0.0003
      7 C         -26.1550   -3.2320   30.0650 C.2     1  UNL1       -0.0042
      8 C         -25.3870   -0.6790   31.5710 C.3     1  UNL1        0.0785
      9 C         -25.1890    0.7730   32.0280 C.3     1  UNL1        0.0192
     10 C         -25.3360    0.6840   33.5440 C.3     1  UNL1        0.0202
     11 C         -24.8290   -0.7150   33.9050 C.3     1  UNL1        0.0887
     12 N         -24.7580   -1.4810   32.6460 N.3     1  UNL1       -0.2191
     13 C         -25.6880    1.6140   26.4610 C.2     1  UNL1        0.0378
     14 C         -26.2500    2.9200   26.3950 C.2     1  UNL1        0.0765
     15 C         -25.6420    4.0930   27.1230 C.2     1  UNL1        0.2664
     16 N         -25.6140    5.2520   26.4490 N.am    1  UNL1       -0.1997
     17 C         -25.0260    6.4790   26.9630 C.3     1  UNL1        0.1388
     18 O         -25.1430    3.9660   28.2430 O.2     1  UNL1       -0.2683
     19 C         -27.4380    3.0910   25.6450 C.2     1  UNL1        0.1067
     20 N         -28.0750    2.0890   25.0030 N.2     1  UNL1       -0.2081
     21 C         -27.5430    0.8490   25.0790 C.2     1  UNL1        0.2533
     22 O         -28.1930   -0.2080   24.4770 O.2     1  UNL1       -0.4558
     23 C         -29.4600    0.0050   23.8660 C.3     1  UNL1        0.2426
     24 C         -30.0650   -1.3770   23.5730 C.3     1  UNL1        0.2292
     25 O         -30.7290   -1.8780   24.7210 O.3     1  UNL1       -0.2162
     26 C         -26.3540    0.5760   25.7770 C.2     1  UNL1        0.1930
     27 F         -25.8600   -0.6810   25.7950 F       1  UNL1       -0.1992
     28 C         -28.8954   -1.8380   32.1868 C.3     1  UNL1        0.1157
     29 C         -29.3892    0.4078   31.2157 C.3     1  UNL1        0.0799
     30 C         -29.8041   -0.2998   33.8088 C.3     1  UNL1        0.0725
     31 C         -22.6353    0.5564   28.8377 C.2     1  UNL1       -0.0029
     32 C         -21.8665    1.9458   26.8830 C.2     1  UNL1       -0.0000
     33 C         -29.5418   -1.6150   34.5572 C.3     1  UNL1        0.0192
     34 C         -29.4746   -1.8731   30.4111 C.2     1  UNL1        0.1660
     35 O         -29.8578   -2.8806   29.8213 O.2     1  UNL1       -0.2946
     36 N         -29.0096   -0.3745   32.4623 N.3     1  UNL1       -0.2675
     37 C         -29.1661   -0.1117   28.5364 C.3     1  UNL1        0.0602
     38 C         -24.0827    0.6427   28.3818 C.2     1  UNL1       -0.0060
     39 C         -29.4001   -0.5922   29.9863 C.3     1  UNL1        0.0789
     40 C         -25.1687   -0.1493   28.9367 C.3     1  UNL1        0.1028
     41 N         -26.5931   -0.3073   28.7175 N.3     1  UNL1       -0.1858
     42 C         -23.2131    2.0435   26.3913 C.2     1  UNL1       -0.0002
     43 C         -28.3722   -2.1903   33.7248 C.3     1  UNL1        0.0250
     44 C         -27.7925    0.5276   28.3994 C.3     1  UNL1        0.2263
     45 C         -24.3470    1.4406   27.0542 C.2     1  UNL1       -0.0001
     46 C         -21.5776    1.1404   28.0413 C.2     1  UNL1       -0.0003
     47 O         -27.9103    1.5836   29.1596 O.3     1  UNL1       -0.2036
@<TRIPOS>BOND
     1     1    40    1
     2     2     7    1
     3     2     1    1
     4     3     2    2
     5     4     3    1
     6     4     5    2
     7     5     6    1
     8     6     7    2
     9     8     1    1
    10     8     9    1
    11     8    12    1
    12     9    10    1
    13    10    11    1
    14    12    11    1
    15    13    45    1
    16    14    13    1
    17    14    15    1
    18    15    18    2
    19    16    17    1
    20    16    15    1
    21    19    14    2
    22    20    21    2
    23    20    19    1
    24    21    26    1
    25    22    21    1
    26    23    22    1
    27    24    23    1
    28    24    25    1
    29    26    27    1
    30    26    13    2
    31    28    36    1
    32    28    43    1
    33    30    33    1
    34    32    46    1
    35    34    28    1
    36    35    34    2
    37    36    29    1
    38    36    30    1
    39    38    31    1
    40    38    40    1
    41    39    37    1
    42    39    34    1
    43    39    29    1
    44    40    41    1
    45    42    32    2
    46    42    45    1
    47    43    33    1
    48    44    37    1
    49    44    41    1
    50    44    47    1
    51    45    38    2
    52    46    31    2
