@<TRIPOS>MOLECULE
No_4440-gen_results/8p0m/2024-11-27-11-27-31/
 19 19 0 0 0
SMALL
GASTEIGER

@<TRIPOS>ATOM
      1 C         -28.0162   -0.8135   28.8779 C.ar    1  UNL1        0.0026
      2 C         -27.0636   -0.1189   28.6079 C.ar    1  UNL1       -0.0178
      3 C         -26.8756    1.1325   28.9134 C.ar    1  UNL1       -0.0053
      4 C         -27.9014    1.8066   29.6436 C.ar    1  UNL1        0.0126
      5 C         -29.0458   -0.2316   29.7181 C.ar    1  UNL1        0.0792
      6 C         -27.7521    3.2005   30.0171 C.3     1  UNL1        0.1954
      7 C         -28.9510    1.0411   30.0482 C.ar    1  UNL1        0.0052
      8 N         -27.8719    3.6040   31.1149 N.pl3   1  UNL1       -0.1922
      9 CL        -27.3415    4.2840   28.7755 Cl      1  UNL1       -0.0861
     10 C         -27.3626    4.0959   31.8837 C.2     1  UNL1        0.2093
     11 C         -27.8063    4.4162   33.2321 C.2     1  UNL1        0.0504
     12 F         -26.0798    4.5538   31.6646 F       1  UNL1       -0.1863
     13 C         -30.1646   -1.1016   30.1814 C.2     1  UNL1        0.3877
     14 O         -29.9929   -2.1480   30.6335 O.co2   1  UNL1       -0.2406
     15 O         -31.3403   -0.6041   30.1705 O.co2   1  UNL1       -0.2406
     16 C         -25.8786   -0.6957   27.7674 C.3     1  UNL1        0.0520
     17 C         -24.6645   -1.0101   28.6312 C.2     1  UNL1       -0.0260
     18 C         -24.5229   -2.2596   29.1227 C.2     1  UNL1       -0.0300
     19 C         -23.2911   -2.5532   29.7811 C.3     1  UNL1        0.0304
@<TRIPOS>BOND
     1     4     6    1
     2     6     8    1
     3     6     9    1
     4     8    10    1
     5    10    11    2
     6    10    12    1
     7     5    13    1
     8    13    14   ar
     9    13    15   ar
    10     2    16    1
    11    16    17    1
    12    17    18    2
    13    18    19    1
    14     1     2   ar
    15     2     3   ar
    16     3     4   ar
    17     4     7   ar
    18     7     5   ar
    19     5     1   ar
