@<TRIPOS>MOLECULE
outputs/IAG933/test6/raw/output_4441_IAG933_linker_design_.xyz
 48 50 0 0 0
SMALL
GASTEIGER

@<TRIPOS>ATOM
      1 C         -24.8550   -1.0120   30.1430 C.3     1  UNL1        0.0437
      2 C         -24.9730   -2.5050   29.7880 C.2     1  UNL1       -0.0208
      3 C         -23.9060   -3.1730   29.1460 C.2     1  UNL1       -0.0042
      4 C         -23.9890   -4.5490   28.8530 C.2     1  UNL1       -0.0003
      5 C         -25.1370   -5.2800   29.2050 C.2     1  UNL1       -0.0000
      6 C         -26.2320   -4.6110   29.7840 C.2     1  UNL1       -0.0003
      7 C         -26.1550   -3.2320   30.0650 C.2     1  UNL1       -0.0042
      8 C         -25.3870   -0.6790   31.5710 C.3     1  UNL1        0.0775
      9 C         -25.1890    0.7730   32.0280 C.3     1  UNL1        0.0232
     10 C         -25.3360    0.6840   33.5440 C.3     1  UNL1        0.0206
     11 C         -24.8290   -0.7150   33.9050 C.3     1  UNL1        0.0887
     12 N         -24.7580   -1.4810   32.6460 N.3     1  UNL1       -0.2191
     13 C         -25.6880    1.6140   26.4610 C.3     1  UNL1        0.1650
     14 C         -26.2500    2.9200   26.3950 C.2     1  UNL1        0.0748
     15 C         -25.6420    4.0930   27.1230 C.2     1  UNL1        0.2641
     16 N         -25.6140    5.2520   26.4490 N.am    1  UNL1       -0.1999
     17 C         -25.0260    6.4790   26.9630 C.3     1  UNL1        0.1388
     18 O         -25.1430    3.9660   28.2430 O.2     1  UNL1       -0.2686
     19 C         -27.4380    3.0910   25.6450 C.2     1  UNL1        0.1038
     20 N         -28.0750    2.0890   25.0030 N.2     1  UNL1       -0.2118
     21 C         -27.5430    0.8490   25.0790 C.2     1  UNL1        0.2359
     22 O         -28.1930   -0.2080   24.4770 O.2     1  UNL1       -0.4585
     23 C         -29.4600    0.0050   23.8660 C.3     1  UNL1        0.2423
     24 C         -30.0650   -1.3770   23.5730 C.3     1  UNL1        0.2292
     25 O         -30.7290   -1.8780   24.7210 O.3     1  UNL1       -0.2162
     26 C         -26.3540    0.5760   25.7770 C.3     1  UNL1        0.2598
     27 F         -25.8600   -0.6810   25.7950 F       1  UNL1       -0.2250
     28 C         -26.1760    6.7185   33.0183 C.3     1  UNL1        0.3307
     29 O         -23.1714    2.2915   26.1460 O.2     1  UNL1       -0.2730
     30 C         -22.5273    1.2357   28.2235 C.3     1  UNL1        0.0998
     31 C         -28.9084    2.9398   31.2673 C.3     1  UNL1        0.1597
     32 F         -26.1066    6.3427   30.6326 F       1  UNL1       -0.1828
     33 C         -25.8505    1.9619   31.3180 C.3     1  UNL1        0.0392
     34 N         -26.4827    4.3629   31.6377 N.3     1  UNL1       -0.2181
     35 F         -27.3023    7.2133   32.8936 F       1  UNL1       -0.1970
     36 O         -24.5214    5.4827   31.9307 O.3     1  UNL1       -0.1666
     37 N         -24.7608    1.3597   27.4501 N.am    1  UNL1       -0.1988
     38 C         -21.1544    1.7536   27.8188 C.3     1  UNL1        0.0144
     39 C         -23.5059    1.6660   27.1758 C.2     1  UNL1        0.2453
     40 C         -27.9419    4.1647   31.1977 C.3     1  UNL1        0.1089
     41 C         -28.7222    1.2115   29.5583 C.3     1  UNL1        0.1742
     42 C         -25.7868    3.3233   31.7868 C.3     1  UNL1        0.0813
     43 C         -25.8908    5.7720   31.7856 C.3     1  UNL1        0.3626
     44 F         -25.1110    7.4249   32.9689 F       1  UNL1       -0.1970
     45 C         -24.7656    1.8528   30.1192 C.2     1  UNL1       -0.0291
     46 C         -23.1345    1.7110   29.6438 C.2     1  UNL1       -0.0219
     47 O         -28.6183    1.5566   30.9761 O.3     1  UNL1       -0.3496
     48 C         -26.1069    5.7193   34.1691 C.3     1  UNL1        0.0796
@<TRIPOS>BOND
     1     2     7    1
     2     2     1    1
     3     3     2    2
     4     4     3    1
     5     4     5    2
     6     5     6    1
     7     6     7    2
     8     8     1    1
     9     8     9    1
    10     8    12    1
    11     9    33    1
    12     9    10    1
    13    10    11    1
    14    12    11    1
    15    13    37    1
    16    14    13    1
    17    14    15    1
    18    15    18    2
    19    16    17    1
    20    16    15    1
    21    19    14    2
    22    20    21    2
    23    20    19    1
    24    21    26    1
    25    22    21    1
    26    23    22    1
    27    24    23    1
    28    24    25    1
    29    26    27    1
    30    26    13    1
    31    28    48    1
    32    29    39    2
    33    30    38    1
    34    30    46    1
    35    33    45    1
    36    33    42    1
    37    34    43    1
    38    34    42    1
    39    35    28    1
    40    39    37    1
    41    39    30    1
    42    40    31    1
    43    40    34    1
    44    41    47    1
    45    43    32    1
    46    43    36    1
    47    43    28    1
    48    44    28    1
    49    46    45    2
    50    47    31    1
