@<TRIPOS>MOLECULE
outputs/IAG933/test6/raw/output_4442_IAG933_linker_design_.xyz
 49 53 0 0 0
SMALL
GASTEIGER

@<TRIPOS>ATOM
      1 C         -24.8550   -1.0120   30.1430 C.3     1  UNL1        0.0679
      2 C         -24.9730   -2.5050   29.7880 C.2     1  UNL1       -0.0187
      3 C         -23.9060   -3.1730   29.1460 C.2     1  UNL1       -0.0042
      4 C         -23.9890   -4.5490   28.8530 C.2     1  UNL1       -0.0003
      5 C         -25.1370   -5.2800   29.2050 C.2     1  UNL1       -0.0000
      6 C         -26.2320   -4.6110   29.7840 C.2     1  UNL1       -0.0003
      7 C         -26.1550   -3.2320   30.0650 C.2     1  UNL1       -0.0042
      8 C         -25.3870   -0.6790   31.5710 C.3     1  UNL1        0.0792
      9 C         -25.1890    0.7730   32.0280 C.3     1  UNL1        0.0193
     10 C         -25.3360    0.6840   33.5440 C.3     1  UNL1        0.0202
     11 C         -24.8290   -0.7150   33.9050 C.3     1  UNL1        0.0887
     12 N         -24.7580   -1.4810   32.6460 N.3     1  UNL1       -0.2190
     13 C         -25.6880    1.6140   26.4610 C.3     1  UNL1        0.0750
     14 C         -26.2500    2.9200   26.3950 C.2     1  UNL1        0.0550
     15 C         -25.6420    4.0930   27.1230 C.2     1  UNL1        0.2624
     16 N         -25.6140    5.2520   26.4490 N.am    1  UNL1       -0.2000
     17 C         -25.0260    6.4790   26.9630 C.3     1  UNL1        0.1388
     18 O         -25.1430    3.9660   28.2430 O.2     1  UNL1       -0.2687
     19 C         -27.4380    3.0910   25.6450 C.2     1  UNL1        0.1021
     20 N         -28.0750    2.0890   25.0030 N.2     1  UNL1       -0.2119
     21 C         -27.5430    0.8490   25.0790 C.2     1  UNL1        0.2341
     22 O         -28.1930   -0.2080   24.4770 O.2     1  UNL1       -0.4585
     23 C         -29.4600    0.0050   23.8660 C.3     1  UNL1        0.2423
     24 C         -30.0650   -1.3770   23.5730 C.3     1  UNL1        0.2292
     25 O         -30.7290   -1.8780   24.7210 O.3     1  UNL1       -0.2162
     26 C         -26.3540    0.5760   25.7770 C.3     1  UNL1        0.2402
     27 F         -25.8600   -0.6810   25.7950 F       1  UNL1       -0.2269
     28 C         -25.4232    0.0894   28.1712 C.3     1  UNL1        0.1473
     29 O         -29.5681   -0.4909   27.2999 O.co2   1  UNL1       -0.2222
     30 C         -31.4629   -1.5290   31.1797 C.3     1  UNL1        0.1440
     31 O         -26.9076   -0.1410   28.2804 O.3     1  UNL1       -0.3341
     32 C         -22.4255    1.8633   25.5862 C.3     1  UNL1        0.0407
     33 F         -21.0367    1.5818   27.4882 F       1  UNL1       -0.2347
     34 C         -27.6834    0.0221   29.5616 C.3     1  UNL1        0.2469
     35 O         -29.6494    1.2045   28.5249 O.co2   1  UNL1       -0.2222
     36 N         -28.9903   -0.6276   29.4567 N.am    1  UNL1       -0.1937
     37 C         -29.4928   -1.6016   30.3189 C.3     1  UNL1        0.1987
     38 C         -24.8674    1.1775   27.4213 C.3     1  UNL1        0.0670
     39 C         -24.6421    0.0685   29.3699 C.3     1  UNL1        0.1476
     40 C         -23.4681    1.4065   27.9252 C.3     1  UNL1        0.1504
     41 C         -29.4692    0.0397   28.4276 C.2     1  UNL1        0.4507
     42 C         -29.4762   -3.1362   30.1523 C.3     1  UNL1        0.0511
     43 C         -31.9429   -3.7557   30.7149 C.3     1  UNL1        0.0026
     44 C         -22.2381    1.2990   26.9450 C.3     1  UNL1        0.1880
     45 C         -32.2039   -1.1987   29.8136 C.3     1  UNL1        0.0026
     46 O         -30.1205   -1.3313   31.4897 O.3     1  UNL1       -0.3374
     47 O         -23.2093    0.3752   28.7121 O.3     1  UNL1       -0.3530
     48 C         -30.4386   -4.0457   30.9877 C.3     1  UNL1        0.0044
     49 C         -32.2641   -2.2173   30.8186 C.3     1  UNL1        0.0297
@<TRIPOS>BOND
     1     1     2    1
     2     2     7    1
     3     3     2    2
     4     4     3    1
     5     4     5    2
     6     5     6    1
     7     6     7    2
     8     8     1    1
     9     8     9    1
    10     8    12    1
    11     9    10    1
    12    10    11    1
    13    12    11    1
    14    13    14    1
    15    14    15    1
    16    15    18    2
    17    16    17    1
    18    16    15    1
    19    19    14    2
    20    20    21    2
    21    20    19    1
    22    21    26    1
    23    22    21    1
    24    23    22    1
    25    24    23    1
    26    24    25    1
    27    26    27    1
    28    26    13    1
    29    28    31    1
    30    28    39    1
    31    29    41   ar
    32    30    46    1
    33    31    34    1
    34    36    34    1
    35    37    36    1
    36    37    46    1
    37    38    13    1
    38    38    40    1
    39    38    28    1
    40    39     1    1
    41    40    44    1
    42    40    47    1
    43    41    35   ar
    44    41    36   am
    45    42    37    1
    46    42    48    1
    47    43    49    1
    48    43    48    1
    49    44    32    1
    50    44    33    1
    51    47    39    1
    52    49    45    1
    53    49    30    1
