@<TRIPOS>MOLECULE
No_4443-gen_results/8p0m/2024-11-27-11-27-31/
 17 18 0 0 0
SMALL
GASTEIGER

@<TRIPOS>ATOM
      1 C         -28.0162   -0.8135   28.8779 C.ar    1  UNL1        0.0013
      2 C         -27.0636   -0.1190   28.6079 C.ar    1  UNL1        0.0001
      3 C         -27.0010    0.6913   27.4910 C.ar    1  UNL1        0.0013
      4 C         -28.1373    0.7363   26.6350 C.ar    1  UNL1        0.0148
      5 C         -29.2360    0.0765   27.0690 C.ar    1  UNL1        0.0514
      6 C         -29.2177   -0.6429   28.1747 C.ar    1  UNL1        0.0148
      7 N         -30.3516    0.1564   26.2430 N.pl3   1  UNL1       -0.2889
      8 C         -30.2688    0.1234   24.9366 C.3     1  UNL1        0.0944
      9 C         -29.6117   -0.5250   24.3822 C.3     1  UNL1        0.1087
     10 C         -31.3893    0.8558   24.2543 C.3     1  UNL1        0.0233
     11 N         -28.6002   -1.2644   24.8928 N.3     1  UNL1       -0.2148
     12 C         -31.6279    0.1480   26.9523 C.2     1  UNL1        0.0540
     13 C         -27.6690   -1.8905   23.9073 C.3     1  UNL1        0.1075
     14 C         -32.1023   -1.0163   27.5423 C.2     1  UNL1        0.1092
     15 N         -33.2477   -0.9833   27.9402 N.2     1  UNL1       -0.2456
     16 C         -34.0213    0.0074   27.6512 C.2     1  UNL1        0.0786
     17 C         -32.9137    0.6588   26.3876 C.3     1  UNL1        0.0899
@<TRIPOS>BOND
     1     5     7    1
     2     7     8    1
     3     8     9    1
     4     8    10    1
     5     9    11    1
     6     7    12    1
     7    11    13    1
     8    12    14    2
     9    14    15    1
    10    15    16    2
    11    12    17    1
    12    16    17    1
    13     1     2   ar
    14     2     3   ar
    15     3     4   ar
    16     4     5   ar
    17     5     6   ar
    18     6     1   ar
