@<TRIPOS>MOLECULE
outputs/IAG933/test6/raw/output_4445_IAG933_linker_design_.xyz
 47 50 0 0 0
SMALL
GASTEIGER

@<TRIPOS>ATOM
      1 C         -24.8550   -1.0120   30.1430 C.3     1  UNL1        0.2428
      2 C         -24.9730   -2.5050   29.7880 C.2     1  UNL1        0.0254
      3 C         -23.9060   -3.1730   29.1460 C.2     1  UNL1       -0.0003
      4 C         -23.9890   -4.5490   28.8530 C.2     1  UNL1       -0.0002
      5 C         -25.1370   -5.2800   29.2050 C.2     1  UNL1       -0.0000
      6 C         -26.2320   -4.6110   29.7840 C.2     1  UNL1       -0.0002
      7 C         -26.1550   -3.2320   30.0650 C.2     1  UNL1       -0.0003
      8 C         -25.3870   -0.6790   31.5710 C.3     1  UNL1        0.1239
      9 C         -25.1890    0.7730   32.0280 C.3     1  UNL1        0.0235
     10 C         -25.3360    0.6840   33.5440 C.3     1  UNL1        0.0204
     11 C         -24.8290   -0.7150   33.9050 C.3     1  UNL1        0.0889
     12 N         -24.7580   -1.4810   32.6460 N.3     1  UNL1       -0.2149
     13 C         -25.6880    1.6140   26.4610 C.2     1  UNL1        0.0407
     14 C         -26.2500    2.9200   26.3950 C.2     1  UNL1        0.0744
     15 C         -25.6420    4.0930   27.1230 C.2     1  UNL1        0.2223
     16 N         -25.6140    5.2520   26.4490 N.2     1  UNL1       -0.2356
     17 C         -25.0260    6.4790   26.9630 C.3     1  UNL1        0.1550
     18 O         -25.1430    3.9660   28.2430 O.2     1  UNL1       -0.4535
     19 C         -27.4380    3.0910   25.6450 C.2     1  UNL1        0.1068
     20 N         -28.0750    2.0890   25.0030 N.2     1  UNL1       -0.2081
     21 C         -27.5430    0.8490   25.0790 C.2     1  UNL1        0.2533
     22 O         -28.1930   -0.2080   24.4770 O.2     1  UNL1       -0.4558
     23 C         -29.4600    0.0050   23.8660 C.3     1  UNL1        0.2426
     24 C         -30.0650   -1.3770   23.5730 C.3     1  UNL1        0.2292
     25 O         -30.7290   -1.8780   24.7210 O.3     1  UNL1       -0.2162
     26 C         -26.3540    0.5760   25.7770 C.2     1  UNL1        0.1931
     27 F         -25.8600   -0.6810   25.7950 F       1  UNL1       -0.1992
     28 C         -21.3061    1.4334   27.6678 C.3     1  UNL1        0.0425
     29 C         -29.8681    4.6522   28.7553 C.2     1  UNL1        0.0420
     30 C         -22.4012    0.8938   25.5270 C.3     1  UNL1        0.0001
     31 C         -23.9865    2.4851   29.9380 C.3     1  UNL1        0.1943
     32 O         -25.7464    4.8938   31.3593 O.2     1  UNL1       -0.2874
     33 C         -26.1138    4.2651   30.3499 C.2     1  UNL1        0.2154
     34 N         -24.4851    0.0277   29.3044 N.pl3   1  UNL1       -0.0277
     35 O         -30.2363    6.6016   29.9820 O.2     1  UNL1       -0.2866
     36 O         -23.3184    2.4424   28.6058 O.3     1  UNL1       -0.3398
     37 C         -22.5915    1.3518   28.6248 C.3     1  UNL1        0.2288
     38 N         -22.3231   -0.5514   29.6390 N.2     1  UNL1        0.1945
     39 C         -27.8922    3.4315   29.1348 C.2     1  UNL1        0.0032
     40 C         -21.6755    1.8267   26.3050 C.3     1  UNL1        0.0031
     41 C         -29.1026    3.5447   28.4924 C.2     1  UNL1        0.0034
     42 C         -27.4253    4.4352   29.9772 C.2     1  UNL1        0.0416
     43 C         -23.3463    0.9794   24.4994 C.3     1  UNL1        0.0000
     44 C         -29.4351    5.6393   29.6501 C.2     1  UNL1        0.1958
     45 C         -28.2144    5.5646   30.2792 C.2     1  UNL1        0.0450
     46 C         -25.2314    3.3486   29.5351 C.3     1  UNL1        0.2575
     47 C         -23.2061    0.2096   29.1834 C.2     1  UNL1        0.4166
@<TRIPOS>BOND
     1     1    34    1
     2     2     7    1
     3     2     1    1
     4     3     2    2
     5     4     3    1
     6     4     5    2
     7     5     6    1
     8     6     7    2
     9     8     1    1
    10     8     9    1
    11     8    12    1
    12     9    10    1
    13    10    11    1
    14    12    11    1
    15    14    13    1
    16    14    15    1
    17    15    18    1
    18    16    17    1
    19    16    15    2
    20    18    46    1
    21    19    14    2
    22    20    21    2
    23    20    19    1
    24    21    26    1
    25    22    21    1
    26    23    22    1
    27    24    23    1
    28    24    25    1
    29    26    27    1
    30    26    13    2
    31    29    44    1
    32    30    40    1
    33    33    32    2
    34    36    37    1
    35    36    31    1
    36    37    28    1
    37    37    47    1
    38    39    42    2
    39    40    28    1
    40    41    29    2
    41    41    39    1
    42    42    45    1
    43    42    33    1
    44    43    30    1
    45    44    35    1
    46    44    45    2
    47    46    31    1
    48    46    33    1
    49    47    34    1
    50    47    38    2
