@<TRIPOS>MOLECULE
No_4447-gen_results/8p0m/2024-11-27-11-27-31/
 29 31 0 0 0
SMALL
GASTEIGER

@<TRIPOS>ATOM
      1 C         -28.0162   -0.8135   28.8779 C.ar    1  UNL1        0.0351
      2 C         -27.0636   -0.1190   28.6079 C.ar    1  UNL1        0.1428
      3 N         -25.8176   -0.3427   29.0488 N.ar    1  UNL1       -0.2153
      4 C         -25.5552   -1.4726   29.7295 C.ar    1  UNL1        0.1332
      5 C         -26.6210   -2.2986   30.1049 C.ar    1  UNL1        0.0344
      6 C         -27.8348   -1.9700   29.6762 C.ar    1  UNL1        0.0058
      7 N         -27.1598    1.0910   27.8992 N.am    1  UNL1       -0.2185
      8 C         -27.6895    1.1876   26.7187 C.ar    1  UNL1        0.0620
      9 C         -28.3825    0.2716   26.2261 C.ar    1  UNL1        0.0449
     10 C         -28.9494    0.3502   24.8926 C.ar    1  UNL1        0.1414
     11 C         -28.7103    1.5228   24.1745 C.ar    1  UNL1        0.0297
     12 C         -27.9649    2.5632   24.7067 C.ar    1  UNL1        0.0036
     13 C         -27.4523    2.4621   25.9703 C.ar    1  UNL1        0.0154
     14 C         -26.5871    2.3248   28.5947 C.2     1  UNL1        0.2578
     15 C         -26.3192    2.2393   30.0448 C.ar    1  UNL1        0.0629
     16 C         -26.9871    3.0329   30.7012 C.ar    1  UNL1        0.0344
     17 C         -26.8613    2.9272   32.2060 C.ar    1  UNL1        0.1403
     18 C         -25.8590    2.0811   32.7612 C.ar    1  UNL1        0.0299
     19 C         -25.0848    1.3372   31.8647 C.ar    1  UNL1        0.0090
     20 C         -25.3172    1.4389   30.5076 C.ar    1  UNL1        0.0843
     21 O         -26.4608    3.4360   28.0625 O.2     1  UNL1       -0.2692
     22 N         -24.2728   -1.8233   30.1459 N.pl3   1  UNL1       -0.2897
     23 C         -23.3830   -2.3744   29.2397 C.3     1  UNL1        0.1136
     24 C         -23.5180   -0.7294   30.8699 C.3     1  UNL1        0.1136
     25 C         -23.9383    2.0307   30.0384 C.2     1  UNL1        0.3879
     26 O         -22.8580    1.5867   30.1545 O.co2   1  UNL1       -0.2406
     27 O         -24.0119    3.0172   29.1008 O.co2   1  UNL1       -0.2406
     28 F         -29.6118   -0.5824   24.3736 F       1  UNL1       -0.2041
     29 F         -27.6574    3.6247   33.0245 F       1  UNL1       -0.2042
@<TRIPOS>BOND
     1     2     7    1
     2     7     8    1
     3     7    14   am
     4    14    15    1
     5    14    21    2
     6     4    22    1
     7    22    23    1
     8    22    24    1
     9    20    25    1
    10    25    26   ar
    11    25    27   ar
    12    10    28    1
    13    17    29    1
    14    15    16   ar
    15    16    17   ar
    16    17    18   ar
    17    18    19   ar
    18    19    20   ar
    19    20    15   ar
    20     1     2   ar
    21     2     3   ar
    22     3     4   ar
    23     4     5   ar
    24     5     6   ar
    25     6     1   ar
    26     8     9   ar
    27     9    10   ar
    28    10    11   ar
    29    11    12   ar
    30    12    13   ar
    31    13     8   ar
