@<TRIPOS>MOLECULE
outputs/IAG933/test6/raw/output_4448_IAG933_linker_design_.xyz
 46 50 0 0 0
SMALL
GASTEIGER

@<TRIPOS>ATOM
      1 C         -24.8550   -1.0120   30.1430 C.3     1  UNL1        0.0425
      2 C         -24.9730   -2.5050   29.7880 C.2     1  UNL1       -0.0208
      3 C         -23.9060   -3.1730   29.1460 C.2     1  UNL1       -0.0042
      4 C         -23.9890   -4.5490   28.8530 C.2     1  UNL1       -0.0003
      5 C         -25.1370   -5.2800   29.2050 C.2     1  UNL1       -0.0000
      6 C         -26.2320   -4.6110   29.7840 C.2     1  UNL1       -0.0003
      7 C         -26.1550   -3.2320   30.0650 C.2     1  UNL1       -0.0042
      8 C         -25.3870   -0.6790   31.5710 C.3     1  UNL1        0.0771
      9 C         -25.1890    0.7730   32.0280 C.3     1  UNL1        0.0192
     10 C         -25.3360    0.6840   33.5440 C.3     1  UNL1        0.0202
     11 C         -24.8290   -0.7150   33.9050 C.3     1  UNL1        0.0887
     12 N         -24.7580   -1.4810   32.6460 N.3     1  UNL1       -0.2191
     13 C         -25.6880    1.6140   26.4610 C.2     1  UNL1        0.0379
     14 C         -26.2500    2.9200   26.3950 C.2     1  UNL1        0.0765
     15 C         -25.6420    4.0930   27.1230 C.2     1  UNL1        0.2664
     16 N         -25.6140    5.2520   26.4490 N.am    1  UNL1       -0.1997
     17 C         -25.0260    6.4790   26.9630 C.3     1  UNL1        0.1388
     18 O         -25.1430    3.9660   28.2430 O.2     1  UNL1       -0.2683
     19 C         -27.4380    3.0910   25.6450 C.2     1  UNL1        0.1067
     20 N         -28.0750    2.0890   25.0030 N.2     1  UNL1       -0.2081
     21 C         -27.5430    0.8490   25.0790 C.2     1  UNL1        0.2533
     22 O         -28.1930   -0.2080   24.4770 O.2     1  UNL1       -0.4558
     23 C         -29.4600    0.0050   23.8660 C.3     1  UNL1        0.2426
     24 C         -30.0650   -1.3770   23.5730 C.3     1  UNL1        0.2292
     25 O         -30.7290   -1.8780   24.7210 O.3     1  UNL1       -0.2162
     26 C         -26.3540    0.5760   25.7770 C.2     1  UNL1        0.1930
     27 F         -25.8600   -0.6810   25.7950 F       1  UNL1       -0.1992
     28 O         -29.2762   -1.6216   30.5349 O.2     1  UNL1       -0.4717
     29 C         -30.5470    0.8211   27.5765 C.2     1  UNL1        0.0295
     30 C         -26.5135    0.3859   28.8989 C.3     1  UNL1        0.0096
     31 C         -23.2128    2.0408   26.4221 C.2     1  UNL1       -0.0000
     32 C         -28.9313    0.3768   29.2816 C.2     1  UNL1        0.0119
     33 C         -27.6062    0.6368   29.9468 C.3     1  UNL1        0.0298
     34 C         -24.3271    1.3503   27.0380 C.2     1  UNL1        0.0016
     35 C         -29.7917   -0.5942   29.7857 C.2     1  UNL1        0.1369
     36 C         -24.1266    0.5580   28.2370 C.2     1  UNL1        0.0169
     37 C         -22.7448    0.3990   28.6592 C.2     1  UNL1        0.1917
     38 C         -29.2923    1.0359   28.1164 C.2     1  UNL1        0.0010
     39 C         -25.1639   -0.0092   29.0170 C.3     1  UNL1        0.0312
     40 C         -31.0872   -0.6371   29.3875 C.2     1  UNL1        0.0662
     41 C         -21.9147    1.8689   26.9360 C.2     1  UNL1        0.0033
     42 C         -31.4601    0.0317   28.2537 C.2     1  UNL1        0.1431
     43 F         -32.7388   -0.0680   27.8666 F       1  UNL1       -0.2041
     44 C         -21.6495    1.0213   28.0431 C.2     1  UNL1        0.0417
     45 O         -22.4917   -0.2540   29.8264 O.2     1  UNL1       -0.2869
     46 C         -29.7306   -2.2765   31.6917 C.3     1  UNL1        0.2525
@<TRIPOS>BOND
     1     1    39    1
     2     2     7    1
     3     2     1    1
     4     3     2    2
     5     4     3    1
     6     4     5    2
     7     5     6    1
     8     6     7    2
     9     8     1    1
    10     8     9    1
    11     8    12    1
    12     9    10    1
    13    10    11    1
    14    12    11    1
    15    13    34    1
    16    14    13    1
    17    14    15    1
    18    15    18    2
    19    16    17    1
    20    16    15    1
    21    19    14    2
    22    20    21    2
    23    20    19    1
    24    21    26    1
    25    22    21    1
    26    23    22    1
    27    24    23    1
    28    24    25    1
    29    26    27    1
    30    26    13    2
    31    28    46    1
    32    29    38    2
    33    29    42    1
    34    30    33    1
    35    31    41    2
    36    31    34    1
    37    32    35    2
    38    32    33    1
    39    34    36    2
    40    35    28    1
    41    36    37    1
    42    36    39    1
    43    37    45    1
    44    38    32    1
    45    39    30    1
    46    40    35    1
    47    41    44    1
    48    42    40    2
    49    43    42    1
    50    44    37    2
