@<TRIPOS>MOLECULE
No_445-gen_results/8p0m/2024-11-27-11-27-31/
 15 17 0 0 0
SMALL
GASTEIGER

@<TRIPOS>ATOM
      1 C         -28.0162   -0.8135   28.8779 C.ar    1  UNL1       -0.0038
      2 C         -28.4690   -0.7850   29.8287 C.ar    1  UNL1       -0.0003
      3 C         -27.0871    0.2903   28.6377 C.ar    1  UNL1       -0.0147
      4 C         -26.8317    1.2487   29.5869 C.ar    1  UNL1        0.0353
      5 C         -28.3914    0.0801   31.0065 C.ar    1  UNL1        0.0001
      6 C         -27.4940    1.1521   30.7841 C.ar    1  UNL1        0.0029
      7 C         -26.3109    0.3918   27.3640 C.3     1  UNL1        0.0528
      8 C         -25.3678    1.4459   27.3016 C.ar    1  UNL1       -0.0147
      9 C         -25.2143    2.4025   28.3183 C.ar    1  UNL1        0.0353
     10 C         -25.8847    2.3204   29.4046 C.2     1  UNL1        0.1950
     11 C         -24.5492    1.5868   26.0144 C.ar    1  UNL1       -0.0038
     12 C         -23.4640    2.5128   26.0707 C.ar    1  UNL1       -0.0003
     13 C         -23.2973    3.3823   27.1301 C.ar    1  UNL1        0.0001
     14 C         -24.0917    3.3812   28.1494 C.ar    1  UNL1        0.0029
     15 O         -25.7089    3.2045   30.4223 O.2     1  UNL1       -0.2866
@<TRIPOS>BOND
     1     3     7    1
     2     4    10    1
     3     9    10    1
     4    10    15    2
     5     7     8    1
     6     8     9   ar
     7     9    14   ar
     8    14    13   ar
     9    13    12   ar
    10    12    11   ar
    11    11     8   ar
    12     1     2   ar
    13     2     5   ar
    14     5     6   ar
    15     6     4   ar
    16     4     3   ar
    17     3     1   ar
