@<TRIPOS>MOLECULE
No_4451-gen_results/8p0m/2024-11-27-11-27-31/
 13 14 0 0 0
SMALL
GASTEIGER

@<TRIPOS>ATOM
      1 C         -28.0162   -0.8135   28.8779 C.ar    1  UNL1        0.0000
      2 C         -28.4690   -0.7850   29.8287 C.ar    1  UNL1        0.0000
      3 C         -27.1356    0.2359   28.5352 C.ar    1  UNL1        0.0000
      4 C         -26.8050    1.0509   29.2763 C.ar    1  UNL1        0.0002
      5 C         -27.3158    1.1492   30.6054 C.ar    1  UNL1        0.0000
      6 C         -28.1939    0.1246   30.9393 C.ar    1  UNL1        0.0000
      7 C         -26.4769    0.2061   27.1262 C.ar    1  UNL1        0.0002
      8 C         -25.1066    0.4834   27.0672 C.ar    1  UNL1        0.0066
      9 C         -24.4975    1.2119   28.0770 C.ar    1  UNL1        0.0798
     10 C         -25.2827    1.4443   29.3078 C.ar    1  UNL1        0.0066
     11 C         -23.1932    1.7877   27.8911 C.2     1  UNL1        0.3878
     12 O         -22.6685    2.1449   26.8767 O.co2   1  UNL1       -0.2406
     13 O         -22.4639    1.9664   29.0293 O.co2   1  UNL1       -0.2406
@<TRIPOS>BOND
     1     9    11    1
     2    11    12   ar
     3    11    13   ar
     4     4    10   ar
     5    10     9   ar
     6     9     8   ar
     7     8     7   ar
     8     7     3   ar
     9     1     2   ar
    10     2     6   ar
    11     6     5   ar
    12     5     4   ar
    13     4     3   ar
    14     3     1   ar
