@<TRIPOS>MOLECULE
outputs/IAG933/test6/raw/output_4453_IAG933_linker_design_.xyz
 45 48 0 0 0
SMALL
GASTEIGER

@<TRIPOS>ATOM
      1 C         -24.8550   -1.0120   30.1430 C.3     1  UNL1        0.0438
      2 C         -24.9730   -2.5050   29.7880 C.2     1  UNL1       -0.0208
      3 C         -23.9060   -3.1730   29.1460 C.2     1  UNL1       -0.0042
      4 C         -23.9890   -4.5490   28.8530 C.2     1  UNL1       -0.0003
      5 C         -25.1370   -5.2800   29.2050 C.2     1  UNL1       -0.0000
      6 C         -26.2320   -4.6110   29.7840 C.2     1  UNL1       -0.0003
      7 C         -26.1550   -3.2320   30.0650 C.2     1  UNL1       -0.0042
      8 C         -25.3870   -0.6790   31.5710 C.3     1  UNL1        0.0789
      9 C         -25.1890    0.7730   32.0280 C.3     1  UNL1        0.0403
     10 C         -25.3360    0.6840   33.5440 C.3     1  UNL1        0.0220
     11 C         -24.8290   -0.7150   33.9050 C.3     1  UNL1        0.0888
     12 N         -24.7580   -1.4810   32.6460 N.3     1  UNL1       -0.2191
     13 C         -25.6880    1.6140   26.4610 C.2     1  UNL1        0.1763
     14 C         -26.2500    2.9200   26.3950 C.2     1  UNL1        0.1105
     15 C         -25.6420    4.0930   27.1230 C.2     1  UNL1        0.2694
     16 N         -25.6140    5.2520   26.4490 N.am    1  UNL1       -0.1996
     17 C         -25.0260    6.4790   26.9630 C.3     1  UNL1        0.1388
     18 O         -25.1430    3.9660   28.2430 O.2     1  UNL1       -0.2682
     19 C         -27.4380    3.0910   25.6450 C.2     1  UNL1        0.1098
     20 N         -28.0750    2.0890   25.0030 N.2     1  UNL1       -0.2079
     21 C         -27.5430    0.8490   25.0790 C.2     1  UNL1        0.2564
     22 O         -28.1930   -0.2080   24.4770 O.2     1  UNL1       -0.4558
     23 C         -29.4600    0.0050   23.8660 C.3     1  UNL1        0.2426
     24 C         -30.0650   -1.3770   23.5730 C.3     1  UNL1        0.2292
     25 O         -30.7290   -1.8780   24.7210 O.3     1  UNL1       -0.2162
     26 C         -26.3540    0.5760   25.7770 C.2     1  UNL1        0.2267
     27 F         -25.8600   -0.6810   25.7950 F       1  UNL1       -0.1960
     28 C         -23.4444    1.9346   26.9607 C.3     1  UNL1        0.2081
     29 C         -23.2696    1.1510   29.3924 C.3     1  UNL1        0.0410
     30 C         -25.4073    2.0648   31.3674 C.3     1  UNL1        0.1272
     31 C         -22.6251    1.9142   28.2234 C.3     1  UNL1        0.0793
     32 C         -24.1790    2.0672   30.3274 C.3     1  UNL1        0.1720
     33 C         -25.3541    4.4537   34.8309 C.2     1  UNL1        0.0046
     34 O         -26.8045    4.3193   31.7146 O.2     1  UNL1       -0.2684
     35 O         -23.1937    2.7527   31.0764 O.3     1  UNL1       -0.2213
     36 N         -25.0942    3.1000   32.3081 N.am    1  UNL1       -0.2008
     37 C         -25.9093    4.1176   32.4740 C.2     1  UNL1        0.2648
     38 C         -26.3313    7.0178   34.8147 C.2     1  UNL1        0.0001
     39 O         -20.2446    1.8345   27.6767 O.3     1  UNL1       -0.2203
     40 O         -24.6230    1.2326   27.2491 O.2     1  UNL1       -0.4727
     41 C         -26.3665    6.2641   33.6719 C.2     1  UNL1        0.0046
     42 C         -25.8100    6.5066   35.9688 C.2     1  UNL1        0.0000
     43 C         -25.3284    5.2025   36.0033 C.2     1  UNL1        0.0001
     44 C         -21.3946    1.0168   27.8844 C.3     1  UNL1        0.1858
     45 C         -25.8710    4.9739   33.6612 C.2     1  UNL1        0.0550
@<TRIPOS>BOND
     1     2     7    1
     2     2     1    1
     3     3     2    2
     4     4     3    1
     5     4     5    2
     6     5     6    1
     7     6     7    2
     8     8     1    1
     9     8     9    1
    10     8    12    1
    11     9    30    1
    12     9    10    1
    13    10    11    1
    14    12    11    1
    15    13    40    1
    16    14    13    1
    17    14    15    1
    18    15    18    2
    19    16    17    1
    20    16    15    1
    21    19    14    2
    22    20    21    2
    23    20    19    1
    24    21    26    1
    25    22    21    1
    26    23    22    1
    27    24    23    1
    28    24    25    1
    29    26    27    1
    30    26    13    2
    31    28    40    1
    32    29    32    1
    33    30    36    1
    34    31    28    1
    35    31    29    1
    36    32    35    1
    37    32    30    1
    38    33    43    1
    39    34    37    2
    40    36    37    1
    41    37    45    1
    42    38    42    1
    43    39    44    1
    44    41    38    2
    45    42    43    2
    46    44    31    1
    47    45    41    1
    48    45    33    2
