@<TRIPOS>MOLECULE
outputs/IAG933/test6/raw/output_4456_IAG933_linker_design_.xyz
 43 46 0 0 0
SMALL
GASTEIGER

@<TRIPOS>ATOM
      1 C         -24.8550   -1.0120   30.1430 C.3     1  UNL1        0.1114
      2 C         -24.9730   -2.5050   29.7880 C.2     1  UNL1       -0.0030
      3 C         -23.9060   -3.1730   29.1460 C.2     1  UNL1       -0.0026
      4 C         -23.9890   -4.5490   28.8530 C.2     1  UNL1       -0.0003
      5 C         -25.1370   -5.2800   29.2050 C.2     1  UNL1       -0.0000
      6 C         -26.2320   -4.6110   29.7840 C.2     1  UNL1       -0.0003
      7 C         -26.1550   -3.2320   30.0650 C.2     1  UNL1       -0.0026
      8 C         -25.3870   -0.6790   31.5710 C.3     1  UNL1        0.0950
      9 C         -25.1890    0.7730   32.0280 C.3     1  UNL1        0.0209
     10 C         -25.3360    0.6840   33.5440 C.3     1  UNL1        0.0203
     11 C         -24.8290   -0.7150   33.9050 C.3     1  UNL1        0.0888
     12 N         -24.7580   -1.4810   32.6460 N.3     1  UNL1       -0.2174
     13 C         -25.6880    1.6140   26.4610 C.2     1  UNL1        0.0393
     14 C         -26.2500    2.9200   26.3950 C.2     1  UNL1        0.0766
     15 C         -25.6420    4.0930   27.1230 C.2     1  UNL1        0.2664
     16 N         -25.6140    5.2520   26.4490 N.am    1  UNL1       -0.1997
     17 C         -25.0260    6.4790   26.9630 C.3     1  UNL1        0.1388
     18 O         -25.1430    3.9660   28.2430 O.2     1  UNL1       -0.2683
     19 C         -27.4380    3.0910   25.6450 C.2     1  UNL1        0.1067
     20 N         -28.0750    2.0890   25.0030 N.2     1  UNL1       -0.2081
     21 C         -27.5430    0.8490   25.0790 C.2     1  UNL1        0.2533
     22 O         -28.1930   -0.2080   24.4770 O.2     1  UNL1       -0.4558
     23 C         -29.4600    0.0050   23.8660 C.3     1  UNL1        0.2426
     24 C         -30.0650   -1.3770   23.5730 C.3     1  UNL1        0.2292
     25 O         -30.7290   -1.8780   24.7210 O.3     1  UNL1       -0.2162
     26 C         -26.3540    0.5760   25.7770 C.2     1  UNL1        0.1931
     27 F         -25.8600   -0.6810   25.7950 F       1  UNL1       -0.1992
     28 O         -30.0491    0.5786   29.6500 O.3     1  UNL1       -0.2205
     29 C         -26.6245    0.8388   29.0503 C.3     1  UNL1        0.1232
     30 C         -22.1830    1.7462   26.9519 C.2     1  UNL1        0.1568
     31 C         -30.1505    2.4750   28.0445 C.3     1  UNL1        0.0382
     32 C         -23.0578    0.3898   28.7584 C.2     1  UNL1        0.0349
     33 N         -25.4285   -0.1474   29.0298 N.pl3   1  UNL1       -0.3016
     34 C         -24.3968    0.5133   28.3108 C.2     1  UNL1        0.0497
     35 O         -28.4137   -0.2971   28.0818 O.3     1  UNL1       -0.3493
     36 C         -24.5188    1.3385   27.1798 C.2     1  UNL1        0.0182
     37 C         -28.2036    0.5192   29.2508 C.3     1  UNL1        0.1636
     38 C         -23.4477    1.9716   26.5015 C.2     1  UNL1        0.0323
     39 F         -21.1566    2.1638   26.2245 F       1  UNL1       -0.2027
     40 C         -30.4949    1.0089   28.3526 C.3     1  UNL1        0.1815
     41 C         -29.7399   -0.0656   27.5622 C.3     1  UNL1        0.1749
     42 N         -20.6644    0.8788   28.5220 N.pl3   1  UNL1       -0.1257
     43 C         -21.9753    1.0068   28.1156 C.2     1  UNL1        0.1176
@<TRIPOS>BOND
     1     1    33    1
     2     2     7    1
     3     2     1    1
     4     3     2    2
     5     4     3    1
     6     4     5    2
     7     5     6    1
     8     6     7    2
     9     8     1    1
    10     8     9    1
    11     8    12    1
    12     9    10    1
    13    10    11    1
    14    12    11    1
    15    13    36    1
    16    14    13    1
    17    14    15    1
    18    15    18    2
    19    16    17    1
    20    16    15    1
    21    19    14    2
    22    20    21    2
    23    20    19    1
    24    21    26    1
    25    22    21    1
    26    23    22    1
    27    24    23    1
    28    24    25    1
    29    26    27    1
    30    26    13    2
    31    29    37    1
    32    30    43    1
    33    33    29    1
    34    34    32    1
    35    34    33    1
    36    35    37    1
    37    36    34    2
    38    38    30    2
    39    38    36    1
    40    39    30    1
    41    40    31    1
    42    40    28    1
    43    41    35    1
    44    41    40    1
    45    43    42    1
    46    43    32    2
