@<TRIPOS>MOLECULE
outputs/IAG933/test6/raw/output_4458_IAG933_linker_design_.xyz
 47 50 0 0 0
SMALL
GASTEIGER

@<TRIPOS>ATOM
      1 C         -24.8550   -1.0120   30.1430 C.3     1  UNL1        0.0464
      2 C         -24.9730   -2.5050   29.7880 C.2     1  UNL1       -0.0205
      3 C         -23.9060   -3.1730   29.1460 C.2     1  UNL1       -0.0042
      4 C         -23.9890   -4.5490   28.8530 C.2     1  UNL1       -0.0003
      5 C         -25.1370   -5.2800   29.2050 C.2     1  UNL1       -0.0000
      6 C         -26.2320   -4.6110   29.7840 C.2     1  UNL1       -0.0003
      7 C         -26.1550   -3.2320   30.0650 C.2     1  UNL1       -0.0042
      8 C         -25.3870   -0.6790   31.5710 C.3     1  UNL1        0.0774
      9 C         -25.1890    0.7730   32.0280 C.3     1  UNL1        0.0192
     10 C         -25.3360    0.6840   33.5440 C.3     1  UNL1        0.0202
     11 C         -24.8290   -0.7150   33.9050 C.3     1  UNL1        0.0887
     12 N         -24.7580   -1.4810   32.6460 N.3     1  UNL1       -0.2191
     13 C         -25.6880    1.6140   26.4610 C.3     1  UNL1        0.1622
     14 C         -26.2500    2.9200   26.3950 C.2     1  UNL1        0.0747
     15 C         -25.6420    4.0930   27.1230 C.2     1  UNL1        0.2641
     16 N         -25.6140    5.2520   26.4490 N.am    1  UNL1       -0.1999
     17 C         -25.0260    6.4790   26.9630 C.3     1  UNL1        0.1388
     18 O         -25.1430    3.9660   28.2430 O.2     1  UNL1       -0.2686
     19 C         -27.4380    3.0910   25.6450 C.2     1  UNL1        0.1038
     20 N         -28.0750    2.0890   25.0030 N.2     1  UNL1       -0.2118
     21 C         -27.5430    0.8490   25.0790 C.2     1  UNL1        0.2359
     22 O         -28.1930   -0.2080   24.4770 O.2     1  UNL1       -0.4585
     23 C         -29.4600    0.0050   23.8660 C.3     1  UNL1        0.2423
     24 C         -30.0650   -1.3770   23.5730 C.3     1  UNL1        0.2292
     25 O         -30.7290   -1.8780   24.7210 O.3     1  UNL1       -0.2162
     26 C         -26.3540    0.5760   25.7770 C.3     1  UNL1        0.2598
     27 F         -25.8600   -0.6810   25.7950 F       1  UNL1       -0.2250
     28 C         -28.2332   -0.1786   29.7288 C.2     1  UNL1        0.0019
     29 C         -31.2921    3.4530   30.1189 C.3     1  UNL1        0.0298
     30 C         -21.8215    0.5339   29.1175 C.2     1  UNL1        0.0021
     31 F         -21.9613    2.0804   25.9593 F       1  UNL1       -0.2028
     32 O         -28.9938    2.9265   29.9469 O.3     1  UNL1       -0.3294
     33 C         -30.3470    1.0517   29.6956 C.3     1  UNL1        0.0647
     34 C         -24.2476    0.5243   28.5101 C.2     1  UNL1       -0.0010
     35 O         -29.6001   -0.4251   27.9462 O.3     1  UNL1       -0.2182
     36 O         -28.7728    4.7077   28.6472 O.3     1  UNL1       -0.1841
     37 C         -25.5029   -0.2384   29.0647 C.3     1  UNL1        0.0507
     38 C         -27.0411    0.0296   29.0912 C.2     1  UNL1       -0.0237
     39 C         -28.5477    4.2589   29.9826 C.3     1  UNL1        0.3288
     40 C         -29.3772    0.2961   29.1722 C.3     1  UNL1        0.1760
     41 C         -21.3755    1.0538   27.9673 C.2     1  UNL1        0.0309
     42 C         -23.7057    1.2192   27.3576 C.2     1  UNL1        0.0894
     43 N         -24.4578    1.4654   26.5065 N.pl3   1  UNL1       -0.2294
     44 C         -22.3509    1.4613   27.0763 C.2     1  UNL1        0.1545
     45 C         -30.2554    2.5498   29.3583 C.3     1  UNL1        0.0984
     46 C         -30.5246    2.4913   27.7996 C.3     1  UNL1        0.0298
     47 C         -23.2804    0.3549   29.2544 C.2     1  UNL1       -0.0025
@<TRIPOS>BOND
     1     1    37    1
     2     2     7    1
     3     2     1    1
     4     3     2    2
     5     4     3    1
     6     4     5    2
     7     5     6    1
     8     6     7    2
     9     8     1    1
    10     8     9    1
    11     8    12    1
    12     9    10    1
    13    10    11    1
    14    12    11    1
    15    13    43    1
    16    14    13    1
    17    14    15    1
    18    15    18    2
    19    16    17    1
    20    16    15    1
    21    19    14    2
    22    20    21    2
    23    20    19    1
    24    21    26    1
    25    22    21    1
    26    23    22    1
    27    24    23    1
    28    24    25    1
    29    26    27    1
    30    26    13    1
    31    30    47    1
    32    31    44    1
    33    32    39    1
    34    34    37    1
    35    34    47    2
    36    36    39    1
    37    37    38    1
    38    38    28    2
    39    40    35    1
    40    40    33    1
    41    40    28    1
    42    41    30    2
    43    42    34    1
    44    43    42    1
    45    44    42    2
    46    44    41    1
    47    45    33    1
    48    45    32    1
    49    45    29    1
    50    46    45    1
