@<TRIPOS>MOLECULE
No_4459-gen_results/8p0m/2024-11-27-11-27-31/
 20 21 0 0 0
SMALL
GASTEIGER

@<TRIPOS>ATOM
      1 C         -28.0162   -0.8135   28.8779 C.ar    1  UNL1        0.0437
      2 C         -28.4690   -0.7850   29.8287 C.ar    1  UNL1        0.0828
      3 C         -26.5455   -0.8762   28.8500 C.ar    1  UNL1        0.1419
      4 C         -25.8974   -0.8267   29.8894 C.ar    1  UNL1        0.0167
      5 C         -26.4945   -0.7976   31.1740 C.ar    1  UNL1       -0.0007
      6 C         -27.8589   -0.7585   31.1651 C.ar    1  UNL1        0.0065
      7 C         -24.4068   -0.9454   30.1386 C.3     1  UNL1        0.0557
      8 C         -23.6162    0.0516   29.5153 C.ar    1  UNL1       -0.0177
      9 C         -23.9026    1.3414   29.5560 C.ar    1  UNL1       -0.0039
     10 C         -23.5033    2.2068   28.6633 C.ar    1  UNL1       -0.0003
     11 C         -22.4864    1.8361   27.7399 C.ar    1  UNL1       -0.0000
     12 C         -22.0435    0.5510   27.7730 C.ar    1  UNL1       -0.0003
     13 C         -22.6414   -0.3911   28.6427 C.ar    1  UNL1       -0.0039
     14 O         -25.8407   -0.8522   27.6411 O.3     1  UNL1       -0.4511
     15 C         -30.0721   -0.7488   29.9191 C.2     1  UNL1        0.3879
     16 O         -30.6628   -0.2075   30.8458 O.co2   1  UNL1       -0.2406
     17 O         -30.6805   -1.4686   29.0988 O.co2   1  UNL1       -0.2406
     18 C         -26.1803   -0.0398   26.6111 C.2     1  UNL1        0.1749
     19 C         -26.4872    1.2814   26.8341 C.2     1  UNL1        0.0148
     20 C         -26.7486    2.0300   26.0188 C.3     1  UNL1        0.0341
@<TRIPOS>BOND
     1     4     7    1
     2     7     8    1
     3     3    14    1
     4     2    15    1
     5    15    16   ar
     6    15    17   ar
     7    14    18    1
     8    18    19    2
     9    19    20    1
    10     1     2   ar
    11     2     6   ar
    12     6     5   ar
    13     5     4   ar
    14     4     3   ar
    15     3     1   ar
    16     8     9   ar
    17     9    10   ar
    18    10    11   ar
    19    11    12   ar
    20    12    13   ar
    21    13     8   ar
