@<TRIPOS>MOLECULE
No_4460-gen_results/8p0m/2024-11-27-11-27-31/
 28 30 0 0 0
SMALL
GASTEIGER

@<TRIPOS>ATOM
      1 C         -28.0162   -0.8135   28.8779 C.ar    1  UNL1        0.0000
      2 C         -28.4690   -0.7850   29.8287 C.ar    1  UNL1        0.0000
      3 C         -27.0871    0.2903   28.6377 C.ar    1  UNL1        0.0003
      4 C         -26.2516    0.4114   27.4223 C.ar    1  UNL1        0.0039
      5 C         -28.3141   -0.1267   30.7102 C.ar    1  UNL1        0.0000
      6 C         -27.4825    1.0076   30.8097 C.ar    1  UNL1        0.0002
      7 C         -26.7770    1.1718   29.6871 C.ar    1  UNL1        0.0064
      8 C         -24.9531    0.3511   27.6693 C.ar    1  UNL1        0.0069
      9 C         -24.3283    0.9789   28.7728 C.ar    1  UNL1        0.0860
     10 C         -25.2990    1.3769   29.8280 C.ar    1  UNL1        0.0820
     11 C         -22.9618    1.3830   28.7596 C.2     1  UNL1        0.3880
     12 O         -22.1146    1.0163   29.4399 O.co2   1  UNL1       -0.2405
     13 O         -22.5808    2.2657   27.7325 O.co2   1  UNL1       -0.2405
     14 C         -24.7397    2.1818   30.9505 C.2     1  UNL1        0.3417
     15 O         -23.8052    2.8063   31.0421 O.2     1  UNL1       -0.2449
     16 O         -25.6872    2.4324   31.9495 O.3     1  UNL1       -0.4361
     17 C         -25.4501    3.5433   32.7097 C.3     1  UNL1        0.3111
     18 C         -26.4309    4.6535   32.4837 C.3     1  UNL1        0.4381
     19 F         -27.3960    4.2793   31.9813 F       1  UNL1       -0.1663
     20 F         -26.7199    5.1844   33.7513 F       1  UNL1       -0.1663
     21 F         -25.8438    5.6586   31.8308 F       1  UNL1       -0.1663
     22 C         -26.8544    0.5606   26.1800 C.ar    1  UNL1        0.0466
     23 C         -27.9640    1.2300   25.9225 C.ar    1  UNL1        0.1431
     24 C         -26.3607   -0.3583   25.1478 C.ar    1  UNL1        0.1011
     25 C         -28.7113    1.1647   24.8030 C.ar    1  UNL1        0.0503
     26 N         -27.0512   -0.3774   23.9879 N.ar    1  UNL1       -0.2422
     27 C         -28.1781    0.3405   23.8191 C.ar    1  UNL1        0.1012
     28 F         -28.5050    2.0217   26.9333 F       1  UNL1       -0.2041
@<TRIPOS>BOND
     1     9    11    1
     2    11    12   ar
     3    11    13   ar
     4    10    14    1
     5    14    15    2
     6    14    16    1
     7    16    17    1
     8    17    18    1
     9    18    19    1
    10    18    20    1
    11    18    21    1
    12     4    22    1
    13    23    28    1
    14    22    23   ar
    15    23    25   ar
    16    25    27   ar
    17    27    26   ar
    18    26    24   ar
    19    24    22   ar
    20     1     2   ar
    21     2     5   ar
    22     5     6   ar
    23     6     7   ar
    24     3     1   ar
    25     3     4   ar
    26     4     8   ar
    27     8     9   ar
    28     9    10   ar
    29    10     7   ar
    30     7     3   ar
