@<TRIPOS>MOLECULE
No_4462-gen_results/8p0m/2024-11-27-11-27-31/
 18 20 0 0 0
SMALL
GASTEIGER

@<TRIPOS>ATOM
      1 F         -28.0727   -1.2542   28.5316 F       1  UNL1       -0.1659
      2 C         -27.3591   -0.3792   28.7224 C.3     1  UNL1        0.4186
      3 C         -26.8100    0.1885   27.6513 C.ar    1  UNL1        0.0714
      4 F         -27.9478    0.6403   29.4848 F       1  UNL1       -0.1659
      5 F         -26.5678   -0.6776   29.8323 F       1  UNL1       -0.1659
      6 C         -27.4102    0.6038   26.5243 C.ar    1  UNL1        0.0039
      7 C         -25.2856    0.3276   27.5827 C.ar    1  UNL1        0.0039
      8 C         -24.6396    1.0695   26.6027 C.ar    1  UNL1       -0.0001
      9 C         -26.7759    1.2307   25.4044 C.ar    1  UNL1       -0.0001
     10 C         -25.3782    1.4997   25.4970 C.ar    1  UNL1       -0.0000
     11 C         -23.2581    1.3357   26.7888 C.ar    1  UNL1       -0.0000
     12 C         -22.6807    2.4874   26.3185 C.ar    1  UNL1       -0.0000
     13 C         -22.5401    0.6372   27.8712 C.ar    1  UNL1       -0.0000
     14 C         -21.1833    0.9840   28.1440 C.ar    1  UNL1       -0.0000
     15 C         -20.6221    2.0902   27.5350 C.ar    1  UNL1        0.0000
     16 C         -23.3467    3.1754   25.3408 C.ar    1  UNL1       -0.0000
     17 C         -21.3105    2.7201   26.6365 C.ar    1  UNL1       -0.0000
     18 C         -24.7185    2.7685   24.9859 C.ar    1  UNL1       -0.0000
@<TRIPOS>BOND
     1     1     2    1
     2     2     3    1
     3     2     4    1
     4     2     5    1
     5    10    18   ar
     6    18    16   ar
     7    16    12   ar
     8    11     8   ar
     9    11    12   ar
    10    12    17   ar
    11    17    15   ar
    12    15    14   ar
    13    14    13   ar
    14    13    11   ar
    15     3     6   ar
    16     6     9   ar
    17     9    10   ar
    18    10     8   ar
    19     8     7   ar
    20     7     3   ar
