@<TRIPOS>MOLECULE
outputs/IAG933/test6/raw/output_4463_IAG933_linker_design_.xyz
 49 54 0 0 0
SMALL
GASTEIGER

@<TRIPOS>ATOM
      1 C         -24.8550   -1.0120   30.1430 C.3     1  UNL1        0.1527
      2 C         -24.9730   -2.5050   29.7880 C.2     1  UNL1       -0.0094
      3 C         -23.9060   -3.1730   29.1460 C.2     1  UNL1       -0.0037
      4 C         -23.9890   -4.5490   28.8530 C.2     1  UNL1       -0.0003
      5 C         -25.1370   -5.2800   29.2050 C.2     1  UNL1       -0.0000
      6 C         -26.2320   -4.6110   29.7840 C.2     1  UNL1       -0.0003
      7 C         -26.1550   -3.2320   30.0650 C.2     1  UNL1       -0.0037
      8 C         -25.3870   -0.6790   31.5710 C.3     1  UNL1        0.0887
      9 C         -25.1890    0.7730   32.0280 C.3     1  UNL1        0.0198
     10 C         -25.3360    0.6840   33.5440 C.3     1  UNL1        0.0203
     11 C         -24.8290   -0.7150   33.9050 C.3     1  UNL1        0.0887
     12 N         -24.7580   -1.4810   32.6460 N.3     1  UNL1       -0.2185
     13 C         -25.6880    1.6140   26.4610 C.3     1  UNL1        0.0990
     14 C         -26.2500    2.9200   26.3950 C.2     1  UNL1        0.0591
     15 C         -25.6420    4.0930   27.1230 C.2     1  UNL1        0.2628
     16 N         -25.6140    5.2520   26.4490 N.am    1  UNL1       -0.2000
     17 C         -25.0260    6.4790   26.9630 C.3     1  UNL1        0.1388
     18 O         -25.1430    3.9660   28.2430 O.2     1  UNL1       -0.2686
     19 C         -27.4380    3.0910   25.6450 C.2     1  UNL1        0.1025
     20 N         -28.0750    2.0890   25.0030 N.2     1  UNL1       -0.2118
     21 C         -27.5430    0.8490   25.0790 C.2     1  UNL1        0.2344
     22 O         -28.1930   -0.2080   24.4770 O.2     1  UNL1       -0.4586
     23 C         -29.4600    0.0050   23.8660 C.3     1  UNL1        0.2388
     24 C         -30.0650   -1.3770   23.5730 C.3     1  UNL1        0.1893
     25 O         -30.7290   -1.8780   24.7210 O.3     1  UNL1       -0.3497
     26 C         -26.3540    0.5760   25.7770 C.3     1  UNL1        0.2442
     27 F         -25.8600   -0.6810   25.7950 F       1  UNL1       -0.2265
     28 C         -23.8822   -0.1667   29.5143 C.2     1  UNL1        0.3993
     29 C         -27.8573    2.1864   29.6766 C.3     1  UNL1        0.0006
     30 C         -24.1888    1.5862   26.4672 C.2     1  UNL1        0.0666
     31 C         -22.1203    1.3301   27.4673 C.2     1  UNL1        0.2235
     32 C         -30.4421    2.0600   28.3178 C.3     1  UNL1        0.0204
     33 N         -24.1054    0.1897   28.2297 N.pl3   1  UNL1       -0.0026
     34 N         -30.8360   -0.2646   28.9114 N.am    1  UNL1       -0.2132
     35 C         -28.9991    2.1351   28.9520 C.3     1  UNL1        0.0021
     36 C         -29.1186    2.2626   30.4196 C.3     1  UNL1        0.0092
     37 C         -29.3295    1.0276   31.2769 C.3     1  UNL1        0.0857
     38 N         -33.0964   -1.0035   28.3266 N.am    1  UNL1       -0.0688
     39 C         -29.6110   -0.0639   30.0698 C.2     1  UNL1        0.2325
     40 C         -23.2568    2.1533   25.6081 C.2     1  UNL1        0.1795
     41 C         -31.7379   -1.0834   25.2617 C.3     1  UNL1        0.1440
     42 O         -21.9774    2.0502   26.2475 O.2     1  UNL1       -0.4438
     43 O         -31.6739   -2.3412   29.2504 O.2     1  UNL1       -0.2486
     44 C         -31.1525   -0.4401   26.5924 C.3     1  UNL1        0.0524
     45 C         -30.9083    0.5393   27.8170 C.3     1  UNL1        0.0865
     46 C         -23.4403    0.9718   27.5185 C.2     1  UNL1        0.2199
     47 N         -22.8519    0.2751   30.2144 N.2     1  UNL1        0.1926
     48 C         -31.8402   -1.2439   28.9076 C.2     1  UNL1        0.3486
     49 O         -28.7061   -0.8563   29.8820 O.2     1  UNL1       -0.2744
@<TRIPOS>BOND
     1     1    28    1
     2     2     7    1
     3     2     1    1
     4     3     2    2
     5     4     3    1
     6     4     5    2
     7     5     6    1
     8     6     7    2
     9     8     1    1
    10     8     9    1
    11     8    12    1
    12     9    10    1
    13    10    11    1
    14    12    11    1
    15    13    30    1
    16    14    13    1
    17    14    15    1
    18    15    18    2
    19    16    17    1
    20    16    15    1
    21    19    14    2
    22    20    21    2
    23    20    19    1
    24    21    26    1
    25    22    21    1
    26    23    22    1
    27    24    23    1
    28    24    25    1
    29    25    41    1
    30    26    27    1
    31    26    13    1
    32    28    47    2
    33    30    46    1
    34    31    46    2
    35    33    28    1
    36    34    39   am
    37    35    32    1
    38    35    29    1
    39    35    36    1
    40    36    29    1
    41    36    37    1
    42    38    48    1
    43    39    37    1
    44    40    42    1
    45    40    30    2
    46    41    44    1
    47    42    31    1
    48    45    44    1
    49    45    32    1
    50    45    34    1
    51    46    33    1
    52    48    34   am
    53    48    43    2
    54    49    39    2
