@<TRIPOS>MOLECULE
outputs/IAG933/test6/raw/output_4465_IAG933_linker_design_.xyz
 44 48 0 0 0
SMALL
GASTEIGER

@<TRIPOS>ATOM
      1 C         -24.8550   -1.0120   30.1430 C.3     1  UNL1        0.1128
      2 C         -24.9730   -2.5050   29.7880 C.2     1  UNL1       -0.0051
      3 C         -23.9060   -3.1730   29.1460 C.2     1  UNL1       -0.0029
      4 C         -23.9890   -4.5490   28.8530 C.2     1  UNL1       -0.0003
      5 C         -25.1370   -5.2800   29.2050 C.2     1  UNL1       -0.0000
      6 C         -26.2320   -4.6110   29.7840 C.2     1  UNL1       -0.0003
      7 C         -26.1550   -3.2320   30.0650 C.2     1  UNL1       -0.0029
      8 C         -25.3870   -0.6790   31.5710 C.3     1  UNL1        0.0946
      9 C         -25.1890    0.7730   32.0280 C.3     1  UNL1        0.0452
     10 C         -25.3360    0.6840   33.5440 C.3     1  UNL1        0.0220
     11 C         -24.8290   -0.7150   33.9050 C.3     1  UNL1        0.0888
     12 N         -24.7580   -1.4810   32.6460 N.3     1  UNL1       -0.2177
     13 C         -25.6880    1.6140   26.4610 C.2     1  UNL1        0.0248
     14 C         -26.2500    2.9200   26.3950 C.2     1  UNL1        0.0730
     15 C         -25.6420    4.0930   27.1230 C.2     1  UNL1        0.2661
     16 N         -25.6140    5.2520   26.4490 N.am    1  UNL1       -0.1997
     17 C         -25.0260    6.4790   26.9630 C.3     1  UNL1        0.1388
     18 O         -25.1430    3.9660   28.2430 O.2     1  UNL1       -0.2683
     19 C         -27.4380    3.0910   25.6450 C.2     1  UNL1        0.1064
     20 N         -28.0750    2.0890   25.0030 N.2     1  UNL1       -0.2081
     21 C         -27.5430    0.8490   25.0790 C.2     1  UNL1        0.2530
     22 O         -28.1930   -0.2080   24.4770 O.2     1  UNL1       -0.4558
     23 C         -29.4600    0.0050   23.8660 C.3     1  UNL1        0.2426
     24 C         -30.0650   -1.3770   23.5730 C.3     1  UNL1        0.2292
     25 O         -30.7290   -1.8780   24.7210 O.3     1  UNL1       -0.2162
     26 C         -26.3540    0.5760   25.7770 C.2     1  UNL1        0.1896
     27 F         -25.8600   -0.6810   25.7950 F       1  UNL1       -0.1996
     28 C         -26.0373    3.3116   32.0602 C.3     1  UNL1        0.4133
     29 C         -23.2289    1.8267   26.6802 C.2     1  UNL1        0.1851
     30 C         -24.3722    1.3494   27.2207 C.3     1  UNL1        0.1140
     31 C         -24.0343    0.6486   28.4720 C.3     1  UNL1        0.1847
     32 C         -25.7965    2.0101   31.3290 C.3     1  UNL1        0.1863
     33 F         -27.2304    3.2170   32.6911 F       1  UNL1       -0.1684
     34 F         -24.9759    3.5490   32.9388 F       1  UNL1       -0.1684
     35 C         -22.0943    2.6135   24.6496 C.3     1  UNL1        0.2522
     36 C         -21.9852    1.6857   27.3067 C.2     1  UNL1        0.3203
     37 N         -25.0413    2.1303   30.0936 N.3     1  UNL1       -0.1388
     38 O         -21.5930    0.9118   28.3369 O.3     1  UNL1       -0.3948
     39 O         -22.2790   -0.8945   29.1901 O.2     1  UNL1       -0.2481
     40 F         -20.9046    2.3147   26.9413 F       1  UNL1       -0.1598
     41 F         -25.9997    4.3179   31.2000 F       1  UNL1       -0.1684
     42 N         -24.8565    0.4382   29.6511 N.3     1  UNL1       -0.1895
     43 O         -23.2380    2.5074   25.4598 O.2     1  UNL1       -0.4698
     44 C         -22.6659    0.2632   28.6357 C.2     1  UNL1        0.3400
@<TRIPOS>BOND
     1     1     2    1
     2     1     8    1
     3     2     7    1
     4     3     2    2
     5     4     3    1
     6     4     5    2
     7     5     6    1
     8     6     7    2
     9     8     9    1
    10     8    12    1
    11     9    10    1
    12    10    11    1
    13    12    11    1
    14    14    13    1
    15    14    15    1
    16    15    18    2
    17    16    17    1
    18    16    15    1
    19    19    14    2
    20    20    21    2
    21    20    19    1
    22    21    26    1
    23    22    21    1
    24    23    22    1
    25    24    23    1
    26    24    25    1
    27    26    27    1
    28    26    13    2
    29    28    33    1
    30    28    34    1
    31    29    30    1
    32    29    36    2
    33    30    13    1
    34    30    31    1
    35    31    44    1
    36    31    42    1
    37    32     9    1
    38    32    28    1
    39    35    43    1
    40    36    38    1
    41    37    32    1
    42    38    44    1
    43    40    36    1
    44    41    28    1
    45    42    37    1
    46    42     1    1
    47    43    29    1
    48    44    39    2
