@<TRIPOS>MOLECULE
No_4467-gen_results/8p0m/2024-11-27-11-27-31/
 21 22 0 0 0
SMALL
GASTEIGER

@<TRIPOS>ATOM
      1 C         -28.0162   -0.8135   28.8779 C.3     1  UNL1        0.0722
      2 C         -27.0636   -0.1190   28.6079 C.ar    1  UNL1        0.0678
      3 N         -25.8176   -0.3427   29.0488 N.ar    1  UNL1       -0.2477
      4 C         -24.6506    0.4444   28.7649 C.ar    1  UNL1        0.1023
      5 C         -24.7153    1.3122   27.7191 C.ar    1  UNL1        0.0906
      6 C         -25.9996    1.5243   27.1533 C.ar    1  UNL1        0.0112
      7 C         -27.0905    0.8203   27.5377 C.ar    1  UNL1        0.0689
      8 C         -28.6356   -0.4028   30.2377 C.ar    1  UNL1       -0.0162
      9 C         -28.4951    0.4568   30.7461 C.ar    1  UNL1       -0.0039
     10 C         -29.1894    0.8046   32.1065 C.ar    1  UNL1       -0.0003
     11 C         -30.0127   -0.1671   32.6111 C.ar    1  UNL1       -0.0000
     12 C         -29.4580   -1.6286   30.8163 C.ar    1  UNL1       -0.0039
     13 C         -30.1284   -1.3890   32.0036 C.ar    1  UNL1       -0.0003
     14 C         -23.4988    2.0169   27.3387 C.3     1  UNL1        0.4200
     15 F         -23.3451    2.2583   26.1572 F       1  UNL1       -0.1658
     16 F         -22.3069    1.2591   27.6770 F       1  UNL1       -0.1658
     17 F         -23.4144    3.2058   28.0632 F       1  UNL1       -0.1658
     18 C         -28.3624    1.1219   26.8818 C.2     1  UNL1        0.2660
     19 O         -28.7177    0.6871   25.8575 O.2     1  UNL1       -0.2683
     20 N         -29.2258    1.9906   27.6026 N.am    1  UNL1       -0.1997
     21 C         -30.5788    2.2618   27.1903 C.3     1  UNL1        0.1388
@<TRIPOS>BOND
     1     1     2    1
     2     1     8    1
     3     5    14    1
     4    14    15    1
     5    14    16    1
     6    14    17    1
     7     7    18    1
     8    18    19    2
     9    18    20   am
    10    20    21    1
    11     2     3   ar
    12     3     4   ar
    13     4     5   ar
    14     5     6   ar
    15     6     7   ar
    16     7     2   ar
    17     8     9   ar
    18     9    10   ar
    19    10    11   ar
    20    11    13   ar
    21    13    12   ar
    22    12     8   ar
