@<TRIPOS>MOLECULE
outputs/IAG933/test6/raw/output_4468_IAG933_linker_design_.xyz
 43 49 0 0 0
SMALL
GASTEIGER

@<TRIPOS>ATOM
      1 C         -24.8550   -1.0120   30.1430 C.3     1  UNL1        0.1249
      2 C         -24.9730   -2.5050   29.7880 C.2     1  UNL1       -0.0004
      3 C         -23.9060   -3.1730   29.1460 C.2     1  UNL1       -0.0024
      4 C         -23.9890   -4.5490   28.8530 C.2     1  UNL1       -0.0003
      5 C         -25.1370   -5.2800   29.2050 C.2     1  UNL1       -0.0000
      6 C         -26.2320   -4.6110   29.7840 C.2     1  UNL1       -0.0003
      7 C         -26.1550   -3.2320   30.0650 C.2     1  UNL1       -0.0024
      8 C         -25.3870   -0.6790   31.5710 C.3     1  UNL1        0.0977
      9 C         -25.1890    0.7730   32.0280 C.3     1  UNL1        0.0211
     10 C         -25.3360    0.6840   33.5440 C.3     1  UNL1        0.0203
     11 C         -24.8290   -0.7150   33.9050 C.3     1  UNL1        0.0888
     12 N         -24.7580   -1.4810   32.6460 N.3     1  UNL1       -0.2172
     13 C         -25.6880    1.6140   26.4610 C.3     1  UNL1        0.0951
     14 C         -26.2500    2.9200   26.3950 C.2     1  UNL1        0.0590
     15 C         -25.6420    4.0930   27.1230 C.2     1  UNL1        0.2628
     16 N         -25.6140    5.2520   26.4490 N.am    1  UNL1       -0.2000
     17 C         -25.0260    6.4790   26.9630 C.3     1  UNL1        0.1388
     18 O         -25.1430    3.9660   28.2430 O.2     1  UNL1       -0.2686
     19 C         -27.4380    3.0910   25.6450 C.2     1  UNL1        0.1025
     20 N         -28.0750    2.0890   25.0030 N.2     1  UNL1       -0.2118
     21 C         -27.5430    0.8490   25.0790 C.2     1  UNL1        0.2344
     22 O         -28.1930   -0.2080   24.4770 O.2     1  UNL1       -0.4585
     23 C         -29.4600    0.0050   23.8660 C.3     1  UNL1        0.2423
     24 C         -30.0650   -1.3770   23.5730 C.3     1  UNL1        0.2292
     25 O         -30.7290   -1.8780   24.7210 O.3     1  UNL1       -0.2162
     26 C         -26.3540    0.5760   25.7770 C.3     1  UNL1        0.2441
     27 F         -25.8600   -0.6810   25.7950 F       1  UNL1       -0.2265
     28 C         -21.1600    1.4788   27.3760 C.2     1  UNL1        0.0297
     29 C         -26.4876    2.4904   30.0322 C.3     1  UNL1        0.0742
     30 N         -26.2964    1.3675   29.0866 N.pl3   1  UNL1       -0.2964
     31 C         -27.5551    0.6833   28.6491 C.3     1  UNL1        0.0921
     32 C         -27.5067    3.4925   30.3501 C.3     1  UNL1        0.0215
     33 C         -23.3081    0.2657   28.6628 C.ar    1  UNL1        0.0630
     34 C         -22.0084    0.0177   29.0982 C.2     1  UNL1        0.0174
     35 C         -28.5291    1.2606   29.6517 C.3     1  UNL1        0.0232
     36 C         -27.8356    2.1302   30.7066 C.3     1  UNL1        0.0215
     37 N         -24.4648   -0.0217   29.2481 N.ar    1  UNL1       -0.3128
     38 C         -22.3853    1.5752   26.8162 C.2     1  UNL1        0.1413
     39 C         -23.4635    1.0316   27.5010 C.ar    1  UNL1        0.0423
     40 C         -20.9790    0.6531   28.4427 C.2     1  UNL1        0.0038
     41 C         -24.7426    1.1730   27.4028 C.ar    1  UNL1        0.0184
     42 F         -22.5364    2.1853   25.6463 F       1  UNL1       -0.2041
     43 C         -25.2699    0.8140   28.6701 C.ar    1  UNL1        0.1088
@<TRIPOS>BOND
     1     1     2    1
     2     2     7    1
     3     3     2    2
     4     4     3    1
     5     4     5    2
     6     5     6    1
     7     6     7    2
     8     8     1    1
     9     8     9    1
    10     8    12    1
    11     9    10    1
    12    10    11    1
    13    12    11    1
    14    13    41    1
    15    14    13    1
    16    14    15    1
    17    15    18    2
    18    16    17    1
    19    16    15    1
    20    19    14    2
    21    20    21    2
    22    20    19    1
    23    21    26    1
    24    22    21    1
    25    23    22    1
    26    24    23    1
    27    24    25    1
    28    26    27    1
    29    26    13    1
    30    28    40    1
    31    29    32    1
    32    29    36    1
    33    30    29    1
    34    31    30    1
    35    31    35    1
    36    32    36    1
    37    33    34    1
    38    33    37   ar
    39    36    35    1
    40    37     1    1
    41    38    28    2
    42    38    39    1
    43    39    33   ar
    44    40    34    2
    45    41    39   ar
    46    41    43   ar
    47    42    38    1
    48    43    30    1
    49    43    37   ar
