@<TRIPOS>MOLECULE
No_4472-gen_results/8p0m/2024-11-27-11-27-31/
 11 11 0 0 0
SMALL
GASTEIGER

@<TRIPOS>ATOM
      1 C         -28.0162   -0.8135   28.8779 C.ar    1  UNL1        0.0000
      2 C         -28.4690   -0.7850   29.8287 C.ar    1  UNL1        0.0000
      3 C         -27.1356    0.2359   28.5352 C.ar    1  UNL1        0.0015
      4 C         -26.8745    1.2825   29.3982 C.ar    1  UNL1        0.0187
      5 C         -25.9742    2.3797   29.0831 C.2     1  UNL1        0.0935
      6 C         -28.3915    0.1302   30.9603 C.ar    1  UNL1        0.0000
      7 C         -27.5035    1.2424   30.6700 C.ar    1  UNL1        0.0015
      8 N         -25.5545    2.6476   28.2068 N.2     1  UNL1       -0.2641
      9 C         -25.3502    1.9032   27.1913 C.3     1  UNL1        0.1516
     10 C         -24.3427    2.1334   26.1829 C.2     1  UNL1       -0.0001
     11 C         -23.9149    3.3728   26.2907 C.2     1  UNL1       -0.0029
@<TRIPOS>BOND
     1     4     5    1
     2     5     8    2
     3     8     9    1
     4     9    10    1
     5    10    11    2
     6     1     2   ar
     7     2     6   ar
     8     6     7   ar
     9     7     4   ar
    10     4     3   ar
    11     3     1   ar
