@<TRIPOS>MOLECULE
outputs/IAG933/test6/raw/output_4475_IAG933_linker_design_.xyz
 44 47 0 0 0
SMALL
GASTEIGER

@<TRIPOS>ATOM
      1 C         -24.8550   -1.0120   30.1430 C.3     1  UNL1        0.0471
      2 C         -24.9730   -2.5050   29.7880 C.2     1  UNL1       -0.0207
      3 C         -23.9060   -3.1730   29.1460 C.2     1  UNL1       -0.0042
      4 C         -23.9890   -4.5490   28.8530 C.2     1  UNL1       -0.0003
      5 C         -25.1370   -5.2800   29.2050 C.2     1  UNL1       -0.0000
      6 C         -26.2320   -4.6110   29.7840 C.2     1  UNL1       -0.0003
      7 C         -26.1550   -3.2320   30.0650 C.2     1  UNL1       -0.0042
      8 C         -25.3870   -0.6790   31.5710 C.3     1  UNL1        0.0773
      9 C         -25.1890    0.7730   32.0280 C.3     1  UNL1        0.0192
     10 C         -25.3360    0.6840   33.5440 C.3     1  UNL1        0.0202
     11 C         -24.8290   -0.7150   33.9050 C.3     1  UNL1        0.0887
     12 N         -24.7580   -1.4810   32.6460 N.3     1  UNL1       -0.2191
     13 C         -25.6880    1.6140   26.4610 C.2     1  UNL1        0.0180
     14 C         -26.2500    2.9200   26.3950 C.2     1  UNL1        0.0726
     15 C         -25.6420    4.0930   27.1230 C.2     1  UNL1        0.2661
     16 N         -25.6140    5.2520   26.4490 N.am    1  UNL1       -0.1997
     17 C         -25.0260    6.4790   26.9630 C.3     1  UNL1        0.1388
     18 O         -25.1430    3.9660   28.2430 O.2     1  UNL1       -0.2683
     19 C         -27.4380    3.0910   25.6450 C.2     1  UNL1        0.1064
     20 N         -28.0750    2.0890   25.0030 N.2     1  UNL1       -0.2081
     21 C         -27.5430    0.8490   25.0790 C.2     1  UNL1        0.2530
     22 O         -28.1930   -0.2080   24.4770 O.2     1  UNL1       -0.4558
     23 C         -29.4600    0.0050   23.8660 C.3     1  UNL1        0.2426
     24 C         -30.0650   -1.3770   23.5730 C.3     1  UNL1        0.2292
     25 O         -30.7290   -1.8780   24.7210 O.3     1  UNL1       -0.2162
     26 C         -26.3540    0.5760   25.7770 C.2     1  UNL1        0.1892
     27 F         -25.8600   -0.6810   25.7950 F       1  UNL1       -0.1996
     28 O         -24.8953    2.2935   29.6103 O.2     1  UNL1       -0.2733
     29 C         -25.6298    1.4419   29.4398 C.2     1  UNL1        0.2417
     30 N         -28.8553    4.9527   29.3053 N.2     1  UNL1       -0.1495
     31 C         -28.7351    3.8583   29.7423 C.2     1  UNL1        0.1198
     32 C         -24.3472   -0.0336   27.8747 C.3     1  UNL1        0.0460
     33 C         -24.5134    1.1931   26.9920 C.3     1  UNL1        0.0551
     34 N         -26.8400    2.0725   29.5410 N.am    1  UNL1       -0.1983
     35 CA        -27.2361    3.3310   29.8819 C.3     1  UNL1        0.1709
     36 C         -25.4086   -0.0578   28.9967 C.3     1  UNL1        0.0864
     37 C         -21.7723    2.4176   24.9433 C.3     1  UNL1        0.1740
     38 O         -27.5379    5.0174   31.7743 O.3     1  UNL1       -0.2181
     39 O         -22.9861    1.8957   25.2939 O.3     1  UNL1       -0.3532
     40 C         -22.8384    0.1142   28.2906 C.3     1  UNL1        0.1552
     41 C         -22.0311    1.0552   27.3916 C.3     1  UNL1        0.0628
     42 C         -26.7986    4.1859   30.9064 C.3     1  UNL1        0.2097
     43 C         -23.2339    1.5717   26.6764 C.3     1  UNL1        0.1220
     44 O         -22.6602    0.6865   29.5699 O.3     1  UNL1       -0.2230
@<TRIPOS>BOND
     1     1    36    1
     2     2     7    1
     3     2     1    1
     4     3     2    2
     5     4     3    1
     6     4     5    2
     7     5     6    1
     8     6     7    2
     9     8     1    1
    10     8     9    1
    11     8    12    1
    12     9    10    1
    13    10    11    1
    14    12    11    1
    15    14    13    1
    16    14    15    1
    17    15    18    2
    18    16    17    1
    19    16    15    1
    20    19    14    2
    21    20    21    2
    22    20    19    1
    23    21    26    1
    24    22    21    1
    25    23    22    1
    26    24    23    1
    27    24    25    1
    28    26    27    1
    29    26    13    2
    30    29    34    1
    31    29    28    2
    32    30    31    2
    33    32    40    1
    34    32    36    1
    35    33    13    1
    36    33    32    1
    37    34    35    1
    38    35    31    1
    39    35    42    1
    40    36    29    1
    41    37    39    1
    42    40    44    1
    43    41    40    1
    44    42    38    1
    45    43    39    1
    46    43    33    1
    47    43    41    1
