@<TRIPOS>MOLECULE
outputs/IAG933/test6/raw/output_4476_IAG933_linker_design_.xyz
 42 45 0 0 0
SMALL
GASTEIGER

@<TRIPOS>ATOM
      1 C         -24.8550   -1.0120   30.1430 C.3     1  UNL1        0.1311
      2 C         -24.9730   -2.5050   29.7880 C.2     1  UNL1       -0.0002
      3 C         -23.9060   -3.1730   29.1460 C.2     1  UNL1       -0.0024
      4 C         -23.9890   -4.5490   28.8530 C.2     1  UNL1       -0.0003
      5 C         -25.1370   -5.2800   29.2050 C.2     1  UNL1       -0.0000
      6 C         -26.2320   -4.6110   29.7840 C.2     1  UNL1       -0.0003
      7 C         -26.1550   -3.2320   30.0650 C.2     1  UNL1       -0.0024
      8 C         -25.3870   -0.6790   31.5710 C.3     1  UNL1        0.0979
      9 C         -25.1890    0.7730   32.0280 C.3     1  UNL1        0.0211
     10 C         -25.3360    0.6840   33.5440 C.3     1  UNL1        0.0203
     11 C         -24.8290   -0.7150   33.9050 C.3     1  UNL1        0.0888
     12 N         -24.7580   -1.4810   32.6460 N.3     1  UNL1       -0.2172
     13 C         -25.6880    1.6140   26.4610 C.2     1  UNL1        0.1063
     14 C         -26.2500    2.9200   26.3950 C.2     1  UNL1        0.0928
     15 C         -25.6420    4.0930   27.1230 C.2     1  UNL1        0.2678
     16 N         -25.6140    5.2520   26.4490 N.am    1  UNL1       -0.1997
     17 C         -25.0260    6.4790   26.9630 C.3     1  UNL1        0.1388
     18 O         -25.1430    3.9660   28.2430 O.2     1  UNL1       -0.2683
     19 C         -27.4380    3.0910   25.6450 C.2     1  UNL1        0.1082
     20 N         -28.0750    2.0890   25.0030 N.2     1  UNL1       -0.2080
     21 C         -27.5430    0.8490   25.0790 C.2     1  UNL1        0.2548
     22 O         -28.1930   -0.2080   24.4770 O.2     1  UNL1       -0.4558
     23 C         -29.4600    0.0050   23.8660 C.3     1  UNL1        0.2426
     24 C         -30.0650   -1.3770   23.5730 C.3     1  UNL1        0.2292
     25 O         -30.7290   -1.8780   24.7210 O.3     1  UNL1       -0.2162
     26 C         -26.3540    0.5760   25.7770 C.2     1  UNL1        0.2091
     27 F         -25.8600   -0.6810   25.7950 F       1  UNL1       -0.1977
     28 N         -24.3873   -0.0853   29.1553 N.ar    1  UNL1       -0.2450
     29 C         -23.3802    1.6629   25.3594 C.2     1  UNL1        0.3497
     30 N         -24.8469    1.0959   27.1913 N.ar    1  UNL1       -0.2520
     31 C         -20.5938   -0.1759   28.7250 C.2     1  UNL1        0.0445
     32 O         -21.0826    2.0908   26.1810 O.3     1  UNL1        0.0284
     33 C         -25.2521    0.2905   28.3585 C.ar    1  UNL1        0.3381
     34 C         -21.1503    0.6190   27.8800 C.2     1  UNL1        0.1921
     35 O         -24.0660    1.1322   24.5144 O.2     1  UNL1       -0.2525
     36 O         -20.6947    1.4227   27.0580 O.2     1  UNL1       -0.3028
     37 O         -22.1429   -0.1955   29.9686 O.2     1  UNL1       -0.2667
     38 C         -23.1651    0.1103   29.0905 C.ar    1  UNL1        0.2691
     39 O         -26.4473    0.0020   28.5292 O.2     1  UNL1       -0.2458
     40 C         -23.5385    1.2513   26.9282 C.ar    1  UNL1        0.1435
     41 C         -22.6606    0.7400   27.9172 C.ar    1  UNL1        0.1158
     42 F         -22.7389    2.7631   24.8642 F       1  UNL1       -0.1570
@<TRIPOS>BOND
     1     1     2    1
     2     2     7    1
     3     3     2    2
     4     4     3    1
     5     4     5    2
     6     5     6    1
     7     6     7    2
     8     8     1    1
     9     8     9    1
    10     8    12    1
    11     9    10    1
    12    10    11    1
    13    12    11    1
    14    13    30    1
    15    14    13    1
    16    14    15    1
    17    15    18    2
    18    16    17    1
    19    16    15    1
    20    19    14    2
    21    20    21    2
    22    20    19    1
    23    21    26    1
    24    22    21    1
    25    23    22    1
    26    24    23    1
    27    24    25    1
    28    26    27    1
    29    26    13    2
    30    28     1    1
    31    29    40    1
    32    30    33   ar
    33    32    36    1
    34    33    39    2
    35    33    28   ar
    36    34    41    1
    37    34    31    2
    38    35    29    2
    39    36    34    1
    40    38    28   ar
    41    38    37    2
    42    40    30   ar
    43    40    41   ar
    44    41    38   ar
    45    42    29    1
