@<TRIPOS>MOLECULE
outputs/IAG933/test6/raw/output_4477_IAG933_linker_design_.xyz
 43 46 0 0 0
SMALL
GASTEIGER

@<TRIPOS>ATOM
      1 C         -24.8550   -1.0120   30.1430 C.3     1  UNL1        0.1537
      2 C         -24.9730   -2.5050   29.7880 C.2     1  UNL1        0.0059
      3 C         -23.9060   -3.1730   29.1460 C.2     1  UNL1       -0.0019
      4 C         -23.9890   -4.5490   28.8530 C.2     1  UNL1       -0.0002
      5 C         -25.1370   -5.2800   29.2050 C.2     1  UNL1       -0.0000
      6 C         -26.2320   -4.6110   29.7840 C.2     1  UNL1       -0.0002
      7 C         -26.1550   -3.2320   30.0650 C.2     1  UNL1       -0.0019
      8 C         -25.3870   -0.6790   31.5710 C.3     1  UNL1        0.1041
      9 C         -25.1890    0.7730   32.0280 C.3     1  UNL1        0.0217
     10 C         -25.3360    0.6840   33.5440 C.3     1  UNL1        0.0203
     11 C         -24.8290   -0.7150   33.9050 C.3     1  UNL1        0.0888
     12 N         -24.7580   -1.4810   32.6460 N.3     1  UNL1       -0.2166
     13 C         -25.6880    1.6140   26.4610 C.3     1  UNL1        0.0729
     14 C         -26.2500    2.9200   26.3950 C.2     1  UNL1        0.0549
     15 C         -25.6420    4.0930   27.1230 C.2     1  UNL1        0.2624
     16 N         -25.6140    5.2520   26.4490 N.am    1  UNL1       -0.2000
     17 C         -25.0260    6.4790   26.9630 C.3     1  UNL1        0.1388
     18 O         -25.1430    3.9660   28.2430 O.2     1  UNL1       -0.2687
     19 C         -27.4380    3.0910   25.6450 C.2     1  UNL1        0.1021
     20 N         -28.0750    2.0890   25.0030 N.2     1  UNL1       -0.2119
     21 C         -27.5430    0.8490   25.0790 C.2     1  UNL1        0.2341
     22 O         -28.1930   -0.2080   24.4770 O.2     1  UNL1       -0.4585
     23 C         -29.4600    0.0050   23.8660 C.3     1  UNL1        0.2423
     24 C         -30.0650   -1.3770   23.5730 C.3     1  UNL1        0.2292
     25 O         -30.7290   -1.8780   24.7210 O.3     1  UNL1       -0.2162
     26 C         -26.3540    0.5760   25.7770 C.3     1  UNL1        0.2401
     27 F         -25.8600   -0.6810   25.7950 F       1  UNL1       -0.2269
     28 N         -31.3456    2.2188   29.8291 N.3     1  UNL1       -0.1090
     29 N         -27.0873    2.0778   29.9326 N.2     1  UNL1       -0.2450
     30 O         -25.7068   -0.2053   29.3008 O.3     1  UNL1       -0.3469
     31 C         -30.5465    1.6358   28.8819 C.3     1  UNL1        0.1844
     32 N         -30.7766    1.1558   27.6664 N.3     1  UNL1       -0.1970
     33 C         -25.3674    1.0142   28.7994 C.3     1  UNL1        0.1568
     34 C         -29.6628    0.2886   27.2244 C.3     1  UNL1        0.0951
     35 C         -21.9431    1.9238   27.8373 C.3     1  UNL1        0.0000
     36 C         -26.4488    1.1704   29.0336 C.2     1  UNL1        0.1017
     37 C         -29.1666    1.4237   29.1310 C.2     1  UNL1        0.0098
     38 C         -20.5969    1.2768   27.5211 C.3     1  UNL1        0.0000
     39 C         -23.5141    0.2158   27.5287 C.3     1  UNL1        0.0032
     40 C         -22.6907    0.8664   28.6425 C.3     1  UNL1        0.0001
     41 C         -28.7298    0.2990   28.1185 C.3     1  UNL1        0.0453
     42 C         -28.4036    2.0942   29.9995 C.2     1  UNL1        0.0929
     43 C         -24.7014    1.2080   27.4517 C.3     1  UNL1        0.0405
@<TRIPOS>BOND
     1     1    30    1
     2     2     7    1
     3     2     1    1
     4     3     2    2
     5     4     3    1
     6     4     5    2
     7     5     6    1
     8     6     7    2
     9     8     1    1
    10     8     9    1
    11     8    12    1
    12     9    10    1
    13    10    11    1
    14    12    11    1
    15    13    43    1
    16    14    13    1
    17    14    15    1
    18    15    18    2
    19    16    17    1
    20    16    15    1
    21    19    14    2
    22    20    21    2
    23    20    19    1
    24    21    26    1
    25    22    21    1
    26    23    22    1
    27    24    23    1
    28    24    25    1
    29    26    27    1
    30    26    13    1
    31    29    42    1
    32    31    37    1
    33    31    28    1
    34    32    31    1
    35    33    36    1
    36    33    30    1
    37    34    32    1
    38    34    41    1
    39    35    40    1
    40    36    29    2
    41    37    42    2
    42    38    35    1
    43    39    40    1
    44    41    37    1
    45    43    39    1
    46    43    33    1
