@<TRIPOS>MOLECULE
outputs/IAG933/test6/raw/output_4478_IAG933_linker_design_.xyz
 47 52 0 0 0
SMALL
GASTEIGER

@<TRIPOS>ATOM
      1 C         -24.8550   -1.0120   30.1430 C.3     1  UNL1        0.0602
      2 C         -24.9730   -2.5050   29.7880 C.2     1  UNL1       -0.0171
      3 C         -23.9060   -3.1730   29.1460 C.2     1  UNL1       -0.0039
      4 C         -23.9890   -4.5490   28.8530 C.2     1  UNL1       -0.0003
      5 C         -25.1370   -5.2800   29.2050 C.2     1  UNL1       -0.0000
      6 C         -26.2320   -4.6110   29.7840 C.2     1  UNL1       -0.0003
      7 C         -26.1550   -3.2320   30.0650 C.2     1  UNL1       -0.0039
      8 C         -25.3870   -0.6790   31.5710 C.3     1  UNL1        0.0808
      9 C         -25.1890    0.7730   32.0280 C.3     1  UNL1        0.0195
     10 C         -25.3360    0.6840   33.5440 C.3     1  UNL1        0.0203
     11 C         -24.8290   -0.7150   33.9050 C.3     1  UNL1        0.0887
     12 N         -24.7580   -1.4810   32.6460 N.3     1  UNL1       -0.2188
     13 C         -25.6880    1.6140   26.4610 C.3     1  UNL1        0.0951
     14 C         -26.2500    2.9200   26.3950 C.2     1  UNL1        0.0590
     15 C         -25.6420    4.0930   27.1230 C.2     1  UNL1        0.2628
     16 N         -25.6140    5.2520   26.4490 N.am    1  UNL1       -0.2000
     17 C         -25.0260    6.4790   26.9630 C.3     1  UNL1        0.1388
     18 O         -25.1430    3.9660   28.2430 O.2     1  UNL1       -0.2686
     19 C         -27.4380    3.0910   25.6450 C.2     1  UNL1        0.1025
     20 N         -28.0750    2.0890   25.0030 N.2     1  UNL1       -0.2118
     21 C         -27.5430    0.8490   25.0790 C.2     1  UNL1        0.2344
     22 O         -28.1930   -0.2080   24.4770 O.2     1  UNL1       -0.4585
     23 C         -29.4600    0.0050   23.8660 C.3     1  UNL1        0.2423
     24 C         -30.0650   -1.3770   23.5730 C.3     1  UNL1        0.2292
     25 O         -30.7290   -1.8780   24.7210 O.3     1  UNL1       -0.2162
     26 C         -26.3540    0.5760   25.7770 C.3     1  UNL1        0.2441
     27 F         -25.8600   -0.6810   25.7950 F       1  UNL1       -0.2265
     28 C         -26.9447    1.1263   29.3361 C.3     1  UNL1        0.0219
     29 C         -23.4881    1.5816   27.0332 C.2     1  UNL1        0.1878
     30 C         -29.6943    2.3882   30.2706 C.3     1  UNL1        0.0927
     31 C         -29.2315    1.4498   31.5561 C.3     1  UNL1        0.0296
     32 C         -29.9759    1.2928   29.1219 C.3     1  UNL1        0.0272
     33 C         -23.0570    0.3368   29.1800 C.2     1  UNL1       -0.0053
     34 C         -24.5261    0.1307   29.3280 C.2     1  UNL1       -0.0214
     35 C         -29.3747   -0.1593   29.1731 C.3     1  UNL1        0.0027
     36 C         -21.0829    1.2870   27.7201 C.3     1  UNL1        0.0344
     37 C         -30.6730    4.5636   30.4049 C.3     1  UNL1        0.1152
     38 C         -27.7750   -0.1441   28.8209 C.3     1  UNL1        0.0044
     39 C         -27.4687    2.6164   29.4334 C.3     1  UNL1        0.0067
     40 O         -22.9032    1.9295   25.9164 O.2     1  UNL1       -0.2872
     41 C         -31.1121    5.7635   31.2970 C.3     1  UNL1        0.0320
     42 C         -22.4779    1.3194   28.2229 C.2     1  UNL1        0.0164
     43 C         -28.9118    3.2747   29.2354 C.3     1  UNL1        0.0277
     44 C         -25.4726    1.0410   28.7040 C.2     1  UNL1       -0.0266
     45 O         -30.2330    3.4298   31.1598 O.3     1  UNL1       -0.3610
     46 C         -29.4926    4.7800   29.4580 C.3     1  UNL1        0.0319
     47 C         -24.8607    1.3086   27.3666 C.2     1  UNL1        0.0193
@<TRIPOS>BOND
     1     1    34    1
     2     2     7    1
     3     2     1    1
     4     3     2    2
     5     4     3    1
     6     4     5    2
     7     5     6    1
     8     6     7    2
     9     8     1    1
    10     8     9    1
    11     8    12    1
    12     9    10    1
    13    10    11    1
    14    12    11    1
    15    13    47    1
    16    14    13    1
    17    14    15    1
    18    15    18    2
    19    16    17    1
    20    16    15    1
    21    19    14    2
    22    20    21    2
    23    20    19    1
    24    21    26    1
    25    22    21    1
    26    23    22    1
    27    24    23    1
    28    24    25    1
    29    26    27    1
    30    26    13    1
    31    28    44    1
    32    28    39    1
    33    29    47    2
    34    29    42    1
    35    30    45    1
    36    30    31    1
    37    32    35    1
    38    32    30    1
    39    33    34    1
    40    36    42    1
    41    37    45    1
    42    37    41    1
    43    38    35    1
    44    38    28    1
    45    40    29    1
    46    42    33    2
    47    43    39    1
    48    43    46    1
    49    43    30    1
    50    44    34    2
    51    46    37    1
    52    47    44    1
