@<TRIPOS>MOLECULE
outputs/IAG933/test6/raw/output_4480_IAG933_linker_design_.xyz
 43 47 0 0 0
SMALL
GASTEIGER

@<TRIPOS>ATOM
      1 C         -24.8550   -1.0120   30.1430 C.3     1  UNL1        0.0437
      2 C         -24.9730   -2.5050   29.7880 C.2     1  UNL1       -0.0208
      3 C         -23.9060   -3.1730   29.1460 C.2     1  UNL1       -0.0042
      4 C         -23.9890   -4.5490   28.8530 C.2     1  UNL1       -0.0003
      5 C         -25.1370   -5.2800   29.2050 C.2     1  UNL1       -0.0000
      6 C         -26.2320   -4.6110   29.7840 C.2     1  UNL1       -0.0003
      7 C         -26.1550   -3.2320   30.0650 C.2     1  UNL1       -0.0042
      8 C         -25.3870   -0.6790   31.5710 C.3     1  UNL1        0.0772
      9 C         -25.1890    0.7730   32.0280 C.3     1  UNL1        0.0195
     10 C         -25.3360    0.6840   33.5440 C.3     1  UNL1        0.0203
     11 C         -24.8290   -0.7150   33.9050 C.3     1  UNL1        0.0887
     12 N         -24.7580   -1.4810   32.6460 N.3     1  UNL1       -0.2191
     13 C         -25.6880    1.6140   26.4610 C.2     1  UNL1        0.1043
     14 C         -26.2500    2.9200   26.3950 C.2     1  UNL1        0.0927
     15 C         -25.6420    4.0930   27.1230 C.2     1  UNL1        0.2678
     16 N         -25.6140    5.2520   26.4490 N.am    1  UNL1       -0.1997
     17 C         -25.0260    6.4790   26.9630 C.3     1  UNL1        0.1388
     18 O         -25.1430    3.9660   28.2430 O.2     1  UNL1       -0.2683
     19 C         -27.4380    3.0910   25.6450 C.2     1  UNL1        0.1082
     20 N         -28.0750    2.0890   25.0030 N.2     1  UNL1       -0.2080
     21 C         -27.5430    0.8490   25.0790 C.2     1  UNL1        0.2548
     22 O         -28.1930   -0.2080   24.4770 O.2     1  UNL1       -0.4558
     23 C         -29.4600    0.0050   23.8660 C.3     1  UNL1        0.2426
     24 C         -30.0650   -1.3770   23.5730 C.3     1  UNL1        0.2292
     25 O         -30.7290   -1.8780   24.7210 O.3     1  UNL1       -0.2162
     26 C         -26.3540    0.5760   25.7770 C.2     1  UNL1        0.2091
     27 F         -25.8600   -0.6810   25.7950 F       1  UNL1       -0.1977
     28 C         -22.8899    2.5502   25.3067 C.3     1  UNL1        0.0546
     29 C         -25.9272    2.5014   30.1761 C.3     1  UNL1        0.0956
     30 O         -26.9521    6.5383   30.5393 O.3     1  UNL1       -0.3538
     31 C         -24.2258    1.2409   28.4220 C.ar    1  UNL1        0.2233
     32 N         -22.8581    0.8539   28.7307 N.ar    1  UNL1       -0.1842
     33 C         -25.4105    4.8530   31.4157 C.3     1  UNL1        0.0339
     34 C         -25.6994    6.3521   31.2561 C.3     1  UNL1        0.1422
     35 C         -22.2780    1.3247   27.6404 C.ar    1  UNL1        0.2367
     36 C         -26.0785    3.9552   30.3378 C.3     1  UNL1        0.0250
     37 C         -26.2466    1.7286   31.4632 C.3     1  UNL1        0.0231
     38 C         -27.6420    4.0280   30.5999 C.3     1  UNL1        0.0339
     39 C         -23.1960    1.8214   26.5957 C.ar    1  UNL1        0.0901
     40 F         -20.9872    1.3875   27.4838 F       1  UNL1       -0.1819
     41 N         -25.3400    1.6154   29.2262 N.pl3   1  UNL1       -0.2067
     42 N         -24.4969    1.5150   27.0777 N.ar    1  UNL1       -0.2762
     43 C         -27.9994    5.5441   30.8172 C.3     1  UNL1        0.1422
@<TRIPOS>BOND
     1     2     7    1
     2     2     1    1
     3     3     2    2
     4     4     3    1
     5     4     5    2
     6     5     6    1
     7     6     7    2
     8     8     1    1
     9     8     9    1
    10     8    12    1
    11     9    37    1
    12     9    10    1
    13    10    11    1
    14    12    11    1
    15    13    42    1
    16    14    13    1
    17    14    15    1
    18    15    18    2
    19    16    17    1
    20    16    15    1
    21    19    14    2
    22    20    21    2
    23    20    19    1
    24    21    26    1
    25    22    21    1
    26    23    22    1
    27    24    23    1
    28    24    25    1
    29    26    27    1
    30    26    13    2
    31    28    39    1
    32    29    36    1
    33    29    37    1
    34    30    43    1
    35    30    34    1
    36    31    32   ar
    37    31    41    1
    38    34    33    1
    39    35    32   ar
    40    36    38    1
    41    36    33    1
    42    38    43    1
    43    39    42   ar
    44    39    35   ar
    45    40    35    1
    46    41    29    1
    47    42    31   ar
