@<TRIPOS>MOLECULE
outputs/IAG933/test6/raw/output_4481_IAG933_linker_design_.xyz
 43 46 0 0 0
SMALL
GASTEIGER

@<TRIPOS>ATOM
      1 C         -24.8550   -1.0120   30.1430 C.3     1  UNL1        0.1163
      2 C         -24.9730   -2.5050   29.7880 C.2     1  UNL1       -0.0049
      3 C         -23.9060   -3.1730   29.1460 C.2     1  UNL1       -0.0029
      4 C         -23.9890   -4.5490   28.8530 C.2     1  UNL1       -0.0003
      5 C         -25.1370   -5.2800   29.2050 C.2     1  UNL1       -0.0000
      6 C         -26.2320   -4.6110   29.7840 C.2     1  UNL1       -0.0003
      7 C         -26.1550   -3.2320   30.0650 C.2     1  UNL1       -0.0029
      8 C         -25.3870   -0.6790   31.5710 C.3     1  UNL1        0.1200
      9 C         -25.1890    0.7730   32.0280 C.3     1  UNL1        0.1342
     10 C         -25.3360    0.6840   33.5440 C.3     1  UNL1        0.0498
     11 C         -24.8290   -0.7150   33.9050 C.3     1  UNL1        0.0913
     12 N         -24.7580   -1.4810   32.6460 N.3     1  UNL1       -0.2151
     13 C         -25.6880    1.6140   26.4610 C.3     1  UNL1        0.1729
     14 C         -26.2500    2.9200   26.3950 C.2     1  UNL1        0.0772
     15 C         -25.6420    4.0930   27.1230 C.2     1  UNL1        0.2643
     16 N         -25.6140    5.2520   26.4490 N.am    1  UNL1       -0.1999
     17 C         -25.0260    6.4790   26.9630 C.3     1  UNL1        0.1388
     18 O         -25.1430    3.9660   28.2430 O.2     1  UNL1       -0.2686
     19 C         -27.4380    3.0910   25.6450 C.2     1  UNL1        0.1040
     20 N         -28.0750    2.0890   25.0030 N.2     1  UNL1       -0.2117
     21 C         -27.5430    0.8490   25.0790 C.2     1  UNL1        0.2361
     22 O         -28.1930   -0.2080   24.4770 O.2     1  UNL1       -0.4585
     23 C         -29.4600    0.0050   23.8660 C.3     1  UNL1        0.2423
     24 C         -30.0650   -1.3770   23.5730 C.3     1  UNL1        0.2292
     25 O         -30.7290   -1.8780   24.7210 O.3     1  UNL1       -0.2162
     26 C         -26.3540    0.5760   25.7770 C.3     1  UNL1        0.2622
     27 F         -25.8600   -0.6810   25.7950 F       1  UNL1       -0.2247
     28 O         -25.3543    2.1195   31.5246 O.3     1  UNL1       -0.3547
     29 N         -27.0741    4.1424   31.0473 N.3     1  UNL1       -0.1328
     30 C         -23.6294    1.3702   27.6307 C.2     1  UNL1        0.1772
     31 N         -24.1297   -0.1783   29.1695 N.3     1  UNL1       -0.1792
     32 C         -20.9100    1.2527   27.7856 C.2     1  UNL1        0.1828
     33 C         -23.1252    0.7933   28.9696 C.3     1  UNL1        0.2493
     34 C         -25.9062    5.0380   30.9881 C.3     1  UNL1        0.0944
     35 N         -24.8697    1.2104   27.4311 N.2     1  UNL1       -0.2585
     36 C         -24.5108    3.0851   32.1612 C.3     1  UNL1        0.1436
     37 C         -22.8497    1.9697   26.6324 C.2     1  UNL1        0.3633
     38 O         -23.3008    2.5278   25.5565 O.2     1  UNL1       -0.2430
     39 C         -21.6160    0.6834   28.8136 C.2     1  UNL1        0.0669
     40 C         -26.1538    6.2446   31.8884 C.3     1  UNL1        0.0206
     41 O         -23.1127    1.2081   30.2891 O.3     1  UNL1       -0.1964
     42 C         -24.5492    4.3928   31.3935 C.3     1  UNL1        0.0511
     43 O         -21.4998    1.9153   26.7607 O.3     1  UNL1       -0.4172
@<TRIPOS>BOND
     1     1    31    1
     2     2     7    1
     3     2     1    1
     4     3     2    2
     5     4     3    1
     6     4     5    2
     7     5     6    1
     8     6     7    2
     9     8     1    1
    10     8     9    1
    11     8    12    1
    12     9    28    1
    13     9    10    1
    14    10    11    1
    15    12    11    1
    16    13    35    1
    17    14    13    1
    18    14    15    1
    19    15    18    2
    20    16    17    1
    21    16    15    1
    22    19    14    2
    23    20    21    2
    24    20    19    1
    25    21    26    1
    26    22    21    1
    27    23    22    1
    28    24    23    1
    29    24    25    1
    30    26    27    1
    31    26    13    1
    32    28    36    1
    33    30    33    1
    34    32    39    2
    35    33    31    1
    36    33    41    1
    37    34    29    1
    38    34    42    1
    39    34    40    1
    40    35    30    2
    41    37    43    1
    42    37    30    1
    43    38    37    2
    44    39    33    1
    45    42    36    1
    46    43    32    1
