@<TRIPOS>MOLECULE
outputs/IAG933/test6/raw/output_4482_IAG933_linker_design_.xyz
 44 49 0 0 0
SMALL
GASTEIGER

@<TRIPOS>ATOM
      1 C         -24.8550   -1.0120   30.1430 C.3     1  UNL1        0.0425
      2 C         -24.9730   -2.5050   29.7880 C.2     1  UNL1       -0.0208
      3 C         -23.9060   -3.1730   29.1460 C.2     1  UNL1       -0.0042
      4 C         -23.9890   -4.5490   28.8530 C.2     1  UNL1       -0.0003
      5 C         -25.1370   -5.2800   29.2050 C.2     1  UNL1       -0.0000
      6 C         -26.2320   -4.6110   29.7840 C.2     1  UNL1       -0.0003
      7 C         -26.1550   -3.2320   30.0650 C.2     1  UNL1       -0.0042
      8 C         -25.3870   -0.6790   31.5710 C.3     1  UNL1        0.0771
      9 C         -25.1890    0.7730   32.0280 C.3     1  UNL1        0.0192
     10 C         -25.3360    0.6840   33.5440 C.3     1  UNL1        0.0202
     11 C         -24.8290   -0.7150   33.9050 C.3     1  UNL1        0.0887
     12 N         -24.7580   -1.4810   32.6460 N.3     1  UNL1       -0.2191
     13 C         -25.6880    1.6140   26.4610 C.2     1  UNL1        0.0554
     14 C         -26.2500    2.9200   26.3950 C.2     1  UNL1        0.0780
     15 C         -25.6420    4.0930   27.1230 C.2     1  UNL1        0.2665
     16 N         -25.6140    5.2520   26.4490 N.am    1  UNL1       -0.1997
     17 C         -25.0260    6.4790   26.9630 C.3     1  UNL1        0.1388
     18 O         -25.1430    3.9660   28.2430 O.2     1  UNL1       -0.2683
     19 C         -27.4380    3.0910   25.6450 C.2     1  UNL1        0.1068
     20 N         -28.0750    2.0890   25.0030 N.2     1  UNL1       -0.2081
     21 C         -27.5430    0.8490   25.0790 C.2     1  UNL1        0.2533
     22 O         -28.1930   -0.2080   24.4770 O.2     1  UNL1       -0.4558
     23 C         -29.4600    0.0050   23.8660 C.3     1  UNL1        0.2426
     24 C         -30.0650   -1.3770   23.5730 C.3     1  UNL1        0.2292
     25 O         -30.7290   -1.8780   24.7210 O.3     1  UNL1       -0.2162
     26 C         -26.3540    0.5760   25.7770 C.2     1  UNL1        0.1945
     27 F         -25.8600   -0.6810   25.7950 F       1  UNL1       -0.1992
     28 C         -24.6776    1.2962   27.2306 C.2     1  UNL1        0.0799
     29 C         -21.2698    1.7247   27.3811 C.2     1  UNL1        0.1986
     30 C         -28.0694    0.8665   29.5858 C.3     1  UNL1        0.0946
     31 N         -28.6922    2.1013   29.0665 N.pl3   1  UNL1       -0.2676
     32 C         -29.8915    1.9562   28.2370 C.2     1  UNL1        0.1047
     33 C         -22.0967   -0.2709   29.1413 C.2     1  UNL1        0.0420
     34 C         -30.6139    3.3106   28.3078 C.2     1  UNL1        0.1903
     35 O         -20.3682    1.0415   28.0531 O.2     1  UNL1       -0.4457
     36 O         -29.8895    4.1155   29.2064 O.2     1  UNL1       -0.4506
     37 N         -23.4974    1.9201   26.7317 N.2     1  UNL1       -0.2424
     38 C         -23.1300    0.4957   28.4458 C.2     1  UNL1        0.0214
     39 C         -24.6114    0.5027   28.2778 C.2     1  UNL1       -0.0027
     40 C         -25.6109   -0.1897   29.0012 C.3     1  UNL1        0.0309
     41 C         -28.7167    3.4143   29.6234 C.3     1  UNL1        0.3056
     42 C         -22.6686    1.3561   27.5536 C.2     1  UNL1        0.1186
     43 C         -20.6992   -0.1300   28.7357 C.2     1  UNL1        0.1798
     44 C         -27.1639   -0.0493   28.6893 C.3     1  UNL1        0.0263
@<TRIPOS>BOND
     1     1    40    1
     2     2     7    1
     3     2     1    1
     4     3     2    2
     5     4     3    1
     6     4     5    2
     7     5     6    1
     8     6     7    2
     9     8     1    1
    10     8     9    1
    11     8    12    1
    12     9    10    1
    13    10    11    1
    14    12    11    1
    15    13    28    1
    16    14    13    1
    17    14    15    1
    18    15    18    2
    19    16    17    1
    20    16    15    1
    21    19    14    2
    22    20    21    2
    23    20    19    1
    24    21    26    1
    25    22    21    1
    26    23    22    1
    27    24    23    1
    28    24    25    1
    29    26    27    1
    30    26    13    2
    31    28    39    1
    32    29    42    2
    33    29    35    1
    34    31    30    1
    35    31    41    1
    36    32    34    2
    37    32    31    1
    38    34    36    1
    39    35    43    1
    40    36    41    1
    41    37    28    2
    42    37    42    1
    43    38    33    1
    44    39    38    2
    45    39    40    1
    46    40    44    1
    47    42    38    1
    48    43    33    2
    49    44    30    1
