@<TRIPOS>MOLECULE
outputs/IAG933/test6/raw/output_4483_IAG933_linker_design_.xyz
 43 46 0 0 0
SMALL
GASTEIGER

@<TRIPOS>ATOM
      1 C         -24.8550   -1.0120   30.1430 C.3     1  UNL1        0.0650
      2 C         -24.9730   -2.5050   29.7880 C.2     1  UNL1       -0.0189
      3 C         -23.9060   -3.1730   29.1460 C.2     1  UNL1       -0.0042
      4 C         -23.9890   -4.5490   28.8530 C.2     1  UNL1       -0.0003
      5 C         -25.1370   -5.2800   29.2050 C.2     1  UNL1       -0.0000
      6 C         -26.2320   -4.6110   29.7840 C.2     1  UNL1       -0.0003
      7 C         -26.1550   -3.2320   30.0650 C.2     1  UNL1       -0.0042
      8 C         -25.3870   -0.6790   31.5710 C.3     1  UNL1        0.0790
      9 C         -25.1890    0.7730   32.0280 C.3     1  UNL1        0.0193
     10 C         -25.3360    0.6840   33.5440 C.3     1  UNL1        0.0202
     11 C         -24.8290   -0.7150   33.9050 C.3     1  UNL1        0.0887
     12 N         -24.7580   -1.4810   32.6460 N.3     1  UNL1       -0.2191
     13 C         -25.6880    1.6140   26.4610 C.2     1  UNL1        0.0416
     14 C         -26.2500    2.9200   26.3950 C.2     1  UNL1        0.0767
     15 C         -25.6420    4.0930   27.1230 C.2     1  UNL1        0.2664
     16 N         -25.6140    5.2520   26.4490 N.am    1  UNL1       -0.1997
     17 C         -25.0260    6.4790   26.9630 C.3     1  UNL1        0.1388
     18 O         -25.1430    3.9660   28.2430 O.2     1  UNL1       -0.2683
     19 C         -27.4380    3.0910   25.6450 C.2     1  UNL1        0.1067
     20 N         -28.0750    2.0890   25.0030 N.2     1  UNL1       -0.2081
     21 C         -27.5430    0.8490   25.0790 C.2     1  UNL1        0.2533
     22 O         -28.1930   -0.2080   24.4770 O.2     1  UNL1       -0.4558
     23 C         -29.4600    0.0050   23.8660 C.3     1  UNL1        0.2426
     24 C         -30.0650   -1.3770   23.5730 C.3     1  UNL1        0.2292
     25 O         -30.7290   -1.8780   24.7210 O.3     1  UNL1       -0.2162
     26 C         -26.3540    0.5760   25.7770 C.2     1  UNL1        0.1932
     27 F         -25.8600   -0.6810   25.7950 F       1  UNL1       -0.1992
     28 C         -27.7228    0.5949   29.0204 C.2     1  UNL1        0.0670
     29 C         -24.3425    1.3649   26.9177 C.2     1  UNL1        0.0494
     30 C         -29.2571    0.3719   33.0312 C.3     1  UNL1        0.1093
     31 C         -23.1879    1.8446   26.2303 C.2     1  UNL1        0.2222
     32 C         -29.4709   -0.5162   30.4898 C.3     1  UNL1        0.0079
     33 N         -21.9281    1.7010   26.6617 N.2     1  UNL1       -0.2131
     34 C         -22.8252    0.5009   28.5553 C.2     1  UNL1        0.2127
     35 C         -28.7386   -0.5236   31.8625 C.3     1  UNL1        0.0209
     36 F         -23.2705    2.4576   25.0087 F       1  UNL1       -0.1832
     37 C         -24.0935    0.5676   28.1512 C.2     1  UNL1        0.0445
     38 O         -22.4979   -0.0533   29.8122 O.2     1  UNL1       -0.2852
     39 C         -21.7706    0.9266   27.8277 C.2     1  UNL1        0.1429
     40 C         -25.2034    0.0014   28.8810 C.3     1  UNL1        0.1336
     41 C         -28.4955   -0.6479   29.3104 C.3     1  UNL1        0.0466
     42 N         -26.3485    0.6102   28.9502 N.2     1  UNL1       -0.2706
     43 N         -29.7925    1.7444   32.6923 N.3     1  UNL1       -0.1314
@<TRIPOS>BOND
     1     1    40    1
     2     2     7    1
     3     2     1    1
     4     3     2    2
     5     4     3    1
     6     4     5    2
     7     5     6    1
     8     6     7    2
     9     8     1    1
    10     8     9    1
    11     8    12    1
    12     9    10    1
    13    10    11    1
    14    12    11    1
    15    13    29    1
    16    14    13    1
    17    14    15    1
    18    15    18    2
    19    16    17    1
    20    16    15    1
    21    19    14    2
    22    20    21    2
    23    20    19    1
    24    21    26    1
    25    22    21    1
    26    23    22    1
    27    24    23    1
    28    24    25    1
    29    26    27    1
    30    26    13    2
    31    28    41    1
    32    29    37    1
    33    31    33    1
    34    31    29    2
    35    32    35    1
    36    33    39    2
    37    34    38    1
    38    35    30    1
    39    36    31    1
    40    37    34    2
    41    37    40    1
    42    39    34    1
    43    40    42    1
    44    41    32    1
    45    42    28    2
    46    43    30    1
