@<TRIPOS>MOLECULE
outputs/IAG933/test6/raw/output_4484_IAG933_linker_design_.xyz
 40 43 0 0 0
SMALL
GASTEIGER

@<TRIPOS>ATOM
      1 C         -24.8550   -1.0120   30.1430 C.3     1  UNL1        0.0836
      2 C         -24.9730   -2.5050   29.7880 C.2     1  UNL1       -0.0173
      3 C         -23.9060   -3.1730   29.1460 C.2     1  UNL1       -0.0041
      4 C         -23.9890   -4.5490   28.8530 C.2     1  UNL1       -0.0003
      5 C         -25.1370   -5.2800   29.2050 C.2     1  UNL1       -0.0000
      6 C         -26.2320   -4.6110   29.7840 C.2     1  UNL1       -0.0003
      7 C         -26.1550   -3.2320   30.0650 C.2     1  UNL1       -0.0041
      8 C         -25.3870   -0.6790   31.5710 C.3     1  UNL1        0.0806
      9 C         -25.1890    0.7730   32.0280 C.3     1  UNL1        0.0193
     10 C         -25.3360    0.6840   33.5440 C.3     1  UNL1        0.0202
     11 C         -24.8290   -0.7150   33.9050 C.3     1  UNL1        0.0887
     12 N         -24.7580   -1.4810   32.6460 N.3     1  UNL1       -0.2190
     13 C         -25.6880    1.6140   26.4610 C.2     1  UNL1        0.0375
     14 C         -26.2500    2.9200   26.3950 C.2     1  UNL1        0.0763
     15 C         -25.6420    4.0930   27.1230 C.2     1  UNL1        0.2664
     16 N         -25.6140    5.2520   26.4490 N.am    1  UNL1       -0.1997
     17 C         -25.0260    6.4790   26.9630 C.3     1  UNL1        0.1388
     18 O         -25.1430    3.9660   28.2430 O.2     1  UNL1       -0.2683
     19 C         -27.4380    3.0910   25.6450 C.2     1  UNL1        0.1067
     20 N         -28.0750    2.0890   25.0030 N.2     1  UNL1       -0.2081
     21 C         -27.5430    0.8490   25.0790 C.2     1  UNL1        0.2533
     22 O         -28.1930   -0.2080   24.4770 O.2     1  UNL1       -0.4558
     23 C         -29.4600    0.0050   23.8660 C.3     1  UNL1        0.2426
     24 C         -30.0650   -1.3770   23.5730 C.3     1  UNL1        0.2292
     25 O         -30.7290   -1.8780   24.7210 O.3     1  UNL1       -0.2162
     26 C         -26.3540    0.5760   25.7770 C.2     1  UNL1        0.1928
     27 F         -25.8600   -0.6810   25.7950 F       1  UNL1       -0.1992
     28 C         -20.5815   -0.0703   28.5953 C.3     1  UNL1        0.0330
     29 O         -22.4739   -0.6818   29.9420 O.2     1  UNL1       -0.2837
     30 F         -23.1981    2.4928   25.4354 F       1  UNL1       -0.2060
     31 C         -21.9332    1.5344   27.1746 C.3     1  UNL1        0.2316
     32 F         -20.8066    2.0729   26.6904 F       1  UNL1       -0.2253
     33 C         -23.1665    1.8359   26.6245 C.2     1  UNL1        0.1516
     34 C         -24.5259    0.8515   28.4517 C.3     1  UNL1        0.1431
     35 C         -25.3391   -0.1310   28.9750 C.3     1  UNL1        0.2097
     36 O         -26.4229   -0.5550   28.4686 O.3     1  UNL1       -0.2055
     37 C         -22.7396    0.1626   28.9690 C.2     1  UNL1        0.2287
     38 C         -21.7822    0.6469   28.2573 C.2     1  UNL1        0.0366
     39 C         -24.4380    1.3784   27.2453 C.2     1  UNL1        0.0263
     40 N         -25.3132    1.5396   29.3493 N.3     1  UNL1       -0.1836
@<TRIPOS>BOND
     1     1     2    1
     2     2     7    1
     3     3     2    2
     4     4     3    1
     5     4     5    2
     6     5     6    1
     7     6     7    2
     8     8     1    1
     9     8     9    1
    10     8    12    1
    11     9    10    1
    12    10    11    1
    13    12    11    1
    14    13    39    1
    15    14    13    1
    16    14    15    1
    17    15    18    2
    18    16    17    1
    19    16    15    1
    20    19    14    2
    21    20    21    2
    22    20    19    1
    23    21    26    1
    24    22    21    1
    25    23    22    1
    26    24    23    1
    27    24    25    1
    28    26    27    1
    29    26    13    2
    30    30    33    1
    31    31    32    1
    32    31    38    1
    33    33    31    1
    34    33    39    2
    35    34    39    1
    36    34    35    1
    37    34    40    1
    38    35    36    1
    39    35    40    1
    40    35     1    1
    41    37    29    1
    42    38    28    1
    43    38    37    2
