@<TRIPOS>MOLECULE
outputs/IAG933/test6/raw/output_4486_IAG933_linker_design_.xyz
 44 47 0 0 0
SMALL
GASTEIGER

@<TRIPOS>ATOM
      1 C         -24.8550   -1.0120   30.1430 C.3     1  UNL1        0.1141
      2 C         -24.9730   -2.5050   29.7880 C.2     1  UNL1       -0.0089
      3 C         -23.9060   -3.1730   29.1460 C.2     1  UNL1       -0.0033
      4 C         -23.9890   -4.5490   28.8530 C.2     1  UNL1       -0.0003
      5 C         -25.1370   -5.2800   29.2050 C.2     1  UNL1       -0.0000
      6 C         -26.2320   -4.6110   29.7840 C.2     1  UNL1       -0.0003
      7 C         -26.1550   -3.2320   30.0650 C.2     1  UNL1       -0.0033
      8 C         -25.3870   -0.6790   31.5710 C.3     1  UNL1        0.0891
      9 C         -25.1890    0.7730   32.0280 C.3     1  UNL1        0.0201
     10 C         -25.3360    0.6840   33.5440 C.3     1  UNL1        0.0203
     11 C         -24.8290   -0.7150   33.9050 C.3     1  UNL1        0.0887
     12 N         -24.7580   -1.4810   32.6460 N.3     1  UNL1       -0.2182
     13 C         -25.6880    1.6140   26.4610 C.3     1  UNL1        0.0973
     14 C         -26.2500    2.9200   26.3950 C.2     1  UNL1        0.0571
     15 C         -25.6420    4.0930   27.1230 C.2     1  UNL1        0.2625
     16 N         -25.6140    5.2520   26.4490 N.am    1  UNL1       -0.2000
     17 C         -25.0260    6.4790   26.9630 C.3     1  UNL1        0.1388
     18 O         -25.1430    3.9660   28.2430 O.2     1  UNL1       -0.2687
     19 C         -27.4380    3.0910   25.6450 C.2     1  UNL1        0.1022
     20 N         -28.0750    2.0890   25.0030 N.2     1  UNL1       -0.2119
     21 C         -27.5430    0.8490   25.0790 C.2     1  UNL1        0.2342
     22 O         -28.1930   -0.2080   24.4770 O.2     1  UNL1       -0.4585
     23 C         -29.4600    0.0050   23.8660 C.3     1  UNL1        0.2423
     24 C         -30.0650   -1.3770   23.5730 C.3     1  UNL1        0.2292
     25 O         -30.7290   -1.8780   24.7210 O.3     1  UNL1       -0.2162
     26 C         -26.3540    0.5760   25.7770 C.3     1  UNL1        0.2422
     27 F         -25.8600   -0.6810   25.7950 F       1  UNL1       -0.2268
     28 C         -21.2908    1.7298   27.3023 C.3     1  UNL1        0.0174
     29 C         -31.5403    3.0979   30.7593 C.3     1  UNL1        0.1422
     30 C         -24.9846    0.9361   27.6463 C.3     1  UNL1        0.1409
     31 N         -23.5538    0.8970   27.7244 N.3     1  UNL1       -0.2632
     32 C         -30.8205    3.8450   29.6962 C.3     1  UNL1        0.0326
     33 O         -30.8238    2.1254   31.6435 O.3     1  UNL1       -0.3533
     34 C         -27.2811    2.4587   30.1269 C.2     1  UNL1        0.2540
     35 C         -29.8349    2.4677   29.1046 C.3     1  UNL1        0.0143
     36 O         -27.1333   -0.4386   28.6693 O.3     1  UNL1       -0.1506
     37 C         -28.8003    2.2343   30.2329 C.3     1  UNL1        0.1087
     38 N         -26.2487    1.5946   29.7904 N.am    1  UNL1       -0.1377
     39 C         -22.8331    0.5797   28.9962 C.3     1  UNL1        0.0903
     40 C         -22.9723    1.6518   25.3690 C.3     1  UNL1        0.0174
     41 C         -29.3836    2.2958   31.5589 C.3     1  UNL1        0.1512
     42 O         -26.8612    3.4528   30.6837 O.2     1  UNL1       -0.2724
     43 C         -22.7315    1.7502   26.8681 C.3     1  UNL1        0.0584
     44 S         -25.7450    0.1054   29.0663 S.3     1  UNL1        0.0282
@<TRIPOS>BOND
     1     1    44    1
     2     2     7    1
     3     2     1    1
     4     3     2    2
     5     4     3    1
     6     4     5    2
     7     5     6    1
     8     6     7    2
     9     8     1    1
    10     8     9    1
    11     8    12    1
    12     9    10    1
    13    10    11    1
    14    12    11    1
    15    13    30    1
    16    14    13    1
    17    14    15    1
    18    15    18    2
    19    16    17    1
    20    16    15    1
    21    19    14    2
    22    20    21    2
    23    20    19    1
    24    21    26    1
    25    22    21    1
    26    23    22    1
    27    24    23    1
    28    24    25    1
    29    26    27    1
    30    26    13    1
    31    29    33    1
    32    30    31    1
    33    30    44    1
    34    31    39    1
    35    32    29    1
    36    34    42    2
    37    35    32    1
    38    35    37    1
    39    37    34    1
    40    37    41    1
    41    38    34    1
    42    40    43    1
    43    41    33    1
    44    43    28    1
    45    43    31    1
    46    44    36    1
    47    44    38    1
