@<TRIPOS>MOLECULE
No_4488-gen_results/8p0m/2024-11-27-11-27-31/
 35 38 0 0 0
SMALL
GASTEIGER

@<TRIPOS>ATOM
      1 C         -28.0162   -0.8135   28.8779 C.ar    1  UNL1        0.0104
      2 C         -28.4690   -0.7850   29.8287 C.ar    1  UNL1        0.0797
      3 C         -27.0871    0.2903   28.6377 C.ar    1  UNL1        0.0716
      4 C         -26.8317    1.2487   29.5869 C.ar    1  UNL1        0.0039
      5 C         -28.3914    0.0801   31.0065 C.ar    1  UNL1        0.0066
      6 C         -27.4940    1.1521   30.7841 C.ar    1  UNL1        0.0002
      7 C         -26.3109    0.3918   27.3640 C.3     1  UNL1        0.4186
      8 F         -25.5530   -0.4068   27.2285 F       1  UNL1       -0.1659
      9 F         -25.6173    1.6102   27.2977 F       1  UNL1       -0.1659
     10 F         -27.1940    0.4864   26.2871 F       1  UNL1       -0.1659
     11 C         -29.4507   -2.0327   30.2361 C.2     1  UNL1        0.3877
     12 O         -29.8707   -2.0634   31.4332 O.co2   1  UNL1       -0.2406
     13 O         -29.5758   -2.9697   29.4978 O.co2   1  UNL1       -0.2406
     14 C         -27.2611    2.1743   31.8375 C.ar    1  UNL1       -0.0000
     15 C         -26.9030    1.9651   32.8813 C.ar    1  UNL1       -0.0000
     16 C         -26.5971    2.9401   33.9145 C.ar    1  UNL1       -0.0000
     17 C         -27.4147    3.5771   31.3967 C.ar    1  UNL1       -0.0000
     18 C         -27.1737    4.6166   32.2683 C.ar    1  UNL1       -0.0000
     19 C         -26.7229    4.3048   33.5760 C.ar    1  UNL1        0.0000
     20 C         -26.4113    5.3528   34.5605 C.ar    1  UNL1        0.0000
     21 C         -27.1314    6.5098   34.5397 C.ar    1  UNL1        0.0000
     22 C         -26.7469    7.4086   35.3104 C.ar    1  UNL1       -0.0000
     23 C         -25.3426    5.2651   35.4183 C.ar    1  UNL1        0.0000
     24 C         -24.9079    6.1991   36.2452 C.ar    1  UNL1       -0.0000
     25 C         -25.6600    7.3873   36.2668 C.ar    1  UNL1       -0.0000
     26 C         -25.2804    8.4584   37.1952 C.ar    1  UNL1       -0.0000
     27 C         -26.2242    9.2179   37.6423 C.ar    1  UNL1       -0.0001
     28 C         -23.9001    8.5728   37.5168 C.ar    1  UNL1       -0.0001
     29 C         -25.9435   10.1962   38.5269 C.ar    1  UNL1        0.0039
     30 C         -23.5968    9.6152   38.4544 C.ar    1  UNL1        0.0039
     31 C         -24.6213   10.4259   38.9448 C.ar    1  UNL1        0.0714
     32 C         -24.2633   11.4964   39.8968 C.3     1  UNL1        0.4186
     33 F         -25.1456   11.8892   40.5722 F       1  UNL1       -0.1659
     34 F         -23.3062   11.0006   40.7132 F       1  UNL1       -0.1659
     35 F         -23.6884   12.4563   39.1172 F       1  UNL1       -0.1659
@<TRIPOS>BOND
     1     3     7    1
     2     7     8    1
     3     7     9    1
     4     7    10    1
     5     2    11    1
     6    11    12   ar
     7    11    13   ar
     8     6    14    1
     9    19    20    1
    10    25    26    1
    11    31    32    1
    12    32    33    1
    13    32    34    1
    14    32    35    1
    15    26    27   ar
    16    27    29   ar
    17    29    31   ar
    18    31    30   ar
    19    30    28   ar
    20    28    26   ar
    21    20    21   ar
    22    21    22   ar
    23    22    25   ar
    24    25    24   ar
    25    24    23   ar
    26    23    20   ar
    27     1     2   ar
    28     2     5   ar
    29     5     6   ar
    30     6     4   ar
    31     4     3   ar
    32     3     1   ar
    33    14    15   ar
    34    15    16   ar
    35    16    19   ar
    36    19    18   ar
    37    18    17   ar
    38    17    14   ar
