@<TRIPOS>MOLECULE
No_449-gen_results/8p0m/2024-11-27-11-27-31/
 15 17 0 0 0
SMALL
GASTEIGER

@<TRIPOS>ATOM
      1 C         -28.0162   -0.8135   28.8779 C.ar    1  UNL1        0.0042
      2 C         -28.4690   -0.7850   29.8287 C.ar    1  UNL1        0.0497
      3 C         -26.5042   -0.7777   28.8766 C.ar    1  UNL1        0.0001
      4 C         -25.8103   -0.8531   30.1028 C.ar    1  UNL1       -0.0003
      5 C         -27.9906   -0.8916   31.2257 C.ar    1  UNL1       -0.0161
      6 C         -26.6042   -0.8676   31.2652 C.ar    1  UNL1       -0.0041
      7 C         -30.0739   -0.8360   29.8615 C.2     1  UNL1        0.2487
      8 O         -30.5608   -0.4417   28.9417 O.2     1  UNL1       -0.2699
      9 N         -30.7486   -1.4028   30.9473 N.am    1  UNL1       -0.2774
     10 C         -32.1750   -1.4682   30.8889 C.3     1  UNL1        0.0937
     11 C         -32.6810   -2.3081   31.6133 C.3     1  UNL1        0.0216
     12 C         -31.9587   -3.0280   32.6935 C.3     1  UNL1        0.0035
     13 C         -30.5517   -2.9318   32.6822 C.3     1  UNL1        0.0202
     14 C         -29.9425   -2.2353   31.7810 C.3     1  UNL1        0.0800
     15 C         -28.7275   -2.4730   31.5509 C.3     1  UNL1        0.0463
@<TRIPOS>BOND
     1     2     7    1
     2     7     8    2
     3     7     9   am
     4     9    10    1
     5    11    12    1
     6     9    14    1
     7    13    14    1
     8     5    15    1
     9    14    15    1
    10    10    11    1
    11    12    13    1
    12     1     2   ar
    13     2     5   ar
    14     5     6   ar
    15     6     4   ar
    16     4     3   ar
    17     3     1   ar
