@<TRIPOS>MOLECULE
outputs/IAG933/test6/raw/output_4490_IAG933_linker_design_.xyz
 41 45 0 0 0
SMALL
GASTEIGER

@<TRIPOS>ATOM
      1 C         -24.8550   -1.0120   30.1430 C.3     1  UNL1        0.1206
      2 C         -24.9730   -2.5050   29.7880 C.2     1  UNL1       -0.0025
      3 C         -23.9060   -3.1730   29.1460 C.2     1  UNL1       -0.0026
      4 C         -23.9890   -4.5490   28.8530 C.2     1  UNL1       -0.0003
      5 C         -25.1370   -5.2800   29.2050 C.2     1  UNL1       -0.0000
      6 C         -26.2320   -4.6110   29.7840 C.2     1  UNL1       -0.0003
      7 C         -26.1550   -3.2320   30.0650 C.2     1  UNL1       -0.0026
      8 C         -25.3870   -0.6790   31.5710 C.3     1  UNL1        0.0955
      9 C         -25.1890    0.7730   32.0280 C.3     1  UNL1        0.0209
     10 C         -25.3360    0.6840   33.5440 C.3     1  UNL1        0.0203
     11 C         -24.8290   -0.7150   33.9050 C.3     1  UNL1        0.0888
     12 N         -24.7580   -1.4810   32.6460 N.3     1  UNL1       -0.2174
     13 C         -25.6880    1.6140   26.4610 C.2     1  UNL1        0.0298
     14 C         -26.2500    2.9200   26.3950 C.2     1  UNL1        0.0734
     15 C         -25.6420    4.0930   27.1230 C.2     1  UNL1        0.2661
     16 N         -25.6140    5.2520   26.4490 N.am    1  UNL1       -0.1997
     17 C         -25.0260    6.4790   26.9630 C.3     1  UNL1        0.1388
     18 O         -25.1430    3.9660   28.2430 O.2     1  UNL1       -0.2683
     19 C         -27.4380    3.0910   25.6450 C.2     1  UNL1        0.1064
     20 N         -28.0750    2.0890   25.0030 N.2     1  UNL1       -0.2081
     21 C         -27.5430    0.8490   25.0790 C.2     1  UNL1        0.2530
     22 O         -28.1930   -0.2080   24.4770 O.2     1  UNL1       -0.4558
     23 C         -29.4600    0.0050   23.8660 C.3     1  UNL1        0.2426
     24 C         -30.0650   -1.3770   23.5730 C.3     1  UNL1        0.2292
     25 O         -30.7290   -1.8780   24.7210 O.3     1  UNL1       -0.2162
     26 C         -26.3540    0.5760   25.7770 C.2     1  UNL1        0.1899
     27 F         -25.8600   -0.6810   25.7950 F       1  UNL1       -0.1996
     28 O         -20.9875    2.3678   25.8214 O.2     1  UNL1       -0.4259
     29 O         -26.3225   -0.1503   28.3309 O.2     1  UNL1       -0.2737
     30 F         -20.2241    1.9657   27.9734 F       1  UNL1       -0.1836
     31 C         -22.3085    1.4022   27.4267 C.2     1  UNL1        0.0534
     32 C         -25.1753    0.2343   28.3319 C.2     1  UNL1        0.2410
     33 N         -23.3778    2.4221   25.5431 N.2     1  UNL1       -0.2116
     34 C         -23.0265    0.1490   29.6224 C.2     1  UNL1        0.2359
     35 O         -22.5179    0.0964   30.7415 O.2     1  UNL1       -0.2741
     36 C         -23.4254    1.6809   26.7158 C.2     1  UNL1        0.0734
     37 C         -22.2700    0.5492   28.5088 C.3     1  UNL1        0.1152
     38 C         -21.1533    1.9317   27.0389 C.3     1  UNL1        0.3500
     39 N         -24.3243   -0.1612   29.3227 N.am    1  UNL1       -0.2254
     40 C         -22.1134    2.6619   25.1338 C.2     1  UNL1        0.2819
     41 C         -24.6889    1.1749   27.1956 C.3     1  UNL1        0.1414
@<TRIPOS>BOND
     1     1     2    1
     2     2     7    1
     3     3     2    2
     4     4     3    1
     5     4     5    2
     6     5     6    1
     7     6     7    2
     8     8     1    1
     9     8     9    1
    10     8    12    1
    11     9    10    1
    12    10    11    1
    13    12    11    1
    14    14    13    1
    15    14    15    1
    16    15    18    2
    17    16    17    1
    18    16    15    1
    19    19    14    2
    20    20    21    2
    21    20    19    1
    22    21    26    1
    23    22    21    1
    24    23    22    1
    25    24    23    1
    26    24    25    1
    27    26    27    1
    28    26    13    2
    29    28    38    1
    30    29    32    2
    31    31    37    1
    32    32    39   am
    33    33    36    1
    34    34    35    2
    35    36    41    1
    36    36    31    2
    37    37    34    1
    38    38    31    1
    39    38    30    1
    40    39    34   am
    41    39     1    1
    42    40    33    2
    43    40    28    1
    44    41    13    1
    45    41    32    1
