@<TRIPOS>MOLECULE
No_4491-gen_results/8p0m/2024-11-27-11-27-31/
 28 30 0 0 0
SMALL
GASTEIGER

@<TRIPOS>ATOM
      1 C         -28.0162   -0.8135   28.8779 C.ar    1  UNL1       -0.0025
      2 C         -28.4690   -0.7850   29.8287 C.ar    1  UNL1        0.0043
      3 C         -28.1816    0.4277   28.1134 C.ar    1  UNL1       -0.0024
      4 C         -28.9841    1.4155   28.5154 C.ar    1  UNL1       -0.0025
      5 C         -29.3802    0.1384   30.4612 C.ar    1  UNL1        0.0550
      6 C         -29.9932   -0.0234   31.7370 C.2     1  UNL1        0.2648
      7 C         -29.5370    1.2619   29.7119 C.ar    1  UNL1        0.0043
      8 C         -27.3066    0.3141   26.8144 C.3     1  UNL1        0.1178
      9 N         -26.4937    1.4275   26.6685 N.pl3   1  UNL1       -0.3018
     10 C         -25.1627    1.2025   26.5066 C.ar    1  UNL1        0.0478
     11 C         -24.2974    2.4165   26.5116 C.ar    1  UNL1        0.0145
     12 C         -22.9423    2.3365   26.7428 C.ar    1  UNL1        0.0010
     13 C         -22.4079    1.3425   27.6099 C.ar    1  UNL1       -0.0039
     14 C         -23.3082    0.3109   28.0010 C.ar    1  UNL1       -0.0166
     15 C         -24.7025    0.5336   27.9688 C.ar    1  UNL1        0.0106
     16 C         -22.8073   -0.6136   29.0259 C.3     1  UNL1        0.0523
     17 C         -27.0116    2.2890   25.5216 C.3     1  UNL1        0.1125
     18 C         -23.1166   -0.4988   30.3984 C.2     1  UNL1       -0.0214
     19 C         -23.6726    0.6100   30.8813 C.2     1  UNL1       -0.0042
     20 C         -24.2751    0.7011   32.1601 C.ar    1  UNL1       -0.0003
     21 C         -24.2631   -0.4712   32.9093 C.ar    1  UNL1       -0.0000
     22 C         -24.9851   -0.4236   34.1284 C.ar    1  UNL1       -0.0000
     23 C         -25.8782    0.6032   34.4503 C.ar    1  UNL1       -0.0000
     24 C         -25.9466    1.7479   33.5321 C.ar    1  UNL1       -0.0000
     25 C         -25.2331    1.7936   32.3783 C.ar    1  UNL1       -0.0000
     26 N         -30.9563   -0.6172   31.9544 N.am    1  UNL1       -0.1998
     27 C         -31.5292   -0.7996   33.1557 C.3     1  UNL1        0.1388
     28 O         -29.3151    0.5203   32.7480 O.2     1  UNL1       -0.2684
@<TRIPOS>BOND
     1     5     6    1
     2     3     8    1
     3     8     9    1
     4     9    10    1
     5    14    16    1
     6     9    17    1
     7    16    18    1
     8    18    19    2
     9    19    20    1
    10     6    26   am
    11    26    27    1
    12     6    28    2
    13    10    11   ar
    14    11    12   ar
    15    12    13   ar
    16    13    14   ar
    17    14    15   ar
    18    15    10   ar
    19    20    21   ar
    20    21    22   ar
    21    22    23   ar
    22    23    24   ar
    23    24    25   ar
    24    25    20   ar
    25     1     2   ar
    26     2     5   ar
    27     5     7   ar
    28     7     4   ar
    29     4     3   ar
    30     3     1   ar
