@<TRIPOS>MOLECULE
outputs/IAG933/test6/raw/output_4493_IAG933_linker_design_.xyz
 44 48 0 0 0
SMALL
GASTEIGER

@<TRIPOS>ATOM
      1 C         -24.8550   -1.0120   30.1430 C.3     1  UNL1        0.0624
      2 C         -24.9730   -2.5050   29.7880 C.2     1  UNL1       -0.0191
      3 C         -23.9060   -3.1730   29.1460 C.2     1  UNL1       -0.0042
      4 C         -23.9890   -4.5490   28.8530 C.2     1  UNL1       -0.0003
      5 C         -25.1370   -5.2800   29.2050 C.2     1  UNL1       -0.0000
      6 C         -26.2320   -4.6110   29.7840 C.2     1  UNL1       -0.0003
      7 C         -26.1550   -3.2320   30.0650 C.2     1  UNL1       -0.0042
      8 C         -25.3870   -0.6790   31.5710 C.3     1  UNL1        0.0788
      9 C         -25.1890    0.7730   32.0280 C.3     1  UNL1        0.0193
     10 C         -25.3360    0.6840   33.5440 C.3     1  UNL1        0.0202
     11 C         -24.8290   -0.7150   33.9050 C.3     1  UNL1        0.0887
     12 N         -24.7580   -1.4810   32.6460 N.3     1  UNL1       -0.2191
     13 C         -25.6880    1.6140   26.4610 C.2     1  UNL1        0.0520
     14 C         -26.2500    2.9200   26.3950 C.2     1  UNL1        0.0777
     15 C         -25.6420    4.0930   27.1230 C.2     1  UNL1        0.2665
     16 N         -25.6140    5.2520   26.4490 N.am    1  UNL1       -0.1997
     17 C         -25.0260    6.4790   26.9630 C.3     1  UNL1        0.1388
     18 O         -25.1430    3.9660   28.2430 O.2     1  UNL1       -0.2683
     19 C         -27.4380    3.0910   25.6450 C.2     1  UNL1        0.1068
     20 N         -28.0750    2.0890   25.0030 N.2     1  UNL1       -0.2081
     21 C         -27.5430    0.8490   25.0790 C.2     1  UNL1        0.2533
     22 O         -28.1930   -0.2080   24.4770 O.2     1  UNL1       -0.4558
     23 C         -29.4600    0.0050   23.8660 C.3     1  UNL1        0.2426
     24 C         -30.0650   -1.3770   23.5730 C.3     1  UNL1        0.2292
     25 O         -30.7290   -1.8780   24.7210 O.3     1  UNL1       -0.2162
     26 C         -26.3540    0.5760   25.7770 C.2     1  UNL1        0.1942
     27 F         -25.8600   -0.6810   25.7950 F       1  UNL1       -0.1992
     28 O         -28.9765    0.0152   28.5776 O.2     1  UNL1       -0.4662
     29 O         -21.5973    1.8600   25.5000 O.co2   1  UNL1       -0.2404
     30 O         -23.1644    3.2186   25.4097 O.co2   1  UNL1       -0.2404
     31 F         -21.1382    1.0526   27.9265 F       1  UNL1       -0.2028
     32 C         -22.7327    2.1586   25.9527 C.2     1  UNL1        0.3912
     33 C         -26.6235    0.6776   28.6222 C.2     1  UNL1        0.0732
     34 C         -27.6810   -0.1541   28.2073 C.3     1  UNL1        0.2467
     35 N         -22.0456   -0.4627   29.8779 N.pl3   1  UNL1       -0.1287
     36 C         -28.1830    1.6964   30.0462 C.2     1  UNL1        0.0411
     37 C         -27.0388    1.7316   29.2798 C.2     1  UNL1        0.0173
     38 C         -23.3397    1.3968   27.0329 C.2     1  UNL1        0.1218
     39 C         -24.3369   -0.0541   29.1593 C.3     1  UNL1        0.1237
     40 C         -22.4496    0.8186   27.9869 C.2     1  UNL1        0.1618
     41 C         -22.9665    0.0971   28.9964 C.2     1  UNL1        0.1129
     42 C         -24.6880    1.2112   27.2689 C.2     1  UNL1        0.0628
     43 N         -25.1694    0.5973   28.3782 N.pl3   1  UNL1       -0.2829
     44 C         -29.2206    0.8476   29.6456 C.2     1  UNL1        0.1728
@<TRIPOS>BOND
     1     1     2    1
     2     2     7    1
     3     3     2    2
     4     4     3    1
     5     4     5    2
     6     5     6    1
     7     6     7    2
     8     8     1    1
     9     8     9    1
    10     8    12    1
    11     9    10    1
    12    10    11    1
    13    12    11    1
    14    13    42    1
    15    14    13    1
    16    14    15    1
    17    15    18    2
    18    16    17    1
    19    16    15    1
    20    19    14    2
    21    20    21    2
    22    20    19    1
    23    21    26    1
    24    22    21    1
    25    23    22    1
    26    24    23    1
    27    24    25    1
    28    26    27    1
    29    26    13    2
    30    28    44    1
    31    29    32   ar
    32    30    32   ar
    33    31    40    1
    34    32    38    1
    35    33    37    2
    36    34    28    1
    37    34    33    1
    38    37    36    1
    39    38    42    2
    40    38    40    1
    41    39     1    1
    42    40    41    2
    43    41    39    1
    44    41    35    1
    45    42    43    1
    46    43    33    1
    47    43    39    1
    48    44    36    2
