@<TRIPOS>MOLECULE
outputs/IAG933/test6/raw/output_4497_IAG933_linker_design_.xyz
 41 44 0 0 0
SMALL
GASTEIGER

@<TRIPOS>ATOM
      1 C         -24.8550   -1.0120   30.1430 C.3     1  UNL1        0.1985
      2 C         -24.9730   -2.5050   29.7880 C.2     1  UNL1        0.0213
      3 C         -23.9060   -3.1730   29.1460 C.2     1  UNL1       -0.0004
      4 C         -23.9890   -4.5490   28.8530 C.2     1  UNL1       -0.0002
      5 C         -25.1370   -5.2800   29.2050 C.2     1  UNL1       -0.0000
      6 C         -26.2320   -4.6110   29.7840 C.2     1  UNL1       -0.0002
      7 C         -26.1550   -3.2320   30.0650 C.2     1  UNL1       -0.0004
      8 C         -25.3870   -0.6790   31.5710 C.3     1  UNL1        0.1197
      9 C         -25.1890    0.7730   32.0280 C.3     1  UNL1        0.0233
     10 C         -25.3360    0.6840   33.5440 C.3     1  UNL1        0.0204
     11 C         -24.8290   -0.7150   33.9050 C.3     1  UNL1        0.0889
     12 N         -24.7580   -1.4810   32.6460 N.3     1  UNL1       -0.2150
     13 C         -25.6880    1.6140   26.4610 C.2     1  UNL1        0.0592
     14 C         -26.2500    2.9200   26.3950 C.2     1  UNL1        0.0803
     15 C         -25.6420    4.0930   27.1230 C.2     1  UNL1        0.2667
     16 N         -25.6140    5.2520   26.4490 N.am    1  UNL1       -0.1997
     17 C         -25.0260    6.4790   26.9630 C.3     1  UNL1        0.1388
     18 O         -25.1430    3.9660   28.2430 O.2     1  UNL1       -0.2683
     19 C         -27.4380    3.0910   25.6450 C.2     1  UNL1        0.1067
     20 N         -28.0750    2.0890   25.0030 N.2     1  UNL1       -0.2112
     21 C         -27.5430    0.8490   25.0790 C.2     1  UNL1        0.2389
     22 O         -28.1930   -0.2080   24.4770 O.2     1  UNL1       -0.4583
     23 C         -29.4600    0.0050   23.8660 C.3     1  UNL1        0.2423
     24 C         -30.0650   -1.3770   23.5730 C.3     1  UNL1        0.2292
     25 O         -30.7290   -1.8780   24.7210 O.3     1  UNL1       -0.2162
     26 C         -26.3540    0.5760   25.7770 C.3     1  UNL1        0.2653
     27 F         -25.8600   -0.6810   25.7950 F       1  UNL1       -0.2217
     28 N         -24.8056   -0.2405   29.0660 N.pl3   1  UNL1       -0.1863
     29 O         -28.5096    0.0416   28.2742 O.3     1  UNL1       -0.3467
     30 C         -27.2003    0.6094   28.9357 C.3     1  UNL1        0.1929
     31 C         -23.5404    0.9989   27.5738 C.2     1  UNL1        0.1252
     32 C         -23.0866    2.1658   24.7967 C.3     1  UNL1        0.1750
     33 C         -22.3451    1.5006   27.0942 C.3     1  UNL1        0.1776
     34 C         -21.1257    1.0987   27.6741 C.2     1  UNL1        0.0587
     35 C         -26.0426   -0.1656   28.3515 C.3     1  UNL1        0.2347
     36 N         -22.4276   -0.4043   29.1445 N.2     1  UNL1       -0.0361
     37 C         -29.4012   -0.5073   29.1581 C.3     1  UNL1        0.1743
     38 O         -22.2673    2.3232   25.9645 O.3     1  UNL1       -0.3437
     39 C         -23.5983    0.1036   28.6263 C.2     1  UNL1        0.3299
     40 C         -24.5569    1.2258   27.2205 C.1     1  UNL1       -0.0971
     41 C         -21.2548    0.1519   28.7194 C.2     1  UNL1        0.2339
@<TRIPOS>BOND
     1     1    28    1
     2     2     7    1
     3     2     1    1
     4     3     2    2
     5     4     3    1
     6     4     5    2
     7     5     6    1
     8     6     7    2
     9     8     1    1
    10     8     9    1
    11     8    12    1
    12     9    10    1
    13    10    11    1
    14    12    11    1
    15    13    40    2
    16    14    13    1
    17    14    15    1
    18    15    18    2
    19    16    17    1
    20    16    15    1
    21    19    14    2
    22    20    21    2
    23    20    19    1
    24    21    26    1
    25    22    21    1
    26    23    22    1
    27    24    23    1
    28    24    25    1
    29    26    27    1
    30    26    13    1
    31    29    30    1
    32    29    37    1
    33    31    39    1
    34    32    38    1
    35    33    38    1
    36    33    31    1
    37    33    34    1
    38    34    41    2
    39    35    30    1
    40    35    28    1
    41    39    28    1
    42    39    36    2
    43    40    31    2
    44    41    36    1
