@<TRIPOS>MOLECULE
No_4498-gen_results/8p0m/2024-11-27-11-27-31/
 10 10 0 0 0
SMALL
GASTEIGER

@<TRIPOS>ATOM
      1 C         -28.0162   -0.8135   28.8779 C.ar    1  UNL1        0.0039
      2 C         -28.4690   -0.7850   29.8287 C.ar    1  UNL1       -0.0001
      3 C         -28.1816    0.4277   28.1134 C.ar    1  UNL1        0.0714
      4 C         -28.9841    1.4155   28.5154 C.ar    1  UNL1        0.0039
      5 C         -29.3802    0.1384   30.4612 C.ar    1  UNL1       -0.0000
      6 C         -29.5415    1.2736   29.7242 C.ar    1  UNL1       -0.0001
      7 C         -27.5429    0.6374   26.7442 C.3     1  UNL1        0.4186
      8 F         -27.3013    1.7784   26.4722 F       1  UNL1       -0.1659
      9 F         -26.2648   -0.0342   26.8293 F       1  UNL1       -0.1659
     10 F         -28.2154    0.0167   25.7504 F       1  UNL1       -0.1659
@<TRIPOS>BOND
     1     3     7    1
     2     7     8    1
     3     7     9    1
     4     7    10    1
     5     1     2   ar
     6     2     5   ar
     7     5     6   ar
     8     6     4   ar
     9     4     3   ar
    10     3     1   ar
