@<TRIPOS>MOLECULE
No_4499-gen_results/8p0m/2024-11-27-11-27-31/
 30 32 0 0 0
SMALL
GASTEIGER

@<TRIPOS>ATOM
      1 C         -28.0162   -0.8135   28.8779 C.3     1  UNL1        0.0562
      2 C         -27.0636   -0.1189   28.6079 C.ar    1  UNL1        0.0249
      3 C         -25.7647   -0.3897   29.0360 C.ar    1  UNL1        0.1379
      4 C         -24.5517    0.4058   28.7646 C.ar    1  UNL1        0.0342
      5 C         -24.6957    1.4480   27.7988 C.ar    1  UNL1        0.0628
      6 C         -26.0010    1.6784   27.2965 C.ar    1  UNL1        0.0212
      7 C         -27.0736    0.9682   27.6500 C.ar    1  UNL1        0.0692
      8 C         -28.6424   -0.4818   30.1960 C.ar    1  UNL1       -0.0177
      9 C         -28.2929    0.5574   30.7802 C.ar    1  UNL1       -0.0039
     10 C         -28.9636    0.9047   32.1205 C.ar    1  UNL1       -0.0003
     11 C         -23.5103    2.2027   27.4478 C.2     1  UNL1        0.2969
     12 N         -22.4943    1.9234   26.9161 N.2     1  UNL1       -0.1025
     13 C         -29.8977    0.0144   32.5986 C.ar    1  UNL1       -0.0000
     14 C         -29.6443   -1.3932   30.7839 C.ar    1  UNL1       -0.0039
     15 C         -30.2355   -1.1289   31.9623 C.ar    1  UNL1       -0.0003
     16 O         -23.7098    3.5527   27.5874 O.2     1  UNL1       -0.2636
     17 F         -25.4827   -1.2976   29.9442 F       1  UNL1       -0.2044
     18 N         -28.2791    1.3382   27.0698 N.pl3   1  UNL1       -0.2117
     19 C         -28.5120    1.9456   26.0018 C.2     1  UNL1        0.0814
     20 C         -29.7737    2.1581   25.5689 C.2     1  UNL1       -0.0036
     21 C         -30.5464    2.8226   26.2486 C.3     1  UNL1        0.0537
     22 C         -30.1363    3.4351   27.4105 C.ar    1  UNL1       -0.0175
     23 C         -31.1543    3.7188   28.3700 C.ar    1  UNL1       -0.0039
     24 C         -30.8263    4.1443   29.7166 C.ar    1  UNL1       -0.0001
     25 C         -29.4746    4.4609   29.9803 C.ar    1  UNL1        0.0066
     26 C         -28.5116    4.2656   29.0132 C.ar    1  UNL1        0.0795
     27 C         -28.8539    3.7368   27.7858 C.ar    1  UNL1        0.0026
     28 C         -27.1103    4.5778   29.4119 C.2     1  UNL1        0.3877
     29 O         -26.3867    5.1270   28.5275 O.co2   1  UNL1       -0.2406
     30 O         -26.7323    4.6228   30.6706 O.co2   1  UNL1       -0.2406
@<TRIPOS>BOND
     1     1     8    1
     2     5    11    1
     3    11    12    2
     4    11    16    1
     5     3    17    1
     6     7    18    1
     7    18    19    1
     8    19    20    2
     9    20    21    1
    10    21    22    1
    11    26    28    1
    12    28    29   ar
    13    28    30   ar
    14     1     2    1
    15     2     3   ar
    16     3     4   ar
    17     4     5   ar
    18     5     6   ar
    19     6     7   ar
    20     7     2   ar
    21    22    23   ar
    22    23    24   ar
    23    24    25   ar
    24    25    26   ar
    25    26    27   ar
    26    27    22   ar
    27     8     9   ar
    28     9    10   ar
    29    10    13   ar
    30    13    15   ar
    31    15    14   ar
    32    14     8   ar
