@<TRIPOS>MOLECULE
outputs/IAG933/test6/raw/output_4500_IAG933_linker_design_.xyz
 45 49 0 0 0
SMALL
GASTEIGER

@<TRIPOS>ATOM
      1 C         -24.8550   -1.0120   30.1430 C.3     1  UNL1        0.0965
      2 C         -24.9730   -2.5050   29.7880 C.2     1  UNL1       -0.0064
      3 C         -23.9060   -3.1730   29.1460 C.2     1  UNL1       -0.0029
      4 C         -23.9890   -4.5490   28.8530 C.2     1  UNL1       -0.0003
      5 C         -25.1370   -5.2800   29.2050 C.2     1  UNL1       -0.0000
      6 C         -26.2320   -4.6110   29.7840 C.2     1  UNL1       -0.0003
      7 C         -26.1550   -3.2320   30.0650 C.2     1  UNL1       -0.0029
      8 C         -25.3870   -0.6790   31.5710 C.3     1  UNL1        0.0916
      9 C         -25.1890    0.7730   32.0280 C.3     1  UNL1        0.0206
     10 C         -25.3360    0.6840   33.5440 C.3     1  UNL1        0.0203
     11 C         -24.8290   -0.7150   33.9050 C.3     1  UNL1        0.0888
     12 N         -24.7580   -1.4810   32.6460 N.3     1  UNL1       -0.2178
     13 C         -25.6880    1.6140   26.4610 C.3     1  UNL1        0.0921
     14 C         -26.2500    2.9200   26.3950 C.2     1  UNL1        0.0589
     15 C         -25.6420    4.0930   27.1230 C.2     1  UNL1        0.2628
     16 N         -25.6140    5.2520   26.4490 N.am    1  UNL1       -0.2000
     17 C         -25.0260    6.4790   26.9630 C.3     1  UNL1        0.1388
     18 O         -25.1430    3.9660   28.2430 O.2     1  UNL1       -0.2686
     19 C         -27.4380    3.0910   25.6450 C.2     1  UNL1        0.1025
     20 N         -28.0750    2.0890   25.0030 N.2     1  UNL1       -0.2118
     21 C         -27.5430    0.8490   25.0790 C.2     1  UNL1        0.2344
     22 O         -28.1930   -0.2080   24.4770 O.2     1  UNL1       -0.4585
     23 C         -29.4600    0.0050   23.8660 C.3     1  UNL1        0.2423
     24 C         -30.0650   -1.3770   23.5730 C.3     1  UNL1        0.2292
     25 O         -30.7290   -1.8780   24.7210 O.3     1  UNL1       -0.2162
     26 C         -26.3540    0.5760   25.7770 C.3     1  UNL1        0.2440
     27 F         -25.8600   -0.6810   25.7950 F       1  UNL1       -0.2265
     28 C         -24.1243    1.4967   26.6958 C.2     1  UNL1       -0.0177
     29 N         -29.4949    0.4126   31.0226 N.3     1  UNL1       -0.2703
     30 C         -23.3118    1.8806   25.5622 C.2     1  UNL1       -0.0041
     31 C         -21.9098    1.9617   25.6317 C.2     1  UNL1       -0.0003
     32 C         -28.9712   -0.0744   28.7451 C.3     1  UNL1        0.0188
     33 C         -21.8744    1.0616   27.8894 C.2     1  UNL1       -0.0032
     34 C         -27.4664   -0.4319   28.5468 C.3     1  UNL1        0.0188
     35 C         -29.8211    1.0817   32.2529 C.3     1  UNL1        0.1078
     36 N         -24.9628   -0.1490   29.0300 N.3     1  UNL1       -0.2654
     37 C         -26.2426    0.4674   28.7624 C.3     1  UNL1        0.0727
     38 C         -23.9582    0.9291   29.2346 C.3     1  UNL1        0.0991
     39 C         -29.4058   -1.0389   31.1677 C.3     1  UNL1        0.0750
     40 C         -21.1634    1.5461   26.7658 C.2     1  UNL1       -0.0003
     41 C         -23.2994    1.0999   27.9015 C.2     1  UNL1       -0.0097
     42 C         -29.2802   -1.1077   32.6748 C.3     1  UNL1        0.0540
     43 C         -29.0579    1.0267   29.7871 C.3     1  UNL1        0.0722
     44 C         -29.0291    0.2774   33.2426 C.3     1  UNL1        0.1782
     45 F         -29.5137    0.3839   34.5207 F       1  UNL1       -0.2357
@<TRIPOS>BOND
     1     1    36    1
     2     2     7    1
     3     2     1    1
     4     3     2    2
     5     4     3    1
     6     4     5    2
     7     5     6    1
     8     6     7    2
     9     8     1    1
    10     8     9    1
    11     8    12    1
    12     9    10    1
    13    10    11    1
    14    12    11    1
    15    13    28    1
    16    14    13    1
    17    14    15    1
    18    15    18    2
    19    16    17    1
    20    16    15    1
    21    19    14    2
    22    20    21    2
    23    20    19    1
    24    21    26    1
    25    22    21    1
    26    23    22    1
    27    24    23    1
    28    24    25    1
    29    26    27    1
    30    26    13    1
    31    28    41    1
    32    29    39    1
    33    29    35    1
    34    30    31    1
    35    30    28    2
    36    31    40    2
    37    32    43    1
    38    33    41    2
    39    34    32    1
    40    34    37    1
    41    35    44    1
    42    36    38    1
    43    37    36    1
    44    39    42    1
    45    40    33    1
    46    41    38    1
    47    42    44    1
    48    43    29    1
    49    44    45    1
