@<TRIPOS>MOLECULE
No_4505-gen_results/8p0m/2024-11-27-11-27-31/
 14 14 0 0 0
SMALL
GASTEIGER

@<TRIPOS>ATOM
      1 O         -28.1229   -1.3353   28.4874 O.2     1  UNL1       -0.2642
      2 C         -27.4806   -0.4044   28.7094 C.2     1  UNL1        0.3370
      3 C         -26.3804   -0.0867   27.9394 C.3     1  UNL1        0.4711
      4 N         -27.8993    0.6459   29.6320 N.am    1  UNL1       -0.1935
      5 F         -26.5626    0.2805   26.8037 F       1  UNL1       -0.1620
      6 F         -25.5582    0.9618   28.5102 F       1  UNL1       -0.1620
      7 F         -25.3175   -0.9252   28.2883 F       1  UNL1       -0.1620
      8 C         -29.0688    0.3902   30.4346 C.3     1  UNL1        0.1417
      9 C         -30.2555    0.3971   29.7639 C.ar    1  UNL1       -0.0006
     10 C         -31.1249    1.1448   30.3997 C.ar    1  UNL1       -0.0026
     11 C         -32.3528    1.4969   29.7387 C.ar    1  UNL1       -0.0003
     12 C         -32.6050    0.8652   28.4889 C.ar    1  UNL1       -0.0000
     13 C         -31.6600    0.0422   27.8896 C.ar    1  UNL1       -0.0003
     14 C         -30.4870   -0.1067   28.5053 C.ar    1  UNL1       -0.0026
@<TRIPOS>BOND
     1     1     2    2
     2     2     3    1
     3     2     4   am
     4     3     5    1
     5     3     6    1
     6     3     7    1
     7     4     8    1
     8     8     9    1
     9     9    10   ar
    10    10    11   ar
    11    11    12   ar
    12    12    13   ar
    13    13    14   ar
    14    14     9   ar
