@<TRIPOS>MOLECULE
outputs/IAG933/test6/raw/output_4506_IAG933_linker_design_.xyz
 45 48 0 0 0
SMALL
GASTEIGER

@<TRIPOS>ATOM
      1 C         -24.8550   -1.0120   30.1430 C.3     1  UNL1        0.0462
      2 C         -24.9730   -2.5050   29.7880 C.2     1  UNL1       -0.0207
      3 C         -23.9060   -3.1730   29.1460 C.2     1  UNL1       -0.0042
      4 C         -23.9890   -4.5490   28.8530 C.2     1  UNL1       -0.0003
      5 C         -25.1370   -5.2800   29.2050 C.2     1  UNL1       -0.0000
      6 C         -26.2320   -4.6110   29.7840 C.2     1  UNL1       -0.0003
      7 C         -26.1550   -3.2320   30.0650 C.2     1  UNL1       -0.0042
      8 C         -25.3870   -0.6790   31.5710 C.3     1  UNL1        0.1042
      9 C         -25.1890    0.7730   32.0280 C.3     1  UNL1        0.1335
     10 C         -25.3360    0.6840   33.5440 C.3     1  UNL1        0.0498
     11 C         -24.8290   -0.7150   33.9050 C.3     1  UNL1        0.0913
     12 N         -24.7580   -1.4810   32.6460 N.3     1  UNL1       -0.2166
     13 C         -25.6880    1.6140   26.4610 C.2     1  UNL1        0.0407
     14 C         -26.2500    2.9200   26.3950 C.2     1  UNL1        0.0744
     15 C         -25.6420    4.0930   27.1230 C.2     1  UNL1        0.2222
     16 N         -25.6140    5.2520   26.4490 N.2     1  UNL1       -0.2356
     17 C         -25.0260    6.4790   26.9630 C.3     1  UNL1        0.1550
     18 O         -25.1430    3.9660   28.2430 O.2     1  UNL1       -0.4565
     19 C         -27.4380    3.0910   25.6450 C.2     1  UNL1        0.1068
     20 N         -28.0750    2.0890   25.0030 N.2     1  UNL1       -0.2081
     21 C         -27.5430    0.8490   25.0790 C.2     1  UNL1        0.2533
     22 O         -28.1930   -0.2080   24.4770 O.2     1  UNL1       -0.4558
     23 C         -29.4600    0.0050   23.8660 C.3     1  UNL1        0.2426
     24 C         -30.0650   -1.3770   23.5730 C.3     1  UNL1        0.2292
     25 O         -30.7290   -1.8780   24.7210 O.3     1  UNL1       -0.2162
     26 C         -26.3540    0.5760   25.7770 C.2     1  UNL1        0.1931
     27 F         -25.8600   -0.6810   25.7950 F       1  UNL1       -0.1992
     28 O         -26.8526    4.6647   30.0386 O.2     1  UNL1       -0.2837
     29 C         -26.4945    4.0137   32.3839 C.2     1  UNL1        0.3034
     30 N         -26.3732    5.1771   33.1407 N.am    1  UNL1       -0.1845
     31 C         -25.3802    2.8540   30.4094 C.3     1  UNL1        0.2253
     32 C         -25.5148    6.4136   33.2234 C.3     1  UNL1        0.1547
     33 C         -24.0472    6.0149   33.4215 C.3     1  UNL1        0.0413
     34 O         -25.1852    1.6496   31.0629 O.3     1  UNL1       -0.3456
     35 C         -24.7551    3.0092   29.1180 C.3     1  UNL1        0.2243
     36 N         -25.6838    7.2303   32.0624 N.3     1  UNL1       -0.1123
     37 C         -26.0549    7.1566   34.4501 C.3     1  UNL1        0.0413
     38 C         -23.6116    2.2060   28.5896 C.2     1  UNL1        0.0201
     39 C         -21.6294    0.7485   28.5357 C.2     1  UNL1       -0.0002
     40 C         -23.3115    2.6451   27.3031 C.2     1  UNL1       -0.0007
     41 C         -21.3112    1.2753   27.2662 C.2     1  UNL1       -0.0000
     42 C         -22.7668    1.1946   29.1757 C.2     1  UNL1       -0.0007
     43 C         -26.3033    3.9848   30.9395 C.2     1  UNL1        0.2583
     44 C         -22.1809    2.1798   26.6492 C.2     1  UNL1       -0.0002
     45 O         -26.7932    2.9742   32.9789 O.2     1  UNL1       -0.2651
@<TRIPOS>BOND
     1     2     7    1
     2     2     1    1
     3     3     2    2
     4     4     3    1
     5     4     5    2
     6     5     6    1
     7     6     7    2
     8     8     1    1
     9     8     9    1
    10     8    12    1
    11     9    34    1
    12     9    10    1
    13    10    11    1
    14    12    11    1
    15    14    13    1
    16    14    15    1
    17    15    18    1
    18    16    17    1
    19    16    15    2
    20    19    14    2
    21    20    21    2
    22    20    19    1
    23    21    26    1
    24    22    21    1
    25    23    22    1
    26    24    23    1
    27    24    25    1
    28    26    27    1
    29    26    13    2
    30    28    43    2
    31    29    45    2
    32    29    30    1
    33    30    32    1
    34    31    43    1
    35    31    34    1
    36    32    33    1
    37    32    37    1
    38    35    18    1
    39    35    31    1
    40    36    32    1
    41    38    35    1
    42    38    42    1
    43    39    42    2
    44    40    38    2
    45    41    39    1
    46    43    29    1
    47    44    41    2
    48    44    40    1
