@<TRIPOS>MOLECULE
No_4508-gen_results/8p0m/2024-11-27-11-27-31/
 23 26 0 0 0
SMALL
GASTEIGER

@<TRIPOS>ATOM
      1 C         -28.0162   -0.8135   28.8779 C.ar    1  UNL1        0.0407
      2 C         -27.0636   -0.1190   28.6079 C.ar    1  UNL1        0.0030
      3 C         -25.7647   -0.3897   29.0360 C.ar    1  UNL1        0.0002
      4 C         -24.5516    0.4058   28.7646 C.ar    1  UNL1        0.0022
      5 C         -23.2300    0.1178   29.2575 C.ar    1  UNL1        0.0001
      6 C         -22.1393    0.9427   28.9224 C.ar    1  UNL1        0.0023
      7 C         -27.8294   -1.9287   29.8545 C.ar    1  UNL1        0.0564
      8 C         -26.5882   -2.3272   30.2682 C.ar    1  UNL1        0.0046
      9 C         -25.4565   -1.5432   29.9146 C.ar    1  UNL1        0.0001
     10 C         -22.2302    1.9089   27.8723 C.ar    1  UNL1        0.0296
     11 C         -24.5538    1.4700   27.7617 C.ar    1  UNL1        0.0296
     12 C         -23.4471    2.1666   27.3764 C.ar    1  UNL1        0.1401
     13 C         -28.9822   -2.7749   30.2590 C.2     1  UNL1        0.2494
     14 N         -30.1446   -2.2898   30.2916 N.am    1  UNL1       -0.2707
     15 O         -28.7791   -3.9553   30.6772 O.2     1  UNL1       -0.2699
     16 C         -31.3329   -3.0662   30.6758 C.3     1  UNL1        0.0941
     17 C         -32.3963   -2.7237   30.0607 C.3     1  UNL1        0.0216
     18 C         -32.4066   -1.6411   29.4640 C.3     1  UNL1        0.0039
     19 C         -31.4036   -0.7648   29.0905 C.3     1  UNL1        0.0278
     20 C         -30.3187   -1.1821   29.4687 C.3     1  UNL1        0.1373
     21 C         -29.1451   -0.5430   28.9618 C.2     1  UNL1        0.1910
     22 O         -29.4798    0.6411   28.2514 O.2     1  UNL1       -0.2896
     23 F         -23.6159    3.0724   26.4223 F       1  UNL1       -0.2042
@<TRIPOS>BOND
     1     3     4    1
     2     7    13    1
     3    13    14   am
     4    13    15    2
     5    14    16    1
     6    16    17    1
     7    18    19    1
     8    14    20    1
     9     1    21    1
    10    20    21    1
    11    21    22    2
    12    12    23    1
    13    17    18    1
    14    19    20    1
    15     1     2   ar
    16     2     3   ar
    17     3     9   ar
    18     9     8   ar
    19     8     7   ar
    20     7     1   ar
    21     4     5   ar
    22     5     6   ar
    23     6    10   ar
    24    10    12   ar
    25    12    11   ar
    26    11     4   ar
