@<TRIPOS>MOLECULE
outputs/IAG933/test6/raw/output_4509_IAG933_linker_design_.xyz
 43 47 0 0 0
SMALL
GASTEIGER

@<TRIPOS>ATOM
      1 C         -24.8550   -1.0120   30.1430 C.3     1  UNL1        0.0975
      2 C         -24.9730   -2.5050   29.7880 C.2     1  UNL1       -0.0141
      3 C         -23.9060   -3.1730   29.1460 C.2     1  UNL1       -0.0038
      4 C         -23.9890   -4.5490   28.8530 C.2     1  UNL1       -0.0003
      5 C         -25.1370   -5.2800   29.2050 C.2     1  UNL1       -0.0000
      6 C         -26.2320   -4.6110   29.7840 C.2     1  UNL1       -0.0003
      7 C         -26.1550   -3.2320   30.0650 C.2     1  UNL1       -0.0038
      8 C         -25.3870   -0.6790   31.5710 C.3     1  UNL1        0.0838
      9 C         -25.1890    0.7730   32.0280 C.3     1  UNL1        0.0196
     10 C         -25.3360    0.6840   33.5440 C.3     1  UNL1        0.0203
     11 C         -24.8290   -0.7150   33.9050 C.3     1  UNL1        0.0887
     12 N         -24.7580   -1.4810   32.6460 N.3     1  UNL1       -0.2187
     13 C         -25.6880    1.6140   26.4610 C.3     1  UNL1        0.0922
     14 C         -26.2500    2.9200   26.3950 C.2     1  UNL1        0.0568
     15 C         -25.6420    4.0930   27.1230 C.2     1  UNL1        0.2219
     16 N         -25.6140    5.2520   26.4490 N.2     1  UNL1       -0.2358
     17 C         -25.0260    6.4790   26.9630 C.3     1  UNL1        0.1550
     18 O         -25.1430    3.9660   28.2430 O.2     1  UNL1       -0.4206
     19 C         -27.4380    3.0910   25.6450 C.2     1  UNL1        0.1025
     20 N         -28.0750    2.0890   25.0030 N.2     1  UNL1       -0.2118
     21 C         -27.5430    0.8490   25.0790 C.2     1  UNL1        0.2344
     22 O         -28.1930   -0.2080   24.4770 O.2     1  UNL1       -0.4585
     23 C         -29.4600    0.0050   23.8660 C.3     1  UNL1        0.2423
     24 C         -30.0650   -1.3770   23.5730 C.3     1  UNL1        0.2292
     25 O         -30.7290   -1.8780   24.7210 O.3     1  UNL1       -0.2162
     26 C         -26.3540    0.5760   25.7770 C.3     1  UNL1        0.2440
     27 F         -25.8600   -0.6810   25.7950 F       1  UNL1       -0.2265
     28 C         -24.2354    1.6607   26.5995 C.2     1  UNL1       -0.0151
     29 C         -21.8415    1.8307   26.0696 C.2     1  UNL1        0.0020
     30 C         -25.6220   -0.1346   29.1707 C.2     1  UNL1        0.1757
     31 O         -25.4584    5.0721   31.3641 O.2     1  UNL1       -0.2632
     32 O         -26.6146   -0.4180   28.5779 O.2     1  UNL1       -0.2939
     33 N         -25.1752    2.3394   29.8071 N.3     1  UNL1       -0.1378
     34 C         -21.5192    1.4880   27.3986 C.2     1  UNL1        0.0293
     35 N         -26.6901    5.9272   29.7818 N.am    1  UNL1       -0.0810
     36 O         -27.3401    3.7265   29.4557 O.3     1  UNL1       -0.1541
     37 C         -22.5695    1.2323   28.2828 C.2     1  UNL1        0.1375
     38 C         -24.9863    1.2021   28.8705 C.3     1  UNL1        0.1606
     39 C         -23.9306    1.4008   27.9308 C.2     1  UNL1        0.0247
     40 C         -25.9858    3.5722   29.3788 C.3     1  UNL1        0.4010
     41 C         -23.1879    1.9360   25.6384 C.2     1  UNL1       -0.0040
     42 C         -26.0637    4.8700   30.2702 C.2     1  UNL1        0.3452
     43 F         -22.3034    0.6589   29.4503 F       1  UNL1       -0.2045
@<TRIPOS>BOND
     1     1    30    1
     2     2     7    1
     3     2     1    1
     4     3     2    2
     5     4     3    1
     6     4     5    2
     7     5     6    1
     8     6     7    2
     9     8     1    1
    10     8     9    1
    11     8    12    1
    12     9    10    1
    13    10    11    1
    14    12    11    1
    15    13    14    1
    16    13    28    1
    17    14    15    1
    18    15    18    1
    19    16    17    1
    20    16    15    2
    21    18    40    1
    22    19    14    2
    23    20    21    2
    24    20    19    1
    25    21    26    1
    26    22    21    1
    27    23    22    1
    28    24    23    1
    29    24    25    1
    30    26    27    1
    31    26    13    1
    32    28    39    1
    33    29    34    2
    34    32    30    2
    35    34    37    1
    36    35    42    1
    37    37    43    1
    38    38    30    1
    39    38    33    1
    40    39    37    2
    41    39    38    1
    42    40    36    1
    43    40    33    1
    44    40    42    1
    45    41    29    1
    46    41    28    2
    47    42    31    2
