@<TRIPOS>MOLECULE
outputs/IAG933/test6/raw/output_4510_IAG933_linker_design_.xyz
 44 47 0 0 0
SMALL
GASTEIGER

@<TRIPOS>ATOM
      1 C         -24.8550   -1.0120   30.1430 C.3     1  UNL1        0.0994
      2 C         -24.9730   -2.5050   29.7880 C.2     1  UNL1       -0.0063
      3 C         -23.9060   -3.1730   29.1460 C.2     1  UNL1       -0.0029
      4 C         -23.9890   -4.5490   28.8530 C.2     1  UNL1       -0.0003
      5 C         -25.1370   -5.2800   29.2050 C.2     1  UNL1       -0.0000
      6 C         -26.2320   -4.6110   29.7840 C.2     1  UNL1       -0.0003
      7 C         -26.1550   -3.2320   30.0650 C.2     1  UNL1       -0.0029
      8 C         -25.3870   -0.6790   31.5710 C.3     1  UNL1        0.0917
      9 C         -25.1890    0.7730   32.0280 C.3     1  UNL1        0.0206
     10 C         -25.3360    0.6840   33.5440 C.3     1  UNL1        0.0203
     11 C         -24.8290   -0.7150   33.9050 C.3     1  UNL1        0.0888
     12 N         -24.7580   -1.4810   32.6460 N.3     1  UNL1       -0.2178
     13 C         -25.6880    1.6140   26.4610 C.2     1  UNL1        0.1781
     14 C         -26.2500    2.9200   26.3950 C.2     1  UNL1        0.1106
     15 C         -25.6420    4.0930   27.1230 C.2     1  UNL1        0.2694
     16 N         -25.6140    5.2520   26.4490 N.am    1  UNL1       -0.1996
     17 C         -25.0260    6.4790   26.9630 C.3     1  UNL1        0.1388
     18 O         -25.1430    3.9660   28.2430 O.2     1  UNL1       -0.2682
     19 C         -27.4380    3.0910   25.6450 C.2     1  UNL1        0.1098
     20 N         -28.0750    2.0890   25.0030 N.2     1  UNL1       -0.2079
     21 C         -27.5430    0.8490   25.0790 C.2     1  UNL1        0.2564
     22 O         -28.1930   -0.2080   24.4770 O.2     1  UNL1       -0.4558
     23 C         -29.4600    0.0050   23.8660 C.3     1  UNL1        0.2426
     24 C         -30.0650   -1.3770   23.5730 C.3     1  UNL1        0.2292
     25 O         -30.7290   -1.8780   24.7210 O.3     1  UNL1       -0.2162
     26 C         -26.3540    0.5760   25.7770 C.2     1  UNL1        0.2267
     27 F         -25.8600   -0.6810   25.7950 F       1  UNL1       -0.1960
     28 C         -28.9403    1.4903   32.3847 C.3     1  UNL1        0.2525
     29 C         -21.3585    1.4905   27.5066 C.3     1  UNL1        0.1743
     30 O         -28.4156    0.8757   31.2279 O.2     1  UNL1       -0.4717
     31 O         -24.6019    1.2828   27.2308 O.2     1  UNL1       -0.4583
     32 C         -29.4761    0.6988   27.7632 C.2     1  UNL1        0.0370
     33 C         -30.6076    1.5575   27.8938 C.2     1  UNL1        0.1387
     34 C         -23.2246    0.5730   28.9026 C.3     1  UNL1        0.2033
     35 O         -22.5126    1.6574   28.2959 O.3     1  UNL1       -0.3457
     36 C         -32.4131    0.1780   27.1652 C.3     1  UNL1        0.2525
     37 C         -28.9192    1.3434   30.0858 C.2     1  UNL1        0.1362
     38 C         -30.7231    2.5068   28.9479 C.2     1  UNL1        0.0400
     39 C         -27.2280   -0.2825   28.6922 C.3     1  UNL1        0.1054
     40 C         -28.5585    0.6214   28.8012 C.2     1  UNL1        0.0310
     41 N         -25.7072   -0.1764   29.2367 N.3     1  UNL1       -0.2300
     42 C         -24.7023    0.7436   28.6020 C.3     1  UNL1        0.2586
     43 C         -29.8593    2.3787   30.0162 C.2     1  UNL1        0.0397
     44 O         -31.6605    1.4376   26.9471 O.2     1  UNL1       -0.4714
@<TRIPOS>BOND
     1     1    41    1
     2     2     7    1
     3     2     1    1
     4     3     2    2
     5     4     3    1
     6     4     5    2
     7     5     6    1
     8     6     7    2
     9     8     1    1
    10     8     9    1
    11     8    12    1
    12     9    10    1
    13    10    11    1
    14    12    11    1
    15    13    31    1
    16    14    13    1
    17    14    15    1
    18    15    18    2
    19    16    17    1
    20    16    15    1
    21    19    14    2
    22    20    21    2
    23    20    19    1
    24    21    26    1
    25    22    21    1
    26    23    22    1
    27    24    23    1
    28    24    25    1
    29    26    27    1
    30    26    13    2
    31    29    35    1
    32    30    28    1
    33    31    42    1
    34    32    33    2
    35    32    40    1
    36    33    38    1
    37    35    34    1
    38    37    30    1
    39    38    43    2
    40    39    40    1
    41    39    41    1
    42    40    37    2
    43    42    34    1
    44    42    41    1
    45    43    37    1
    46    44    36    1
    47    44    33    1
