@<TRIPOS>MOLECULE
outputs/IAG933/test6/raw/output_4513_IAG933_linker_design_.xyz
 46 49 0 0 0
SMALL
GASTEIGER

@<TRIPOS>ATOM
      1 C         -24.8550   -1.0120   30.1430 C.3     1  UNL1        0.1158
      2 C         -24.9730   -2.5050   29.7880 C.2     1  UNL1       -0.0027
      3 C         -23.9060   -3.1730   29.1460 C.2     1  UNL1       -0.0026
      4 C         -23.9890   -4.5490   28.8530 C.2     1  UNL1       -0.0003
      5 C         -25.1370   -5.2800   29.2050 C.2     1  UNL1       -0.0000
      6 C         -26.2320   -4.6110   29.7840 C.2     1  UNL1       -0.0003
      7 C         -26.1550   -3.2320   30.0650 C.2     1  UNL1       -0.0026
      8 C         -25.3870   -0.6790   31.5710 C.3     1  UNL1        0.0954
      9 C         -25.1890    0.7730   32.0280 C.3     1  UNL1        0.0209
     10 C         -25.3360    0.6840   33.5440 C.3     1  UNL1        0.0203
     11 C         -24.8290   -0.7150   33.9050 C.3     1  UNL1        0.0888
     12 N         -24.7580   -1.4810   32.6460 N.3     1  UNL1       -0.2174
     13 C         -25.6880    1.6140   26.4610 C.2     1  UNL1        0.0391
     14 C         -26.2500    2.9200   26.3950 C.2     1  UNL1        0.0766
     15 C         -25.6420    4.0930   27.1230 C.2     1  UNL1        0.2664
     16 N         -25.6140    5.2520   26.4490 N.am    1  UNL1       -0.1997
     17 C         -25.0260    6.4790   26.9630 C.3     1  UNL1        0.1388
     18 O         -25.1430    3.9660   28.2430 O.2     1  UNL1       -0.2683
     19 C         -27.4380    3.0910   25.6450 C.2     1  UNL1        0.1067
     20 N         -28.0750    2.0890   25.0030 N.2     1  UNL1       -0.2081
     21 C         -27.5430    0.8490   25.0790 C.2     1  UNL1        0.2533
     22 O         -28.1930   -0.2080   24.4770 O.2     1  UNL1       -0.4558
     23 C         -29.4600    0.0050   23.8660 C.3     1  UNL1        0.2426
     24 C         -30.0650   -1.3770   23.5730 C.3     1  UNL1        0.2292
     25 O         -30.7290   -1.8780   24.7210 O.3     1  UNL1       -0.2162
     26 C         -26.3540    0.5760   25.7770 C.2     1  UNL1        0.1931
     27 F         -25.8600   -0.6810   25.7950 F       1  UNL1       -0.1992
     28 C         -22.3086    1.4301   27.4404 C.2     1  UNL1        0.1534
     29 C         -29.3100    1.6714   32.2612 C.3     1  UNL1        0.0055
     30 C         -28.6554    1.0631   30.1691 C.2     1  UNL1        0.0167
     31 N         -25.2811   -0.1354   28.9789 N.pl3   1  UNL1       -0.2769
     32 O         -27.7188    4.4306   32.6181 O.3     1  UNL1       -0.1678
     33 C         -23.2585    1.7519   26.5056 C.2     1  UNL1        0.0292
     34 C         -26.7122   -0.2944   28.8134 C.2     1  UNL1        0.1080
     35 F         -20.9874    1.8270   27.3506 F       1  UNL1       -0.2058
     36 C         -29.1499    6.5069   32.3867 C.3     1  UNL1        0.0998
     37 C         -29.1304    3.6201   30.7045 C.3     1  UNL1        0.0944
     38 C         -29.4803    2.0089   33.7000 C.3     1  UNL1        0.0004
     39 P         -29.2053    4.7155   32.1184 P.3     1  UNL1        0.2549
     40 C         -24.5371    1.3214   27.0294 C.2     1  UNL1        0.0169
     41 C         -28.5692    2.2721   31.0238 C.3     1  UNL1        0.0396
     42 C         -27.7150    0.4171   29.6791 C.1     1  UNL1       -0.0891
     43 O         -22.3629    0.1553   29.4945 O.3     1  UNL1       -0.2095
     44 C         -22.9748    0.6605   28.4709 C.3     1  UNL1        0.2369
     45 C         -24.3574    0.5445   28.1789 C.2     1  UNL1        0.0665
     46 O         -30.8442    4.5442   32.2964 O.2     1  UNL1       -0.2869
@<TRIPOS>BOND
     1     1    31    1
     2     2     7    1
     3     2     1    1
     4     3     2    2
     5     4     3    1
     6     4     5    2
     7     5     6    1
     8     6     7    2
     9     8     1    1
    10     8     9    1
    11     8    12    1
    12     9    10    1
    13    10    11    1
    14    12    11    1
    15    13    40    1
    16    14    13    1
    17    14    15    1
    18    15    18    2
    19    16    17    1
    20    16    15    1
    21    19    14    2
    22    20    21    2
    23    20    19    1
    24    21    26    1
    25    22    21    1
    26    23    22    1
    27    24    23    1
    28    24    25    1
    29    26    27    1
    30    26    13    2
    31    28    44    1
    32    29    38    1
    33    33    40    1
    34    33    28    2
    35    34    31    1
    36    34    42    2
    37    35    28    1
    38    37    41    1
    39    37    39    1
    40    39    46    2
    41    39    36    1
    42    39    32    1
    43    40    45    2
    44    41    30    1
    45    41    29    1
    46    42    30    2
    47    44    43    1
    48    45    44    1
    49    45    31    1
