@<TRIPOS>MOLECULE
No_4515-gen_results/8p0m/2024-11-27-11-27-31/
 26 27 0 0 0
SMALL
GASTEIGER

@<TRIPOS>ATOM
      1 C         -28.0162   -0.8135   28.8779 C.ar    1  UNL1        0.0369
      2 C         -27.0636   -0.1190   28.6079 C.ar    1  UNL1        0.0046
      3 C         -25.7923   -0.4302   29.0761 C.ar    1  UNL1        0.0180
      4 C         -25.5756   -1.5654   29.9363 C.ar    1  UNL1        0.0046
      5 C         -26.7354   -2.3004   30.2173 C.ar    1  UNL1        0.0369
      6 C         -27.9184   -1.9537   29.7629 C.ar    1  UNL1        0.1388
      7 O         -29.0001   -2.7012   30.1151 O.3     1  UNL1       -0.4710
      8 C         -24.5290    0.3490   28.7998 C.ar    1  UNL1        0.0858
      9 N         -24.4588    1.1825   27.8542 N.ar    1  UNL1       -0.2111
     10 C         -23.3251    1.7499   27.4110 C.ar    1  UNL1        0.2566
     11 N         -22.1215    1.4597   28.0065 N.ar    1  UNL1       -0.2096
     12 C         -23.2967   -0.0395   29.4121 C.ar    1  UNL1        0.0399
     13 C         -22.0756    0.6207   28.9928 C.ar    1  UNL1        0.1035
     14 N         -23.3288    2.7042   26.4449 N.pl3   1  UNL1       -0.0860
     15 C         -30.1174   -2.1262   30.5917 C.3     1  UNL1        0.2582
     16 C         -31.1955   -2.6790   30.1157 C.3     1  UNL1        0.2859
     17 C         -31.3267   -4.0205   29.9672 C.2     1  UNL1        0.2855
     18 O         -30.5861   -4.7740   30.4517 O.2     1  UNL1       -0.2693
     19 O         -31.6117   -1.9864   28.8615 O.2     1  UNL1       -0.4629
     20 N         -32.1742   -4.6579   29.0799 N.am    1  UNL1       -0.2004
     21 C         -33.1107   -3.9898   28.2622 C.3     1  UNL1        0.1386
     22 C         -31.6383   -0.6711   28.8007 C.2     1  UNL1        0.1729
     23 C         -31.6765   -0.0994   27.4715 C.2     1  UNL1        0.0397
     24 C         -31.3145    1.2065   27.3435 C.2     1  UNL1       -0.0013
     25 C         -31.0983    1.7821   26.0763 C.2     1  UNL1       -0.0257
     26 C         -31.3465    0.9741   24.9376 C.3     1  UNL1        0.0307
@<TRIPOS>BOND
     1     6     7    1
     2     3     8    1
     3    10    14    1
     4     7    15    1
     5    15    16    1
     6    16    17    1
     7    17    18    2
     8    16    19    1
     9    17    20   am
    10    20    21    1
    11    19    22    1
    12    22    23    2
    13    23    24    1
    14    24    25    2
    15    25    26    1
    16     1     2   ar
    17     2     3   ar
    18     3     4   ar
    19     4     5   ar
    20     5     6   ar
    21     6     1   ar
    22     8     9   ar
    23     9    10   ar
    24    10    11   ar
    25    11    13   ar
    26    13    12   ar
    27    12     8   ar
