@<TRIPOS>MOLECULE
No_4517-gen_results/8p0m/2024-11-27-11-27-31/
 21 22 0 0 0
SMALL
GASTEIGER

@<TRIPOS>ATOM
      1 O         -28.1229   -1.3353   28.4874 O.2     1  UNL1       -0.2733
      2 C         -27.0637   -0.8242   28.8687 C.2     1  UNL1        0.2413
      3 N         -26.4446   -0.0097   28.8266 N.am    1  UNL1       -0.2068
      4 C         -26.3514   -1.9045   29.8953 C.3     1  UNL1        0.0869
      5 C         -25.1383    0.4281   29.2592 C.3     1  UNL1        0.1007
      6 C         -24.4060    1.6464   28.9070 C.3     1  UNL1        0.0596
      7 C         -24.3990   -0.4582   30.1297 C.3     1  UNL1        0.0225
      8 C         -25.1124   -1.6454   30.4166 C.3     1  UNL1        0.0114
      9 C         -25.0940    2.8256   28.8513 C.3     1  UNL1        0.1018
     10 C         -23.0392    1.5748   28.4506 C.2     1  UNL1       -0.0264
     11 N         -24.6963    3.7491   27.9208 N.3     1  UNL1       -0.1322
     12 C         -22.2182    0.4681   28.6236 C.2     1  UNL1       -0.0102
     13 C         -26.0064    3.2766   29.8242 C.3     1  UNL1        0.0457
     14 C         -25.9689    3.0826   31.0432 C.ar    1  UNL1       -0.0207
     15 C         -26.9620    3.4757   32.0476 C.ar    1  UNL1       -0.0042
     16 C         -26.9492    3.1276   33.3767 C.ar    1  UNL1       -0.0003
     17 C         -26.1080    2.0660   33.7186 C.ar    1  UNL1       -0.0000
     18 C         -25.2517    1.4519   32.8206 C.ar    1  UNL1       -0.0003
     19 C         -25.2274    1.8827   31.5232 C.ar    1  UNL1       -0.0042
     20 C         -20.8866    0.6374   28.1687 C.3     1  UNL1        0.1350
     21 N         -20.6555    1.7666   27.5285 N.3     1  UNL1       -0.1262
@<TRIPOS>BOND
     1     1     2    2
     2     2     3   am
     3     2     4    1
     4     3     5    1
     5     5     6    1
     6     5     7    1
     7     6     9    1
     8     6    10    1
     9     9    11    1
    10    10    12    2
    11     9    13    1
    12    12    20    1
    13    20    21    1
    14    13    14    1
    15     7     8    1
    16     8     4    1
    17    14    15   ar
    18    15    16   ar
    19    16    17   ar
    20    17    18   ar
    21    18    19   ar
    22    19    14   ar
