@<TRIPOS>MOLECULE
No_4518-gen_results/8p0m/2024-11-27-11-27-31/
 15 16 0 0 0
SMALL
GASTEIGER

@<TRIPOS>ATOM
      1 O         -28.1229   -1.3353   28.4874 O.2     1  UNL1       -0.2680
      2 C         -28.5208   -0.4363   29.0779 C.2     1  UNL1        0.2690
      3 C         -28.5894    0.5916   28.9464 C.ar    1  UNL1        0.0554
      4 N         -29.3752   -0.9434   30.2659 N.am    1  UNL1       -0.1754
      5 C         -29.1636    1.6673   29.5072 C.ar    1  UNL1        0.0046
      6 C         -27.6492    1.1249   27.7443 C.ar    1  UNL1        0.0046
      7 C         -27.9158    2.1950   27.0665 C.ar    1  UNL1        0.0001
      8 C         -29.3081    2.9848   28.9148 C.ar    1  UNL1        0.0001
      9 C         -28.6164    3.2776   27.7353 C.ar    1  UNL1        0.0000
     10 C         -29.4218   -2.3712   30.6564 C.ar    1  UNL1        0.0737
     11 C         -30.4257   -3.0734   30.0713 C.ar    1  UNL1        0.0166
     12 C         -30.2967   -4.5106   30.3038 C.ar    1  UNL1        0.0013
     13 C         -29.1446   -5.0633   30.9202 C.ar    1  UNL1        0.0001
     14 C         -28.0902   -4.2913   31.1817 C.ar    1  UNL1        0.0013
     15 C         -28.1726   -2.8754   31.0472 C.ar    1  UNL1        0.0166
@<TRIPOS>BOND
     1     1     2    2
     2     2     3    1
     3     2     4   am
     4     4    10    1
     5    10    11   ar
     6    11    12   ar
     7    12    13   ar
     8    13    14   ar
     9    14    15   ar
    10    15    10   ar
    11     3     5   ar
    12     5     8   ar
    13     8     9   ar
    14     9     7   ar
    15     7     6   ar
    16     6     3   ar
