@<TRIPOS>MOLECULE
No_4519-gen_results/8p0m/2024-11-27-11-27-31/
 16 16 0 0 0
SMALL
GASTEIGER

@<TRIPOS>ATOM
      1 C         -28.0162   -0.8135   28.8779 C.ar    1  UNL1       -0.0027
      2 C         -27.0636   -0.1189   28.6079 C.ar    1  UNL1       -0.0219
      3 C         -27.0010    0.6913   27.4910 C.ar    1  UNL1       -0.0027
      4 C         -28.1373    0.7363   26.6350 C.ar    1  UNL1        0.0189
      5 C         -29.2360    0.0765   27.0690 C.ar    1  UNL1        0.0854
      6 C         -29.2177   -0.6429   28.1747 C.ar    1  UNL1        0.0189
      7 N         -30.3516    0.1564   26.2430 N.2     1  UNL1       -0.1978
      8 C         -31.4313   -0.4312   26.5996 C.2     1  UNL1        0.3404
      9 CL        -32.6818   -0.5854   25.5310 Cl      1  UNL1       -0.0178
     10 O         -31.8097   -0.7336   27.8050 O.2     1  UNL1       -0.2519
     11 C         -25.7156   -0.2049   29.4233 C.3     1  UNL1        0.0320
     12 C         -25.1332    1.0455   29.8308 C.3     1  UNL1        0.0712
     13 C         -25.6930    1.6511   30.7914 C.3     1  UNL1        0.0062
     14 C         -23.9880    1.5165   29.1130 C.3     1  UNL1        0.3187
     15 F         -22.8560    1.3876   29.7744 F       1  UNL1       -0.1984
     16 F         -24.0854    2.8617   28.8319 F       1  UNL1       -0.1984
@<TRIPOS>BOND
     1     5     7    1
     2     7     8    2
     3     8     9    1
     4     8    10    1
     5     2    11    1
     6    11    12    1
     7    12    13    1
     8    12    14    1
     9    14    15    1
    10    14    16    1
    11     1     2   ar
    12     2     3   ar
    13     3     4   ar
    14     4     5   ar
    15     5     6   ar
    16     6     1   ar
