@<TRIPOS>MOLECULE
No_452-gen_results/8p0m/2024-11-27-11-27-31/
 31 34 0 0 0
SMALL
GASTEIGER

@<TRIPOS>ATOM
      1 C         -28.0162   -0.8135   28.8779 C.ar    1  UNL1       -0.0003
      2 C         -27.0636   -0.1190   28.6079 C.ar    1  UNL1       -0.0040
      3 C         -27.0010    0.6913   27.4910 C.ar    1  UNL1       -0.0186
      4 C         -28.1373    0.7363   26.6350 C.ar    1  UNL1       -0.0040
      5 C         -29.2360    0.0765   27.0690 C.ar    1  UNL1       -0.0003
      6 C         -29.2177   -0.6429   28.1747 C.ar    1  UNL1       -0.0000
      7 C         -30.5230    0.0808   26.3695 C.ar    1  UNL1       -0.0000
      8 C         -31.5257   -0.5092   26.8653 C.ar    1  UNL1       -0.0000
      9 C         -31.4431   -1.2187   28.0906 C.ar    1  UNL1       -0.0000
     10 C         -30.3267   -1.3002   28.7343 C.ar    1  UNL1       -0.0000
     11 C         -25.7092    1.3899   27.0489 C.3     1  UNL1        0.0459
     12 C         -25.2790    2.4733   27.8464 C.2     1  UNL1        0.0251
     13 C         -25.4514    2.8276   28.8031 C.2     1  UNL1       -0.0028
     14 C         -25.7501    2.0401   29.8603 C.ar    1  UNL1       -0.0008
     15 C         -24.7354    1.6661   30.4918 C.ar    1  UNL1       -0.0043
     16 C         -24.9649    0.8065   31.6652 C.ar    1  UNL1       -0.0218
     17 C         -23.9530    0.0464   32.2280 C.3     1  UNL1        0.0310
     18 C         -26.2201    1.0159   32.3238 C.ar    1  UNL1       -0.0043
     19 C         -27.2745    1.6042   31.6234 C.ar    1  UNL1       -0.0003
     20 C         -26.9336    2.4630   30.7836 C.ar    1  UNL1       -0.0000
     21 C         -25.1872    0.8172   25.8554 C.3     1  UNL1        0.0092
     22 C         -24.2991    3.1128   26.8126 C.3     1  UNL1        0.3374
     23 F         -23.5750    2.6958   25.9949 F       1  UNL1       -0.1936
     24 F         -24.3649    4.5527   26.8509 F       1  UNL1       -0.1936
     25 C         -23.8032   -1.2255   31.5670 C.3     1  UNL1        0.0310
     26 C         -24.7683   -1.8460   30.9233 C.ar    1  UNL1       -0.0218
     27 C         -24.4075   -2.7167   29.8078 C.ar    1  UNL1       -0.0043
     28 C         -25.4177   -3.5006   29.2165 C.ar    1  UNL1       -0.0003
     29 C         -26.5655   -3.7492   29.9576 C.ar    1  UNL1       -0.0000
     30 C         -27.0013   -2.8730   30.9321 C.ar    1  UNL1       -0.0003
     31 C         -26.0417   -2.0312   31.5485 C.ar    1  UNL1       -0.0043
@<TRIPOS>BOND
     1     3    11    1
     2    11    12    1
     3    12    13    2
     4    13    14    1
     5    16    17    1
     6    11    21    1
     7    12    22    1
     8    22    23    1
     9    22    24    1
    10    17    25    1
    11    25    26    1
    12    14    15   ar
    13    15    16   ar
    14    16    18   ar
    15    18    19   ar
    16    19    20   ar
    17    20    14   ar
    18     1     2   ar
    19     2     3   ar
    20     3     4   ar
    21     4     5   ar
    22     6     1   ar
    23     5     6   ar
    24     6    10   ar
    25    10     9   ar
    26     9     8   ar
    27     8     7   ar
    28     7     5   ar
    29    26    27   ar
    30    27    28   ar
    31    28    29   ar
    32    29    30   ar
    33    30    31   ar
    34    31    26   ar
