@<TRIPOS>MOLECULE
No_4521-gen_results/8p0m/2024-11-27-11-27-31/
 31 34 0 0 0
SMALL
GASTEIGER

@<TRIPOS>ATOM
      1 O         -28.1229   -1.3353   28.4874 O.2     1  UNL1       -0.2699
      2 C         -27.4806   -0.4044   28.7094 C.2     1  UNL1        0.2485
      3 C         -26.3804   -0.0867   27.9394 C.ar    1  UNL1        0.0499
      4 N         -27.6664    0.4468   29.8988 N.am    1  UNL1       -0.2761
      5 C         -26.4087    0.8567   26.8802 C.ar    1  UNL1        0.0334
      6 C         -25.0824   -0.6970   28.1699 C.ar    1  UNL1       -0.0176
      7 C         -25.2842    1.0488   26.0470 C.ar    1  UNL1        0.0002
      8 C         -23.9159   -0.3440   27.4444 C.ar    1  UNL1       -0.0041
      9 C         -24.0618    0.5290   26.3706 C.ar    1  UNL1       -0.0005
     10 C         -26.9084    1.5761   30.3304 C.3     1  UNL1        0.0943
     11 C         -27.2388    2.0297   31.4415 C.3     1  UNL1        0.0328
     12 C         -28.7619    0.0369   30.7861 C.3     1  UNL1        0.0943
     13 C         -28.2985    1.5419   32.0822 C.3     1  UNL1        0.1068
     14 C         -28.9766    0.6172   31.9325 C.3     1  UNL1        0.0328
     15 C         -24.9180   -1.6202   29.3322 C.3     1  UNL1        0.0312
     16 C         -27.6728    1.4806   26.4379 C.3     1  UNL1        0.2629
     17 N         -27.7653    2.6385   26.8844 N.am    1  UNL1       -0.2454
     18 C         -28.7718    3.3322   27.2573 C.2     1  UNL1        0.2324
     19 O         -29.8399    2.7722   27.3371 O.2     1  UNL1       -0.2744
     20 C         -28.5989    4.7659   27.7828 C.3     1  UNL1        0.1115
     21 C         -28.5869    2.3694   33.5040 C.2     1  UNL1        0.3644
     22 O         -29.0943    1.8547   34.3335 O.co2   1  UNL1       -0.2457
     23 O         -28.5348    3.7117   33.3701 O.co2   1  UNL1       -0.2457
     24 F         -28.5081    0.8614   25.9278 F       1  UNL1       -0.2096
     25 C         -26.4183    3.5412   26.8823 C.3     1  UNL1        0.1241
     26 C         -26.3943    4.7914   27.4169 C.ar    1  UNL1        0.0135
     27 C         -27.4929    5.4108   27.8144 C.ar    1  UNL1       -0.0124
     28 C         -25.0372    5.4644   27.3754 C.ar    1  UNL1        0.0959
     29 N         -24.9364    6.5444   28.1037 N.ar    1  UNL1       -0.2426
     30 C         -25.9256    7.1913   28.7208 C.ar    1  UNL1        0.0986
     31 C         -27.2270    6.6553   28.5928 C.ar    1  UNL1        0.0166
@<TRIPOS>BOND
     1     1     2    2
     2     2     3    1
     3     2     4   am
     4     4    10    1
     5     4    12    1
     6    11    13    1
     7    12    14    1
     8    13    14    1
     9     6    15    1
    10     5    16    1
    11    16    17    1
    12    17    18   am
    13    18    19    2
    14    18    20    1
    15    13    21    1
    16    21    22   ar
    17    21    23   ar
    18    16    24    1
    19    17    25    1
    20    20    27    1
    21    26    25    1
    22    10    11    1
    23    26    27   ar
    24    27    31   ar
    25    31    30   ar
    26    30    29   ar
    27    29    28   ar
    28    28    26   ar
    29     3     5   ar
    30     5     7   ar
    31     7     9   ar
    32     9     8   ar
    33     8     6   ar
    34     6     3   ar
