@<TRIPOS>MOLECULE
outputs/IAG933/test6/raw/output_4524_IAG933_linker_design_.xyz
 44 47 0 0 0
SMALL
GASTEIGER

@<TRIPOS>ATOM
      1 C         -24.8550   -1.0120   30.1430 C.3     1  UNL1        0.1163
      2 C         -24.9730   -2.5050   29.7880 C.2     1  UNL1       -0.0027
      3 C         -23.9060   -3.1730   29.1460 C.2     1  UNL1       -0.0026
      4 C         -23.9890   -4.5490   28.8530 C.2     1  UNL1       -0.0003
      5 C         -25.1370   -5.2800   29.2050 C.2     1  UNL1       -0.0000
      6 C         -26.2320   -4.6110   29.7840 C.2     1  UNL1       -0.0003
      7 C         -26.1550   -3.2320   30.0650 C.2     1  UNL1       -0.0026
      8 C         -25.3870   -0.6790   31.5710 C.3     1  UNL1        0.0978
      9 C         -25.1890    0.7730   32.0280 C.3     1  UNL1        0.0491
     10 C         -25.3360    0.6840   33.5440 C.3     1  UNL1        0.0228
     11 C         -24.8290   -0.7150   33.9050 C.3     1  UNL1        0.0889
     12 N         -24.7580   -1.4810   32.6460 N.3     1  UNL1       -0.2173
     13 C         -25.6880    1.6140   26.4610 C.2     1  UNL1        0.0416
     14 C         -26.2500    2.9200   26.3950 C.2     1  UNL1        0.0767
     15 C         -25.6420    4.0930   27.1230 C.2     1  UNL1        0.2664
     16 N         -25.6140    5.2520   26.4490 N.am    1  UNL1       -0.1997
     17 C         -25.0260    6.4790   26.9630 C.3     1  UNL1        0.1388
     18 O         -25.1430    3.9660   28.2430 O.2     1  UNL1       -0.2683
     19 C         -27.4380    3.0910   25.6450 C.2     1  UNL1        0.1067
     20 N         -28.0750    2.0890   25.0030 N.2     1  UNL1       -0.2081
     21 C         -27.5430    0.8490   25.0790 C.2     1  UNL1        0.2533
     22 O         -28.1930   -0.2080   24.4770 O.2     1  UNL1       -0.4558
     23 C         -29.4600    0.0050   23.8660 C.3     1  UNL1        0.2426
     24 C         -30.0650   -1.3770   23.5730 C.3     1  UNL1        0.2292
     25 O         -30.7290   -1.8780   24.7210 O.3     1  UNL1       -0.2162
     26 C         -26.3540    0.5760   25.7770 C.2     1  UNL1        0.1932
     27 F         -25.8600   -0.6810   25.7950 F       1  UNL1       -0.1992
     28 O         -26.3197    2.5918   30.8156 O.3     1  UNL1       -0.3511
     29 C         -27.2846   -0.0196   28.6341 C.1     1  UNL1        0.1505
     30 C         -26.2154    0.7806   29.1042 C.2     1  UNL1        0.1524
     31 C         -22.7020    0.6654   28.3733 C.ar    1  UNL1        0.1833
     32 C         -22.1547    1.6886   26.2581 C.ar    1  UNL1        0.1969
     33 C         -26.6259    3.9628   31.0191 C.3     1  UNL1        0.1741
     34 C         -21.7534    1.2924   27.5242 C.ar    1  UNL1        0.1981
     35 C         -25.0616    2.0676   31.2261 C.3     1  UNL1        0.1437
     36 F         -23.7212    2.5980   24.9327 F       1  UNL1       -0.2017
     37 C         -23.4498    1.9213   26.0750 C.ar    1  UNL1        0.1710
     38 F         -20.4697    1.6256   27.8833 F       1  UNL1       -0.1993
     39 O         -28.0809   -0.7236   28.2562 O.2     1  UNL1       -0.2298
     40 N         -24.9089    0.1761   29.2088 N.pl3   1  UNL1       -0.2714
     41 C         -24.4226    1.4163   26.9245 C.ar    1  UNL1        0.0482
     42 F         -21.2619    1.7637   25.2496 F       1  UNL1       -0.1993
     43 F         -22.2930   -0.0372   29.4582 F       1  UNL1       -0.2004
     44 C         -24.0771    0.7131   28.1660 C.ar    1  UNL1        0.0848
@<TRIPOS>BOND
     1     1    40    1
     2     2     7    1
     3     2     1    1
     4     3     2    2
     5     4     3    1
     6     4     5    2
     7     5     6    1
     8     6     7    2
     9     8     1    1
    10     8     9    1
    11     8    12    1
    12     9    35    1
    13     9    10    1
    14    10    11    1
    15    12    11    1
    16    13    41    1
    17    14    13    1
    18    14    15    1
    19    15    18    2
    20    16    17    1
    21    16    15    1
    22    19    14    2
    23    20    21    2
    24    20    19    1
    25    21    26    1
    26    22    21    1
    27    23    22    1
    28    24    23    1
    29    24    25    1
    30    26    27    1
    31    26    13    2
    32    28    33    1
    33    28    35    1
    34    29    30    2
    35    30    40    1
    36    31    43    1
    37    32    34   ar
    38    34    38    1
    39    34    31   ar
    40    36    37    1
    41    37    32   ar
    42    37    41   ar
    43    39    29    2
    44    41    44   ar
    45    42    32    1
    46    44    31   ar
    47    44    40    1
