@<TRIPOS>MOLECULE
No_453-gen_results/8p0m/2024-11-27-11-27-31/
 15 14 0 0 0
SMALL
GASTEIGER

@<TRIPOS>ATOM
      1 C         -28.0162   -0.8135   28.8779 C.3     1  UNL1        0.1388
      2 C         -27.0636   -0.1190   28.6079 C.3     1  UNL1        0.1738
      3 F         -27.0788    0.9846   29.1738 F       1  UNL1       -0.2366
      4 C         -25.9956   -0.3885   27.6940 C.3     1  UNL1        0.0616
      5 C         -25.6788    0.5746   26.7076 C.2     1  UNL1       -0.0233
      6 C         -28.5039   -0.8072   30.3260 C.3     1  UNL1        0.4004
      7 F         -29.1262    0.1073   30.4655 F       1  UNL1       -0.1699
      8 F         -27.4113   -0.9160   31.1260 F       1  UNL1       -0.1699
      9 F         -29.1794   -2.0244   30.5633 F       1  UNL1       -0.1699
     10 C         -26.4019    0.6832   25.7469 C.2     1  UNL1       -0.0045
     11 C         -27.5314    0.7607   25.6633 C.2     1  UNL1       -0.0003
     12 C         -28.4028    0.8404   24.9983 C.2     1  UNL1       -0.0003
     13 C         -29.8327    0.9446   25.1830 C.2     1  UNL1       -0.0046
     14 C         -30.1829    1.0130   26.5005 C.2     1  UNL1       -0.0258
     15 C         -29.2571    0.9245   27.5051 C.3     1  UNL1        0.0307
@<TRIPOS>BOND
     1     1     2    1
     2     2     3    1
     3     2     4    1
     4     4     5    1
     5     1     6    1
     6     6     7    1
     7     6     8    1
     8     6     9    1
     9     5    10    2
    10    10    11    1
    11    11    12    2
    12    12    13    1
    13    13    14    2
    14    14    15    1
