@<TRIPOS>MOLECULE
outputs/IAG933/test6/raw/output_4530_IAG933_linker_design_.xyz
 42 45 0 0 0
SMALL
GASTEIGER

@<TRIPOS>ATOM
      1 C         -24.8550   -1.0120   30.1430 C.3     1  UNL1        0.1114
      2 C         -24.9730   -2.5050   29.7880 C.2     1  UNL1       -0.0030
      3 C         -23.9060   -3.1730   29.1460 C.2     1  UNL1       -0.0026
      4 C         -23.9890   -4.5490   28.8530 C.2     1  UNL1       -0.0003
      5 C         -25.1370   -5.2800   29.2050 C.2     1  UNL1       -0.0000
      6 C         -26.2320   -4.6110   29.7840 C.2     1  UNL1       -0.0003
      7 C         -26.1550   -3.2320   30.0650 C.2     1  UNL1       -0.0026
      8 C         -25.3870   -0.6790   31.5710 C.3     1  UNL1        0.0950
      9 C         -25.1890    0.7730   32.0280 C.3     1  UNL1        0.0209
     10 C         -25.3360    0.6840   33.5440 C.3     1  UNL1        0.0203
     11 C         -24.8290   -0.7150   33.9050 C.3     1  UNL1        0.0888
     12 N         -24.7580   -1.4810   32.6460 N.3     1  UNL1       -0.2174
     13 C         -25.6880    1.6140   26.4610 C.2     1  UNL1        0.0557
     14 C         -26.2500    2.9200   26.3950 C.2     1  UNL1        0.0779
     15 C         -25.6420    4.0930   27.1230 C.2     1  UNL1        0.2665
     16 N         -25.6140    5.2520   26.4490 N.am    1  UNL1       -0.1997
     17 C         -25.0260    6.4790   26.9630 C.3     1  UNL1        0.1388
     18 O         -25.1430    3.9660   28.2430 O.2     1  UNL1       -0.2683
     19 C         -27.4380    3.0910   25.6450 C.2     1  UNL1        0.1068
     20 N         -28.0750    2.0890   25.0030 N.2     1  UNL1       -0.2081
     21 C         -27.5430    0.8490   25.0790 C.2     1  UNL1        0.2533
     22 O         -28.1930   -0.2080   24.4770 O.2     1  UNL1       -0.4558
     23 C         -29.4600    0.0050   23.8660 C.3     1  UNL1        0.2426
     24 C         -30.0650   -1.3770   23.5730 C.3     1  UNL1        0.2292
     25 O         -30.7290   -1.8780   24.7210 O.3     1  UNL1       -0.2162
     26 C         -26.3540    0.5760   25.7770 C.2     1  UNL1        0.1944
     27 F         -25.8600   -0.6810   25.7950 F       1  UNL1       -0.1992
     28 O         -22.4272    0.1774   29.7457 O.2     1  UNL1       -0.2653
     29 C         -24.2509    0.6222   28.3448 C.2     1  UNL1        0.1220
     30 O         -29.6597    0.9014   28.8317 O.3     1  UNL1       -0.2204
     31 C         -26.6869    0.5517   28.9654 C.3     1  UNL1        0.0939
     32 N         -25.3109   -0.0679   29.0927 N.pl3   1  UNL1       -0.2993
     33 C         -29.1555   -0.2042   28.1914 C.3     1  UNL1        0.1831
     34 C         -29.8090   -1.4543   28.5366 C.3     1  UNL1        0.1750
     35 C         -29.9513   -2.3576   30.9129 C.3     1  UNL1        0.1742
     36 C         -22.9427    0.6954   28.6405 C.2     1  UNL1        0.2985
     37 CL        -22.7429    2.3455   25.2016 Cl      1  UNL1        0.0233
     38 N         -22.1914    1.3246   27.6908 N.am    1  UNL1       -0.0899
     39 C         -27.6962   -0.3271   28.2858 C.3     1  UNL1        0.0569
     40 C         -24.4650    1.2935   27.1214 C.2     1  UNL1        0.1046
     41 N         -23.1493    1.6384   26.7101 N.pl3   1  UNL1       -0.1363
     42 O         -30.4603   -1.8893   29.6837 O.3     1  UNL1       -0.3484
@<TRIPOS>BOND
     1     1    32    1
     2     2     7    1
     3     2     1    1
     4     3     2    2
     5     4     3    1
     6     4     5    2
     7     5     6    1
     8     6     7    2
     9     8     1    1
    10     8     9    1
    11     8    12    1
    12     9    10    1
    13    10    11    1
    14    12    11    1
    15    13    40    1
    16    14    13    1
    17    14    15    1
    18    15    18    2
    19    16    17    1
    20    16    15    1
    21    19    14    2
    22    20    21    2
    23    20    19    1
    24    21    26    1
    25    22    21    1
    26    23    22    1
    27    24    23    1
    28    24    25    1
    29    26    27    1
    30    26    13    2
    31    29    36    1
    32    29    32    1
    33    31    32    1
    34    33    39    1
    35    33    34    1
    36    33    30    1
    37    34    42    1
    38    36    28    2
    39    37    41    1
    40    38    36    1
    41    39    31    1
    42    40    29    2
    43    41    40    1
    44    41    38    1
    45    42    35    1
