@<TRIPOS>MOLECULE
outputs/IAG933/test6/raw/output_4531_IAG933_linker_design_.xyz
 43 47 0 0 0
SMALL
GASTEIGER

@<TRIPOS>ATOM
      1 C         -24.8550   -1.0120   30.1430 C.3     1  UNL1        0.1124
      2 C         -24.9730   -2.5050   29.7880 C.2     1  UNL1       -0.0051
      3 C         -23.9060   -3.1730   29.1460 C.2     1  UNL1       -0.0029
      4 C         -23.9890   -4.5490   28.8530 C.2     1  UNL1       -0.0003
      5 C         -25.1370   -5.2800   29.2050 C.2     1  UNL1       -0.0000
      6 C         -26.2320   -4.6110   29.7840 C.2     1  UNL1       -0.0003
      7 C         -26.1550   -3.2320   30.0650 C.2     1  UNL1       -0.0029
      8 C         -25.3870   -0.6790   31.5710 C.3     1  UNL1        0.0929
      9 C         -25.1890    0.7730   32.0280 C.3     1  UNL1        0.0206
     10 C         -25.3360    0.6840   33.5440 C.3     1  UNL1        0.0203
     11 C         -24.8290   -0.7150   33.9050 C.3     1  UNL1        0.0888
     12 N         -24.7580   -1.4810   32.6460 N.3     1  UNL1       -0.2177
     13 C         -25.6880    1.6140   26.4610 C.2     1  UNL1        0.0407
     14 C         -26.2500    2.9200   26.3950 C.2     1  UNL1        0.0745
     15 C         -25.6420    4.0930   27.1230 C.2     1  UNL1        0.2254
     16 N         -25.6140    5.2520   26.4490 N.2     1  UNL1       -0.2356
     17 C         -25.0260    6.4790   26.9630 C.3     1  UNL1        0.1550
     18 O         -25.1430    3.9660   28.2430 O.2     1  UNL1       -0.4230
     19 C         -27.4380    3.0910   25.6450 C.2     1  UNL1        0.1068
     20 N         -28.0750    2.0890   25.0030 N.2     1  UNL1       -0.2081
     21 C         -27.5430    0.8490   25.0790 C.2     1  UNL1        0.2533
     22 O         -28.1930   -0.2080   24.4770 O.2     1  UNL1       -0.4558
     23 C         -29.4600    0.0050   23.8660 C.3     1  UNL1        0.2426
     24 C         -30.0650   -1.3770   23.5730 C.3     1  UNL1        0.2292
     25 O         -30.7290   -1.8780   24.7210 O.3     1  UNL1       -0.2162
     26 C         -26.3540    0.5760   25.7770 C.2     1  UNL1        0.1931
     27 F         -25.8600   -0.6810   25.7950 F       1  UNL1       -0.1992
     28 C         -29.4179    3.1859   29.5802 C.2     1  UNL1        0.0494
     29 N         -24.9141    2.1253   29.6234 N.3     1  UNL1       -0.1339
     30 N         -21.5751    0.8106   28.2842 N.3     1  UNL1       -0.1362
     31 C         -27.1254    3.5819   29.6957 C.2     1  UNL1        0.1292
     32 C         -28.2143    2.5996   29.6349 C.2     1  UNL1        0.2054
     33 O         -25.1736    4.2391   30.7294 O.3     1  UNL1       -0.1587
     34 C         -29.3829    4.5419   29.7484 C.2     1  UNL1        0.0387
     35 C         -21.8473    1.5557   27.4627 C.2     1  UNL1        0.3730
     36 C         -23.7908    1.1173   29.1847 C.3     1  UNL1        0.1778
     37 O         -20.8254    1.3942   27.8557 O.2     1  UNL1       -0.3289
     38 C         -25.5373    3.5812   29.5887 C.3     1  UNL1        0.3573
     39 C         -22.3169    0.6923   29.6859 C.3     1  UNL1        0.1851
     40 O         -28.0210    1.2023   29.4753 O.2     1  UNL1       -0.2861
     41 S         -27.8419    5.1104   29.8703 S.3     1  UNL1       -0.0801
     42 N         -22.4457    1.9779   26.4524 N.2     1  UNL1       -0.0848
     43 N         -24.5013   -0.1682   29.1278 N.3     1  UNL1       -0.1958
@<TRIPOS>BOND
     1     1    43    1
     2     2     7    1
     3     2     1    1
     4     3     2    2
     5     4     3    1
     6     4     5    2
     7     5     6    1
     8     6     7    2
     9     8     1    1
    10     8     9    1
    11     8    12    1
    12     9    10    1
    13    10    11    1
    14    12    11    1
    15    14    13    1
    16    14    15    1
    17    15    18    1
    18    16    17    1
    19    16    15    2
    20    18    38    1
    21    19    14    2
    22    20    21    2
    23    20    19    1
    24    21    26    1
    25    22    21    1
    26    23    22    1
    27    24    23    1
    28    24    25    1
    29    26    27    1
    30    26    13    2
    31    28    32    1
    32    28    34    2
    33    30    39    1
    34    31    41    1
    35    32    31    2
    36    34    41    1
    37    35    37    1
    38    35    30    1
    39    36    29    1
    40    36    39    1
    41    37    30    1
    42    38    29    1
    43    38    31    1
    44    38    33    1
    45    40    32    1
    46    42    35    2
    47    43    36    1
