@<TRIPOS>MOLECULE
outputs/IAG933/test6/raw/output_4534_IAG933_linker_design_.xyz
 44 48 0 0 0
SMALL
GASTEIGER

@<TRIPOS>ATOM
      1 C         -24.8550   -1.0120   30.1430 C.3     1  UNL1        0.0698
      2 C         -24.9730   -2.5050   29.7880 C.2     1  UNL1       -0.0184
      3 C         -23.9060   -3.1730   29.1460 C.2     1  UNL1       -0.0041
      4 C         -23.9890   -4.5490   28.8530 C.2     1  UNL1       -0.0003
      5 C         -25.1370   -5.2800   29.2050 C.2     1  UNL1       -0.0000
      6 C         -26.2320   -4.6110   29.7840 C.2     1  UNL1       -0.0003
      7 C         -26.1550   -3.2320   30.0650 C.2     1  UNL1       -0.0041
      8 C         -25.3870   -0.6790   31.5710 C.3     1  UNL1        0.0795
      9 C         -25.1890    0.7730   32.0280 C.3     1  UNL1        0.0193
     10 C         -25.3360    0.6840   33.5440 C.3     1  UNL1        0.0202
     11 C         -24.8290   -0.7150   33.9050 C.3     1  UNL1        0.0887
     12 N         -24.7580   -1.4810   32.6460 N.3     1  UNL1       -0.2190
     13 C         -25.6880    1.6140   26.4610 C.2     1  UNL1        0.0410
     14 C         -26.2500    2.9200   26.3950 C.2     1  UNL1        0.0766
     15 C         -25.6420    4.0930   27.1230 C.2     1  UNL1        0.2664
     16 N         -25.6140    5.2520   26.4490 N.am    1  UNL1       -0.1997
     17 C         -25.0260    6.4790   26.9630 C.3     1  UNL1        0.1388
     18 O         -25.1430    3.9660   28.2430 O.2     1  UNL1       -0.2683
     19 C         -27.4380    3.0910   25.6450 C.2     1  UNL1        0.1067
     20 N         -28.0750    2.0890   25.0030 N.2     1  UNL1       -0.2081
     21 C         -27.5430    0.8490   25.0790 C.2     1  UNL1        0.2533
     22 O         -28.1930   -0.2080   24.4770 O.2     1  UNL1       -0.4558
     23 C         -29.4600    0.0050   23.8660 C.3     1  UNL1        0.2426
     24 C         -30.0650   -1.3770   23.5730 C.3     1  UNL1        0.2292
     25 O         -30.7290   -1.8780   24.7210 O.3     1  UNL1       -0.2162
     26 C         -26.3540    0.5760   25.7770 C.2     1  UNL1        0.1931
     27 F         -25.8600   -0.6810   25.7950 F       1  UNL1       -0.1992
     28 C         -25.0676    0.0578   29.0484 C.3     1  UNL1        0.1449
     29 O         -30.3607   -0.7396   29.0415 O.3     1  UNL1       -0.3267
     30 C         -28.2651   -0.7055   28.0067 C.3     1  UNL1        0.0643
     31 C         -22.0075    1.9266   26.6419 C.2     1  UNL1        0.0443
     32 C         -23.3394    2.1055   26.3612 C.2     1  UNL1        0.1956
     33 C         -21.6579    1.1638   27.7293 C.2     1  UNL1        0.0327
     34 O         -26.3286    0.6654   28.8832 O.3     1  UNL1       -0.3512
     35 C         -24.3497    1.4390   27.0265 C.2     1  UNL1        0.0419
     36 F         -22.2294   -0.1540   29.5670 F       1  UNL1       -0.2044
     37 C         -29.6933   -0.1794   27.8746 C.3     1  UNL1        0.1476
     38 C         -22.6486    0.5810   28.4967 C.2     1  UNL1        0.1386
     39 C         -28.2928    1.1174   30.1499 C.3     1  UNL1        0.1744
     40 C         -24.0009    0.7008   28.1526 C.2     1  UNL1        0.0355
     41 C         -30.4670   -0.1832   30.0439 C.3     1  UNL1        0.2940
     42 O         -29.6697    0.9772   30.2556 O.3     1  UNL1       -0.3242
     43 O         -23.6194    3.0402   25.3315 O.2     1  UNL1       -0.2866
     44 C         -27.6181    0.0498   29.2124 C.3     1  UNL1        0.1476
@<TRIPOS>BOND
     1     1    28    1
     2     2     7    1
     3     2     1    1
     4     3     2    2
     5     4     3    1
     6     4     5    2
     7     5     6    1
     8     6     7    2
     9     8     1    1
    10     8     9    1
    11     8    12    1
    12     9    10    1
    13    10    11    1
    14    12    11    1
    15    13    35    1
    16    14    13    1
    17    14    15    1
    18    15    18    2
    19    16    17    1
    20    16    15    1
    21    19    14    2
    22    20    21    2
    23    20    19    1
    24    21    26    1
    25    22    21    1
    26    23    22    1
    27    24    23    1
    28    24    25    1
    29    26    27    1
    30    26    13    2
    31    28    34    1
    32    29    41    1
    33    30    44    1
    34    31    33    1
    35    32    31    2
    36    32    35    1
    37    33    38    2
    38    35    40    2
    39    37    30    1
    40    37    29    1
    41    38    36    1
    42    39    42    1
    43    40    38    1
    44    40    28    1
    45    41    42    1
    46    43    32    1
    47    44    34    1
    48    44    39    1
