@<TRIPOS>MOLECULE
outputs/IAG933/test6/raw/output_4536_IAG933_linker_design_.xyz
 41 43 0 0 0
SMALL
GASTEIGER

@<TRIPOS>ATOM
      1 C         -24.8550   -1.0120   30.1430 C.3     1  UNL1        0.0508
      2 C         -24.9730   -2.5050   29.7880 C.2     1  UNL1       -0.0202
      3 C         -23.9060   -3.1730   29.1460 C.2     1  UNL1       -0.0042
      4 C         -23.9890   -4.5490   28.8530 C.2     1  UNL1       -0.0003
      5 C         -25.1370   -5.2800   29.2050 C.2     1  UNL1       -0.0000
      6 C         -26.2320   -4.6110   29.7840 C.2     1  UNL1       -0.0003
      7 C         -26.1550   -3.2320   30.0650 C.2     1  UNL1       -0.0042
      8 C         -25.3870   -0.6790   31.5710 C.3     1  UNL1        0.0778
      9 C         -25.1890    0.7730   32.0280 C.3     1  UNL1        0.0192
     10 C         -25.3360    0.6840   33.5440 C.3     1  UNL1        0.0202
     11 C         -24.8290   -0.7150   33.9050 C.3     1  UNL1        0.0887
     12 N         -24.7580   -1.4810   32.6460 N.3     1  UNL1       -0.2191
     13 C         -25.6880    1.6140   26.4610 C.3     1  UNL1        0.0706
     14 C         -26.2500    2.9200   26.3950 C.2     1  UNL1        0.0548
     15 C         -25.6420    4.0930   27.1230 C.2     1  UNL1        0.2624
     16 N         -25.6140    5.2520   26.4490 N.am    1  UNL1       -0.2000
     17 C         -25.0260    6.4790   26.9630 C.3     1  UNL1        0.1388
     18 O         -25.1430    3.9660   28.2430 O.2     1  UNL1       -0.2687
     19 C         -27.4380    3.0910   25.6450 C.2     1  UNL1        0.1021
     20 N         -28.0750    2.0890   25.0030 N.2     1  UNL1       -0.2119
     21 C         -27.5430    0.8490   25.0790 C.2     1  UNL1        0.2341
     22 O         -28.1930   -0.2080   24.4770 O.2     1  UNL1       -0.4585
     23 C         -29.4600    0.0050   23.8660 C.3     1  UNL1        0.2423
     24 C         -30.0650   -1.3770   23.5730 C.3     1  UNL1        0.2292
     25 O         -30.7290   -1.8780   24.7210 O.3     1  UNL1       -0.2162
     26 C         -26.3540    0.5760   25.7770 C.3     1  UNL1        0.2400
     27 F         -25.8600   -0.6810   25.7950 F       1  UNL1       -0.2269
     28 O         -22.4055   -0.6390   28.6944 O.2     1  UNL1       -0.2837
     29 C         -28.1956    0.9228   29.0021 C.1     1  UNL1        0.0555
     30 O         -31.8490   -1.8007   27.7025 O.co2   1  UNL1       -0.2456
     31 C         -31.6104   -0.6805   27.1472 C.2     1  UNL1        0.3675
     32 S         -21.5742    1.5202   27.5803 S.3     1  UNL1       -0.0109
     33 C         -30.2611    1.3169   27.8670 C.3     1  UNL1        0.1724
     34 C         -26.9468    0.2768   29.0521 C.1     1  UNL1       -0.0619
     35 C         -25.3473   -0.1996   28.8797 C.3     1  UNL1        0.0795
     36 C         -30.2078   -0.1083   27.2377 C.3     1  UNL1        0.1475
     37 C         -24.2783    0.8257   28.3257 C.3     1  UNL1        0.0817
     38 O         -32.4588    0.1042   26.5721 O.co2   1  UNL1       -0.2456
     39 O         -29.3685    1.4559   28.9869 O.3     1  UNL1       -0.2834
     40 C         -24.2812    1.3242   26.8433 C.3     1  UNL1        0.0171
     41 C         -22.8039    0.4536   28.3381 C.2     1  UNL1        0.2093
@<TRIPOS>BOND
     1     1    35    1
     2     2     7    1
     3     2     1    1
     4     3     2    2
     5     4     3    1
     6     4     5    2
     7     5     6    1
     8     6     7    2
     9     8     1    1
    10     8     9    1
    11     8    12    1
    12     9    10    1
    13    10    11    1
    14    12    11    1
    15    13    40    1
    16    14    13    1
    17    14    15    1
    18    15    18    2
    19    16    17    1
    20    16    15    1
    21    19    14    2
    22    20    21    2
    23    20    19    1
    24    21    26    1
    25    22    21    1
    26    23    22    1
    27    24    23    1
    28    24    25    1
    29    26    27    1
    30    26    13    1
    31    29    34    3
    32    31    36    1
    33    31    30   ar
    34    32    41    1
    35    33    39    1
    36    35    34    1
    37    36    33    1
    38    37    40    1
    39    37    41    1
    40    37    35    1
    41    38    31   ar
    42    39    29    1
    43    41    28    2
