@<TRIPOS>MOLECULE
No_4538-gen_results/8p0m/2024-11-27-11-27-31/
 26 27 0 0 0
SMALL
GASTEIGER

@<TRIPOS>ATOM
      1 C         -28.0162   -0.8135   28.8779 C.ar    1  UNL1        0.0369
      2 C         -27.0636   -0.1189   28.6079 C.ar    1  UNL1        0.0031
      3 C         -25.7647   -0.3897   29.0360 C.ar    1  UNL1        0.0002
      4 C         -25.5296   -1.5302   29.9014 C.ar    1  UNL1        0.0031
      5 C         -26.6888   -2.2893   30.1810 C.ar    1  UNL1        0.0369
      6 C         -27.8727   -1.9508   29.7373 C.ar    1  UNL1        0.1387
      7 O         -28.9304   -2.7298   30.1154 O.3     1  UNL1       -0.4727
      8 C         -24.5394    0.4211   28.7421 C.ar    1  UNL1        0.0000
      9 C         -24.5259    1.2743   27.7266 C.ar    1  UNL1        0.0000
     10 C         -23.3174    1.9856   27.4033 C.ar    1  UNL1        0.0000
     11 C         -22.1311    1.7374   28.0503 C.ar    1  UNL1        0.0000
     12 C         -23.2983    0.1369   29.3771 C.ar    1  UNL1        0.0000
     13 C         -22.1005    0.8185   29.0410 C.ar    1  UNL1        0.0000
     14 C         -28.7825   -3.9930   30.6421 C.3     1  UNL1        0.2385
     15 C         -29.8370   -4.2773   31.6061 C.3     1  UNL1        0.2045
     16 C         -30.3109   -3.3049   32.2166 C.3     1  UNL1        0.1239
     17 O         -29.3659   -5.3360   32.5052 O.3     1  UNL1       -0.2186
     18 C         -31.5061   -3.5430   32.9788 C.2     1  UNL1        0.2483
     19 O         -31.7754   -4.5745   33.2275 O.2     1  UNL1       -0.2729
     20 N         -32.1895   -2.4302   33.4628 N.am    1  UNL1       -0.1778
     21 C         -31.8382   -1.0653   33.3031 C.2     1  UNL1        0.0886
     22 C         -30.8904   -0.6651   34.0500 C.2     1  UNL1        0.0179
     23 C         -30.1142    0.0825   34.1096 C.2     1  UNL1        0.0014
     24 C         -28.9931    0.4615   35.0365 C.2     1  UNL1        0.0000
     25 C         -28.8726   -0.4545   36.0669 C.2     1  UNL1        0.0000
     26 C         -29.7055   -1.5470   36.1351 C.2     1  UNL1        0.0000
@<TRIPOS>BOND
     1     6     7    1
     2     3     8    1
     3     7    14    1
     4    14    15    1
     5    15    16    1
     6    15    17    1
     7    16    18    1
     8    18    19    2
     9    18    20   am
    10    20    21    1
    11    21    22    2
    12    22    23    1
    13    23    24    2
    14    24    25    1
    15    25    26    2
    16     1     2   ar
    17     2     3   ar
    18     3     4   ar
    19     4     5   ar
    20     5     6   ar
    21     6     1   ar
    22     8     9   ar
    23     9    10   ar
    24    10    11   ar
    25    11    13   ar
    26    13    12   ar
    27    12     8   ar
