@<TRIPOS>MOLECULE
No_4539-gen_results/8p0m/2024-11-27-11-27-31/
 30 32 0 0 0
SMALL
GASTEIGER

@<TRIPOS>ATOM
      1 C         -28.0162   -0.8135   28.8779 C.2     1  UNL1        0.2648
      2 C         -27.0636   -0.1189   28.6079 C.ar    1  UNL1        0.0550
      3 C         -25.7923   -0.4302   29.0761 C.ar    1  UNL1        0.0047
      4 C         -24.5456    0.3494   28.8225 C.ar    1  UNL1        0.0048
      5 C         -24.6586    1.4196   27.8878 C.ar    1  UNL1        0.0567
      6 C         -25.9471    1.6811   27.3792 C.ar    1  UNL1        0.0048
      7 C         -27.0439    0.9739   27.6871 C.ar    1  UNL1        0.0047
      8 N         -27.9736   -1.7264   29.9612 N.am    1  UNL1       -0.2008
      9 O         -29.1042   -0.7485   28.3318 O.2     1  UNL1       -0.2684
     10 C         -29.0723   -2.5820   30.4170 C.3     1  UNL1        0.1277
     11 C         -23.4554    2.1714   27.6169 C.2     1  UNL1        0.2842
     12 O         -23.4857    3.1686   26.9639 O.2     1  UNL1       -0.2667
     13 N         -22.2615    1.8351   28.2062 N.am    1  UNL1       -0.0837
     14 C         -28.7638   -3.9284   30.4546 C.3     1  UNL1        0.0597
     15 C         -29.3623   -4.6475   31.4698 C.3     1  UNL1        0.1810
     16 C         -30.7634   -4.5428   31.3843 C.3     1  UNL1        0.1495
     17 O         -31.2941   -3.2389   31.4986 O.3     1  UNL1       -0.3515
     18 C         -30.2922   -2.0912   30.9975 C.3     1  UNL1        0.1638
     19 O         -28.9688   -6.0590   31.4349 O.3     1  UNL1       -0.2205
     20 C         -31.4109   -5.1272   30.1739 C.3     1  UNL1        0.0522
     21 C         -31.7715   -6.4154   30.2728 C.ar    1  UNL1       -0.0165
     22 C         -32.0771   -6.8920   31.4272 C.ar    1  UNL1       -0.0041
     23 C         -32.5168   -8.2918   31.5918 C.ar    1  UNL1       -0.0003
     24 C         -32.6163   -9.0675   30.4148 C.ar    1  UNL1        0.0001
     25 C         -32.2769   -8.5865   29.1792 C.ar    1  UNL1        0.0034
     26 C         -31.8678   -7.2388   29.0598 C.ar    1  UNL1        0.0416
     27 C         -31.5140   -6.7465   27.7341 C.2     1  UNL1        0.2289
     28 BR        -31.9164   -7.0975   26.7160 Br      1  UNL1       -0.0031
     29 O         -30.6265   -5.6496   27.9707 O.2     1  UNL1       -0.2793
     30 C         -31.6422   -4.3717   29.0696 C.3     1  UNL1        0.0073
@<TRIPOS>BOND
     1     1     2    1
     2     1     8   am
     3     1     9    2
     4     8    10    1
     5     5    11    1
     6    11    12    2
     7    11    13   am
     8    10    14    1
     9    14    15    1
    10    15    16    1
    11    16    17    1
    12    10    18    1
    13    17    18    1
    14    15    19    1
    15    16    20    1
    16    26    27    1
    17    27    28    1
    18    27    29    2
    19    20    30    1
    20    20    21    1
    21     2     3   ar
    22     3     4   ar
    23     4     5   ar
    24     5     6   ar
    25     6     7   ar
    26     7     2   ar
    27    21    22   ar
    28    22    23   ar
    29    23    24   ar
    30    24    25   ar
    31    25    26   ar
    32    26    21   ar
