@<TRIPOS>MOLECULE
outputs/IAG933/test6/raw/output_454_IAG933_linker_design_.xyz
 40 42 0 0 0
SMALL
GASTEIGER

@<TRIPOS>ATOM
      1 C         -24.8550   -1.0120   30.1430 C.3     1  UNL1        0.0438
      2 C         -24.9730   -2.5050   29.7880 C.2     1  UNL1       -0.0208
      3 C         -23.9060   -3.1730   29.1460 C.2     1  UNL1       -0.0042
      4 C         -23.9890   -4.5490   28.8530 C.2     1  UNL1       -0.0003
      5 C         -25.1370   -5.2800   29.2050 C.2     1  UNL1       -0.0000
      6 C         -26.2320   -4.6110   29.7840 C.2     1  UNL1       -0.0003
      7 C         -26.1550   -3.2320   30.0650 C.2     1  UNL1       -0.0042
      8 C         -25.3870   -0.6790   31.5710 C.3     1  UNL1        0.0788
      9 C         -25.1890    0.7730   32.0280 C.3     1  UNL1        0.0384
     10 C         -25.3360    0.6840   33.5440 C.3     1  UNL1        0.0219
     11 C         -24.8290   -0.7150   33.9050 C.3     1  UNL1        0.0888
     12 N         -24.7580   -1.4810   32.6460 N.3     1  UNL1       -0.2191
     13 C         -25.6880    1.6140   26.4610 C.2     1  UNL1        0.1780
     14 C         -26.2500    2.9200   26.3950 C.2     1  UNL1        0.1105
     15 C         -25.6420    4.0930   27.1230 C.2     1  UNL1        0.2694
     16 N         -25.6140    5.2520   26.4490 N.am    1  UNL1       -0.1996
     17 C         -25.0260    6.4790   26.9630 C.3     1  UNL1        0.1388
     18 O         -25.1430    3.9660   28.2430 O.2     1  UNL1       -0.2682
     19 C         -27.4380    3.0910   25.6450 C.2     1  UNL1        0.1098
     20 N         -28.0750    2.0890   25.0030 N.2     1  UNL1       -0.2079
     21 C         -27.5430    0.8490   25.0790 C.2     1  UNL1        0.2564
     22 O         -28.1930   -0.2080   24.4770 O.2     1  UNL1       -0.4558
     23 C         -29.4600    0.0050   23.8660 C.3     1  UNL1        0.2426
     24 C         -30.0650   -1.3770   23.5730 C.3     1  UNL1        0.2292
     25 O         -30.7290   -1.8780   24.7210 O.3     1  UNL1       -0.2162
     26 C         -26.3540    0.5760   25.7770 C.2     1  UNL1        0.2267
     27 F         -25.8600   -0.6810   25.7950 F       1  UNL1       -0.1960
     28 C         -23.2643    1.2785   26.8894 C.3     1  UNL1        0.2841
     29 N         -23.9023    1.8221   30.0393 N.am    1  UNL1       -0.2043
     30 O         -24.5779    5.2144   30.8182 O.co2   1  UNL1       -0.2456
     31 O         -22.5125    0.1256   30.0566 O.2     1  UNL1       -0.2704
     32 O         -20.9786    1.9095   27.8097 O.3     1  UNL1       -0.2078
     33 CL        -22.7425    1.7156   25.2988 Cl      1  UNL1       -0.0651
     34 C         -24.5402    3.1333   32.1462 C.3     1  UNL1        0.1357
     35 O         -25.2593    5.1741   32.9416 O.co2   1  UNL1       -0.2456
     36 C         -24.5851    1.8651   31.2461 C.3     1  UNL1        0.1080
     37 C         -22.2518    1.4765   28.0373 C.3     1  UNL1        0.2843
     38 C         -24.8141    4.5101   31.9188 C.2     1  UNL1        0.3666
     39 O         -24.6607    1.2046   27.2811 O.2     1  UNL1       -0.4574
     40 C         -22.9274    1.1313   29.4993 C.2     1  UNL1        0.2769
@<TRIPOS>BOND
     1     2     7    1
     2     2     1    1
     3     3     2    2
     4     4     3    1
     5     4     5    2
     6     5     6    1
     7     6     7    2
     8     8     1    1
     9     8     9    1
    10     8    12    1
    11     9    36    1
    12     9    10    1
    13    10    11    1
    14    12    11    1
    15    13    39    1
    16    14    13    1
    17    14    15    1
    18    15    18    2
    19    16    17    1
    20    16    15    1
    21    19    14    2
    22    20    21    2
    23    20    19    1
    24    21    26    1
    25    22    21    1
    26    23    22    1
    27    24    23    1
    28    24    25    1
    29    26    27    1
    30    26    13    2
    31    28    33    1
    32    28    39    1
    33    28    37    1
    34    29    36    1
    35    30    38   ar
    36    36    34    1
    37    37    32    1
    38    37    40    1
    39    38    34    1
    40    38    35   ar
    41    40    29    1
    42    40    31    2
