@<TRIPOS>MOLECULE
No_4541-gen_results/8p0m/2024-11-27-11-27-31/
 29 31 0 0 0
SMALL
GASTEIGER

@<TRIPOS>ATOM
      1 C         -28.0162   -0.8135   28.8779 C.ar    1  UNL1        0.0011
      2 C         -28.4690   -0.7850   29.8287 C.ar    1  UNL1       -0.0001
      3 C         -27.0871    0.2903   28.6377 C.ar    1  UNL1        0.0398
      4 C         -26.2516    0.4114   27.4223 C.3     1  UNL1        0.2938
      5 C         -28.3913    0.1041   30.9805 C.ar    1  UNL1       -0.0000
      6 C         -27.5332    1.1666   30.7866 C.ar    1  UNL1       -0.0001
      7 C         -26.8281    1.2557   29.6454 C.ar    1  UNL1        0.0011
      8 C         -25.7328    1.6893   27.1547 C.2     1  UNL1        0.0368
      9 C         -24.6744    1.7805   26.3311 C.2     1  UNL1       -0.0205
     10 C         -23.4889    1.8297   26.5696 C.3     1  UNL1        0.0518
     11 C         -22.9285    1.7818   27.9020 C.2     1  UNL1       -0.0214
     12 C         -21.5042    1.4920   28.0661 C.2     1  UNL1       -0.0046
     13 C         -20.9746    0.4231   28.1767 C.2     1  UNL1       -0.0046
     14 F         -27.0217    0.0088   26.3656 F       1  UNL1       -0.1972
     15 O         -25.1636   -0.6152   27.5345 O.3     1  UNL1       -0.1804
     16 C         -21.5190   -0.4920   29.1652 C.2     1  UNL1       -0.0214
     17 C         -22.8159   -0.6894   29.3294 C.3     1  UNL1        0.0539
     18 C         -23.2963   -0.6959   30.5508 C.ar    1  UNL1        0.0014
     19 C         -24.1929   -0.1444   31.1056 C.ar    1  UNL1       -0.0008
     20 C         -24.6806   -0.2180   32.4603 C.ar    1  UNL1        0.0204
     21 C         -24.0243   -1.1439   33.2436 C.ar    1  UNL1        0.0989
     22 C         -22.7863   -1.6922   31.6573 C.ar    1  UNL1        0.0949
     23 N         -23.0457   -1.7582   32.8513 N.ar    1  UNL1       -0.2426
     24 C         -27.4221    2.2274   31.8404 C.ar    1  UNL1       -0.0000
     25 C         -26.5261    3.2361   31.6248 C.ar    1  UNL1       -0.0000
     26 C         -26.2463    4.1853   32.6420 C.ar    1  UNL1       -0.0000
     27 C         -26.8411    4.1093   33.9010 C.ar    1  UNL1        0.0000
     28 C         -27.7341    3.0183   34.0809 C.ar    1  UNL1       -0.0000
     29 C         -27.9596    2.0883   33.0945 C.ar    1  UNL1       -0.0000
@<TRIPOS>BOND
     1     3     4    1
     2     4     8    1
     3     8     9    2
     4     9    10    1
     5    10    11    1
     6    11    12    2
     7    12    13    1
     8     4    14    1
     9     4    15    1
    10    13    16    2
    11    16    17    1
    12    17    18    1
    13     6    24    1
    14    18    19   ar
    15    19    20   ar
    16    20    21   ar
    17    21    23   ar
    18    23    22   ar
    19    22    18   ar
    20    24    25   ar
    21    25    26   ar
    22    26    27   ar
    23    27    28   ar
    24    28    29   ar
    25    29    24   ar
    26     1     2   ar
    27     2     5   ar
    28     5     6   ar
    29     6     7   ar
    30     7     3   ar
    31     3     1   ar
