@<TRIPOS>MOLECULE
No_4544-gen_results/8p0m/2024-11-27-11-27-31/
 8 8 0 0 0
SMALL
GASTEIGER

@<TRIPOS>ATOM
      1 C         -28.0162   -0.8135   28.8779 C.ar    1  UNL1        0.0369
      2 C         -28.4690   -0.7850   29.8287 C.ar    1  UNL1        0.1387
      3 C         -27.0871    0.2903   28.6377 C.ar    1  UNL1        0.0031
      4 C         -26.0239    0.3644   29.2526 C.ar    1  UNL1        0.0002
      5 C         -27.5370   -0.6187   31.0883 C.ar    1  UNL1        0.0369
      6 C         -26.3844    0.1834   30.8012 C.ar    1  UNL1        0.0031
      7 O         -29.5244   -1.6147   30.2656 O.3     1  UNL1       -0.4714
      8 C         -29.5206   -2.7654   30.7455 C.3     1  UNL1        0.2525
@<TRIPOS>BOND
     1     2     7    1
     2     7     8    1
     3     1     2   ar
     4     2     5   ar
     5     5     6   ar
     6     6     4   ar
     7     4     3   ar
     8     3     1   ar
