@<TRIPOS>MOLECULE
outputs/IAG933/test6/raw/output_4546_IAG933_linker_design_.xyz
 42 45 0 0 0
SMALL
GASTEIGER

@<TRIPOS>ATOM
      1 C         -24.8550   -1.0120   30.1430 C.3     1  UNL1        0.0626
      2 C         -24.9730   -2.5050   29.7880 C.2     1  UNL1       -0.0191
      3 C         -23.9060   -3.1730   29.1460 C.2     1  UNL1       -0.0042
      4 C         -23.9890   -4.5490   28.8530 C.2     1  UNL1       -0.0003
      5 C         -25.1370   -5.2800   29.2050 C.2     1  UNL1       -0.0000
      6 C         -26.2320   -4.6110   29.7840 C.2     1  UNL1       -0.0003
      7 C         -26.1550   -3.2320   30.0650 C.2     1  UNL1       -0.0042
      8 C         -25.3870   -0.6790   31.5710 C.3     1  UNL1        0.0788
      9 C         -25.1890    0.7730   32.0280 C.3     1  UNL1        0.0193
     10 C         -25.3360    0.6840   33.5440 C.3     1  UNL1        0.0202
     11 C         -24.8290   -0.7150   33.9050 C.3     1  UNL1        0.0887
     12 N         -24.7580   -1.4810   32.6460 N.3     1  UNL1       -0.2191
     13 C         -25.6880    1.6140   26.4610 C.2     1  UNL1        0.0379
     14 C         -26.2500    2.9200   26.3950 C.2     1  UNL1        0.0765
     15 C         -25.6420    4.0930   27.1230 C.2     1  UNL1        0.2664
     16 N         -25.6140    5.2520   26.4490 N.am    1  UNL1       -0.1997
     17 C         -25.0260    6.4790   26.9630 C.3     1  UNL1        0.1388
     18 O         -25.1430    3.9660   28.2430 O.2     1  UNL1       -0.2683
     19 C         -27.4380    3.0910   25.6450 C.2     1  UNL1        0.1067
     20 N         -28.0750    2.0890   25.0030 N.2     1  UNL1       -0.2081
     21 C         -27.5430    0.8490   25.0790 C.2     1  UNL1        0.2533
     22 O         -28.1930   -0.2080   24.4770 O.2     1  UNL1       -0.4558
     23 C         -29.4600    0.0050   23.8660 C.3     1  UNL1        0.2426
     24 C         -30.0650   -1.3770   23.5730 C.3     1  UNL1        0.2292
     25 O         -30.7290   -1.8780   24.7210 O.3     1  UNL1       -0.2162
     26 C         -26.3540    0.5760   25.7770 C.2     1  UNL1        0.1930
     27 F         -25.8600   -0.6810   25.7950 F       1  UNL1       -0.1992
     28 C         -25.4793    0.0266   29.0289 C.3     1  UNL1        0.1259
     29 C         -24.2719    0.5710   28.1822 C.2     1  UNL1        0.0368
     30 C         -22.7833    0.3389   28.7278 C.2     1  UNL1        0.1933
     31 N         -28.8112   -0.2341   32.4220 N.3     1  UNL1       -0.1202
     32 C         -21.7417    0.9825   27.8276 C.2     1  UNL1        0.0418
     33 O         -22.2076   -0.3498   29.7501 O.2     1  UNL1       -0.2869
     34 C         -22.0717    1.6175   26.6244 C.2     1  UNL1        0.0033
     35 C         -24.4512    1.2928   27.0127 C.2     1  UNL1        0.0032
     36 C         -30.6167   -0.1142   30.8564 C.3     1  UNL1        0.2103
     37 C         -23.3708    1.8065   26.1747 C.2     1  UNL1        0.0000
     38 O         -28.9753   -0.7161   28.6959 O.2     1  UNL1       -0.2717
     39 CA        -29.1357   -0.3227   30.9947 C.3     1  UNL1        0.2020
     40 C         -28.4045   -0.3575   29.6266 C.2     1  UNL1        0.2617
     41 O         -30.8735    0.9676   31.8029 O.3     1  UNL1       -0.2182
     42 N         -27.1069    0.0981   29.2763 N.am    1  UNL1       -0.2009
@<TRIPOS>BOND
     1     1    28    1
     2     2     7    1
     3     2     1    1
     4     3     2    2
     5     4     3    1
     6     4     5    2
     7     5     6    1
     8     6     7    2
     9     8     1    1
    10     8     9    1
    11     8    12    1
    12     9    10    1
    13    10    11    1
    14    12    11    1
    15    13    35    1
    16    14    13    1
    17    14    15    1
    18    15    18    2
    19    16    17    1
    20    16    15    1
    21    19    14    2
    22    20    21    2
    23    20    19    1
    24    21    26    1
    25    22    21    1
    26    23    22    1
    27    24    23    1
    28    24    25    1
    29    26    27    1
    30    26    13    2
    31    28    42    1
    32    29    30    1
    33    29    28    1
    34    30    33    1
    35    32    30    2
    36    34    32    1
    37    35    29    2
    38    36    39    1
    39    36    41    1
    40    37    34    2
    41    37    35    1
    42    38    40    2
    43    39    31    1
    44    40    39    1
    45    42    40    1
