@<TRIPOS>MOLECULE
No_4547-gen_results/8p0m/2024-11-27-11-27-31/
 15 15 0 0 0
SMALL
GASTEIGER

@<TRIPOS>ATOM
      1 C         -28.0162   -0.8135   28.8779 C.3     1  UNL1        0.0523
      2 C         -27.0636   -0.1189   28.6079 C.ar    1  UNL1       -0.0178
      3 C         -26.8756    1.1325   28.9134 C.ar    1  UNL1       -0.0042
      4 C         -25.6883    1.9515   28.5672 C.ar    1  UNL1       -0.0032
      5 C         -24.6394    1.2834   27.8753 C.ar    1  UNL1       -0.0049
      6 C         -24.8068   -0.0513   27.6040 C.ar    1  UNL1       -0.0032
      7 C         -25.9019   -0.7670   27.9511 C.ar    1  UNL1       -0.0042
      8 C         -29.2125   -0.1153   29.1222 C.2     1  UNL1       -0.0214
      9 C         -30.3508   -0.8179   29.5782 C.2     1  UNL1       -0.0046
     10 C         -23.4273    1.9807   27.5087 C.3     1  UNL1        0.1140
     11 N         -22.2697    2.2044   28.1026 N.3     1  UNL1       -0.1281
     12 C         -23.4523    2.4951   26.0877 C.3     1  UNL1        0.0253
     13 C         -31.6040   -0.3556   29.3145 C.2     1  UNL1       -0.0049
     14 C         -31.7660    0.9436   28.8611 C.2     1  UNL1       -0.0258
     15 C         -30.6685    1.6553   28.4499 C.3     1  UNL1        0.0307
@<TRIPOS>BOND
     1     1     8    1
     2     8     9    2
     3     5    10    1
     4    10    11    1
     5    10    12    1
     6     9    13    1
     7    13    14    2
     8    14    15    1
     9     1     2    1
    10     2     3   ar
    11     3     4   ar
    12     4     5   ar
    13     5     6   ar
    14     6     7   ar
    15     7     2   ar
