@<TRIPOS>MOLECULE
No_4549-gen_results/8p0m/2024-11-27-11-27-31/
 17 18 0 0 0
SMALL
GASTEIGER

@<TRIPOS>ATOM
      1 C         -28.0162   -0.8135   28.8779 C.ar    1  UNL1        0.0035
      2 C         -28.4690   -0.7850   29.8287 C.ar    1  UNL1        0.0795
      3 C         -26.5455   -0.8762   28.8500 C.ar    1  UNL1       -0.0070
      4 C         -25.8041   -1.0324   30.0571 C.ar    1  UNL1        0.0540
      5 C         -27.9437   -0.9869   31.2075 C.ar    1  UNL1        0.0074
      6 C         -26.5825   -1.0386   31.2231 C.ar    1  UNL1        0.0113
      7 C         -30.0606   -0.7371   29.9024 C.2     1  UNL1        0.3877
      8 O         -30.7252   -1.5544   30.2697 O.co2   1  UNL1       -0.2406
      9 O         -30.5512    0.3780   29.3541 O.co2   1  UNL1       -0.2406
     10 CL        -24.1297   -1.1091   30.0727 Cl      1  UNL1       -0.0826
     11 C         -25.6722   -0.7923   27.6135 C.3     1  UNL1        0.0535
     12 C         -26.0117    0.1673   26.6384 C.ar    1  UNL1       -0.0178
     13 C         -25.1235    0.4739   25.6678 C.ar    1  UNL1       -0.0039
     14 C         -26.8942    1.1918   26.8003 C.ar    1  UNL1       -0.0039
     15 C         -27.1554    2.1334   25.8583 C.ar    1  UNL1       -0.0003
     16 C         -25.2197    1.3752   24.6502 C.ar    1  UNL1       -0.0003
     17 C         -26.2683    2.2413   24.7920 C.ar    1  UNL1       -0.0000
@<TRIPOS>BOND
     1     2     7    1
     2     7     8   ar
     3     7     9   ar
     4     4    10    1
     5     3    11    1
     6    11    12    1
     7     1     2   ar
     8     2     5   ar
     9     5     6   ar
    10     6     4   ar
    11     4     3   ar
    12     3     1   ar
    13    12    13   ar
    14    13    16   ar
    15    16    17   ar
    16    17    15   ar
    17    15    14   ar
    18    14    12   ar
