@<TRIPOS>MOLECULE
No_4553-gen_results/8p0m/2024-11-27-11-27-31/
 17 18 0 0 0
SMALL
GASTEIGER

@<TRIPOS>ATOM
      1 C         -28.0162   -0.8135   28.8779 C.ar    1  UNL1        0.0027
      2 C         -27.0636   -0.1189   28.6079 C.ar    1  UNL1        0.0347
      3 C         -25.7923   -0.4302   29.0761 C.ar    1  UNL1        0.0049
      4 C         -25.5756   -1.5654   29.9363 C.ar    1  UNL1       -0.0041
      5 C         -26.7354   -2.3004   30.2173 C.ar    1  UNL1       -0.0222
      6 C         -26.5841   -3.5078   30.9846 C.3     1  UNL1        0.0264
      7 C         -27.9637   -1.9827   29.6995 C.ar    1  UNL1       -0.0042
      8 C         -26.7225   -4.5963   29.9096 C.3     1  UNL1        0.0050
      9 C         -27.1228    1.1766   27.7964 C.ar    1  UNL1        0.1476
     10 C         -26.2463    1.4482   26.9231 C.ar    1  UNL1        0.0671
     11 C         -24.8904    0.8483   27.0595 C.ar    1  UNL1        0.1432
     12 C         -24.6587   -0.0715   28.0818 C.ar    1  UNL1        0.0298
     13 F         -23.8457    1.3479   26.4579 F       1  UNL1       -0.2041
     14 O         -28.3577    1.7130   27.6533 O.3     1  UNL1       -0.4507
     15 C         -28.9632    2.2646   28.6577 C.2     1  UNL1        0.1750
     16 C         -30.3029    2.0459   28.7970 C.2     1  UNL1        0.0148
     17 C         -31.0052    2.6016   29.9150 C.3     1  UNL1        0.0341
@<TRIPOS>BOND
     1     5     6    1
     2     6     8    1
     3    11    13    1
     4     9    14    1
     5    14    15    1
     6    15    16    2
     7    16    17    1
     8     1     2   ar
     9     3     4   ar
    10     4     5   ar
    11     5     7   ar
    12     7     1   ar
    13     2     3   ar
    14     3    12   ar
    15    12    11   ar
    16    11    10   ar
    17    10     9   ar
    18     9     2   ar
