@<TRIPOS>MOLECULE
No_4559-gen_results/8p0m/2024-11-27-11-27-31/
 14 14 0 0 0
SMALL
GASTEIGER

@<TRIPOS>ATOM
      1 C         -28.0162   -0.8135   28.8779 C.ar    1  UNL1       -0.0040
      2 C         -28.4690   -0.7850   29.8287 C.ar    1  UNL1       -0.0003
      3 C         -27.1356    0.2359   28.5352 C.ar    1  UNL1       -0.0184
      4 C         -26.8745    1.2825   29.3982 C.ar    1  UNL1       -0.0040
      5 C         -27.5070    1.2380   30.6295 C.ar    1  UNL1       -0.0003
      6 C         -28.3293    0.1745   30.9350 C.ar    1  UNL1       -0.0000
      7 C         -26.4077    0.3070   27.2259 C.3     1  UNL1        0.0443
      8 C         -25.0105    0.3902   27.3228 C.3     1  UNL1        0.0094
      9 C         -27.0459    0.3288   26.0049 C.2     1  UNL1       -0.0221
     10 C         -28.4007    0.3616   25.8738 C.2     1  UNL1       -0.0043
     11 C         -28.9055    0.3275   24.5419 C.2     1  UNL1       -0.0003
     12 C         -30.2916    0.2919   24.3722 C.2     1  UNL1       -0.0000
     13 C         -31.1320    0.2912   25.4912 C.2     1  UNL1       -0.0000
     14 C         -30.6020    0.3043   26.7825 C.2     1  UNL1       -0.0000
@<TRIPOS>BOND
     1     3     7    1
     2     7     8    1
     3     7     9    1
     4     9    10    2
     5    10    11    1
     6    11    12    2
     7    12    13    1
     8    13    14    2
     9     1     2   ar
    10     2     6   ar
    11     6     5   ar
    12     5     4   ar
    13     4     3   ar
    14     3     1   ar
