@<TRIPOS>MOLECULE
outputs/IAG933/test6/raw/output_456_IAG933_linker_design_.xyz
 45 49 0 0 0
SMALL
GASTEIGER

@<TRIPOS>ATOM
      1 C         -24.8550   -1.0120   30.1430 C.3     1  UNL1        0.0585
      2 C         -24.9730   -2.5050   29.7880 C.2     1  UNL1       -0.0195
      3 C         -23.9060   -3.1730   29.1460 C.2     1  UNL1       -0.0042
      4 C         -23.9890   -4.5490   28.8530 C.2     1  UNL1       -0.0003
      5 C         -25.1370   -5.2800   29.2050 C.2     1  UNL1       -0.0000
      6 C         -26.2320   -4.6110   29.7840 C.2     1  UNL1       -0.0003
      7 C         -26.1550   -3.2320   30.0650 C.2     1  UNL1       -0.0042
      8 C         -25.3870   -0.6790   31.5710 C.3     1  UNL1        0.0785
      9 C         -25.1890    0.7730   32.0280 C.3     1  UNL1        0.0192
     10 C         -25.3360    0.6840   33.5440 C.3     1  UNL1        0.0202
     11 C         -24.8290   -0.7150   33.9050 C.3     1  UNL1        0.0887
     12 N         -24.7580   -1.4810   32.6460 N.3     1  UNL1       -0.2191
     13 C         -25.6880    1.6140   26.4610 C.2     1  UNL1        0.0379
     14 C         -26.2500    2.9200   26.3950 C.2     1  UNL1        0.0765
     15 C         -25.6420    4.0930   27.1230 C.2     1  UNL1        0.2664
     16 N         -25.6140    5.2520   26.4490 N.am    1  UNL1       -0.1997
     17 C         -25.0260    6.4790   26.9630 C.3     1  UNL1        0.1388
     18 O         -25.1430    3.9660   28.2430 O.2     1  UNL1       -0.2683
     19 C         -27.4380    3.0910   25.6450 C.2     1  UNL1        0.1067
     20 N         -28.0750    2.0890   25.0030 N.2     1  UNL1       -0.2081
     21 C         -27.5430    0.8490   25.0790 C.2     1  UNL1        0.2533
     22 O         -28.1930   -0.2080   24.4770 O.2     1  UNL1       -0.4558
     23 C         -29.4600    0.0050   23.8660 C.3     1  UNL1        0.2426
     24 C         -30.0650   -1.3770   23.5730 C.3     1  UNL1        0.2292
     25 O         -30.7290   -1.8780   24.7210 O.3     1  UNL1       -0.2162
     26 C         -26.3540    0.5760   25.7770 C.2     1  UNL1        0.1930
     27 F         -25.8600   -0.6810   25.7950 F       1  UNL1       -0.1992
     28 O         -29.6374   -0.5886   27.6604 O.3     1  UNL1       -0.2213
     29 F         -21.4359    2.0408   25.8427 F       1  UNL1       -0.2018
     30 C         -24.5979    1.3933   27.1177 C.2     1  UNL1        0.0022
     31 C         -22.9754    0.4849   28.7125 C.2     1  UNL1        0.0291
     32 C         -24.3602    0.6023   28.3133 C.2     1  UNL1       -0.0037
     33 F         -20.6852    1.6200   28.2510 F       1  UNL1       -0.2018
     34 C         -23.5624    1.9414   26.4390 C.2     1  UNL1        0.0318
     35 C         -29.5597   -1.4498   29.8532 C.3     1  UNL1        0.0600
     36 C         -28.4760    1.0677   30.3162 C.3     1  UNL1        0.0402
     37 C         -29.0729   -0.5928   28.8729 C.3     1  UNL1        0.1725
     38 N         -26.7155    0.1446   28.9479 N.3     1  UNL1       -0.2132
     39 C         -29.5686   -0.9144   31.1386 C.2     1  UNL1       -0.0280
     40 C         -25.3864   -0.0246   29.0594 C.3     1  UNL1        0.1004
     41 C         -28.0790    2.4975   30.4064 C.3     1  UNL1        0.0062
     42 C         -21.9444    1.1517   27.9596 C.2     1  UNL1        0.1671
     43 C         -29.0866    0.3785   31.3456 C.2     1  UNL1       -0.0295
     44 C         -22.3202    1.6637   26.7675 C.2     1  UNL1        0.1674
     45 C         -28.0895    0.2810   29.2463 C.3     1  UNL1        0.1077
@<TRIPOS>BOND
     1     1    40    1
     2     2     7    1
     3     2     1    1
     4     3     2    2
     5     4     3    1
     6     4     5    2
     7     5     6    1
     8     6     7    2
     9     8     1    1
    10     8     9    1
    11     8    12    1
    12     9    10    1
    13    10    11    1
    14    12    11    1
    15    13    30    1
    16    14    13    1
    17    14    15    1
    18    15    18    2
    19    16    17    1
    20    16    15    1
    21    19    14    2
    22    20    21    2
    23    20    19    1
    24    21    26    1
    25    22    21    1
    26    23    22    1
    27    24    23    1
    28    24    25    1
    29    26    27    1
    30    26    13    2
    31    29    44    1
    32    30    32    1
    33    32    31    2
    34    32    40    1
    35    34    44    1
    36    34    30    2
    37    35    39    1
    38    36    41    1
    39    36    43    1
    40    37    28    1
    41    37    45    1
    42    37    35    1
    43    39    43    2
    44    40    38    1
    45    42    33    1
    46    42    31    1
    47    44    42    2
    48    45    38    1
    49    45    36    1
