@<TRIPOS>MOLECULE
outputs/IAG933/test6/raw/output_4560_IAG933_linker_design_.xyz
 41 44 0 0 0
SMALL
GASTEIGER

@<TRIPOS>ATOM
      1 C         -24.8550   -1.0120   30.1430 C.3     1  UNL1        0.1411
      2 C         -24.9730   -2.5050   29.7880 C.2     1  UNL1        0.0012
      3 C         -23.9060   -3.1730   29.1460 C.2     1  UNL1       -0.0024
      4 C         -23.9890   -4.5490   28.8530 C.2     1  UNL1       -0.0003
      5 C         -25.1370   -5.2800   29.2050 C.2     1  UNL1       -0.0000
      6 C         -26.2320   -4.6110   29.7840 C.2     1  UNL1       -0.0003
      7 C         -26.1550   -3.2320   30.0650 C.2     1  UNL1       -0.0024
      8 C         -25.3870   -0.6790   31.5710 C.3     1  UNL1        0.0993
      9 C         -25.1890    0.7730   32.0280 C.3     1  UNL1        0.0212
     10 C         -25.3360    0.6840   33.5440 C.3     1  UNL1        0.0203
     11 C         -24.8290   -0.7150   33.9050 C.3     1  UNL1        0.0888
     12 N         -24.7580   -1.4810   32.6460 N.3     1  UNL1       -0.2171
     13 C         -25.6880    1.6140   26.4610 C.3     1  UNL1        0.1111
     14 C         -26.2500    2.9200   26.3950 C.2     1  UNL1        0.0605
     15 C         -25.6420    4.0930   27.1230 C.2     1  UNL1        0.2628
     16 N         -25.6140    5.2520   26.4490 N.am    1  UNL1       -0.2000
     17 C         -25.0260    6.4790   26.9630 C.3     1  UNL1        0.1388
     18 O         -25.1430    3.9660   28.2430 O.2     1  UNL1       -0.2686
     19 C         -27.4380    3.0910   25.6450 C.2     1  UNL1        0.1025
     20 N         -28.0750    2.0890   25.0030 N.2     1  UNL1       -0.2118
     21 C         -27.5430    0.8490   25.0790 C.2     1  UNL1        0.2345
     22 O         -28.1930   -0.2080   24.4770 O.2     1  UNL1       -0.4585
     23 C         -29.4600    0.0050   23.8660 C.3     1  UNL1        0.2423
     24 C         -30.0650   -1.3770   23.5730 C.3     1  UNL1        0.2292
     25 O         -30.7290   -1.8780   24.7210 O.3     1  UNL1       -0.2162
     26 C         -26.3540    0.5760   25.7770 C.3     1  UNL1        0.2456
     27 F         -25.8600   -0.6810   25.7950 F       1  UNL1       -0.2265
     28 F         -21.1329    1.0788   27.3640 F       1  UNL1       -0.1945
     29 C         -25.9107    0.3979   28.4336 C.ar    1  UNL1        0.0974
     30 C         -25.2577    0.9658   27.4821 C.ar    1  UNL1        0.0780
     31 C         -26.8442    3.7160   30.5483 C.3     1  UNL1        0.0321
     32 O         -27.6033    1.7327   29.4785 O.3     1  UNL1       -0.3498
     33 C         -28.0768    4.2202   28.8562 C.3     1  UNL1        0.0321
     34 N         -24.9201   -0.1734   28.9619 N.ar    1  UNL1       -0.2661
     35 C         -23.1260    1.3027   28.3902 C.3     1  UNL1        0.2597
     36 N         -24.1772    0.7447   27.9797 N.ar    1  UNL1       -0.2514
     37 C         -27.1431    3.0001   29.2904 C.3     1  UNL1        0.1159
     38 C         -22.2236    1.6831   27.2980 C.3     1  UNL1        0.3583
     39 N         -22.3766    0.7347   29.4654 N.3     1  UNL1       -0.1000
     40 F         -22.6869    2.3634   26.2919 F       1  UNL1       -0.1945
     41 C         -27.4036    0.5121   28.7114 C.3     1  UNL1        0.1881
@<TRIPOS>BOND
     1     1     2    1
     2     2     7    1
     3     3     2    2
     4     4     3    1
     5     4     5    2
     6     5     6    1
     7     6     7    2
     8     8     1    1
     9     8     9    1
    10     8    12    1
    11     9    10    1
    12    10    11    1
    13    12    11    1
    14    13    30    1
    15    14    13    1
    16    14    15    1
    17    15    18    2
    18    16    17    1
    19    16    15    1
    20    19    14    2
    21    20    21    2
    22    20    19    1
    23    21    26    1
    24    22    21    1
    25    23    22    1
    26    24    23    1
    27    24    25    1
    28    26    27    1
    29    26    13    1
    30    29    41    1
    31    29    34   ar
    32    30    36   ar
    33    30    29   ar
    34    33    37    1
    35    34     1    1
    36    35    39    1
    37    36    35    1
    38    36    34   ar
    39    37    32    1
    40    37    31    1
    41    38    28    1
    42    38    35    1
    43    40    38    1
    44    41    32    1
