@<TRIPOS>MOLECULE
outputs/IAG933/test6/raw/output_4562_IAG933_linker_design_.xyz
 41 44 0 0 0
SMALL
GASTEIGER

@<TRIPOS>ATOM
      1 C         -24.8550   -1.0120   30.1430 C.3     1  UNL1        0.1541
      2 C         -24.9730   -2.5050   29.7880 C.2     1  UNL1        0.0059
      3 C         -23.9060   -3.1730   29.1460 C.2     1  UNL1       -0.0019
      4 C         -23.9890   -4.5490   28.8530 C.2     1  UNL1       -0.0002
      5 C         -25.1370   -5.2800   29.2050 C.2     1  UNL1       -0.0000
      6 C         -26.2320   -4.6110   29.7840 C.2     1  UNL1       -0.0002
      7 C         -26.1550   -3.2320   30.0650 C.2     1  UNL1       -0.0019
      8 C         -25.3870   -0.6790   31.5710 C.3     1  UNL1        0.1041
      9 C         -25.1890    0.7730   32.0280 C.3     1  UNL1        0.0217
     10 C         -25.3360    0.6840   33.5440 C.3     1  UNL1        0.0203
     11 C         -24.8290   -0.7150   33.9050 C.3     1  UNL1        0.0888
     12 N         -24.7580   -1.4810   32.6460 N.3     1  UNL1       -0.2166
     13 C         -25.6880    1.6140   26.4610 C.2     1  UNL1        0.0407
     14 C         -26.2500    2.9200   26.3950 C.2     1  UNL1        0.0745
     15 C         -25.6420    4.0930   27.1230 C.2     1  UNL1        0.2249
     16 N         -25.6140    5.2520   26.4490 N.2     1  UNL1       -0.2356
     17 C         -25.0260    6.4790   26.9630 C.3     1  UNL1        0.1550
     18 O         -25.1430    3.9660   28.2430 O.2     1  UNL1       -0.4257
     19 C         -27.4380    3.0910   25.6450 C.2     1  UNL1        0.1068
     20 N         -28.0750    2.0890   25.0030 N.2     1  UNL1       -0.2081
     21 C         -27.5430    0.8490   25.0790 C.2     1  UNL1        0.2533
     22 O         -28.1930   -0.2080   24.4770 O.2     1  UNL1       -0.4558
     23 C         -29.4600    0.0050   23.8660 C.3     1  UNL1        0.2426
     24 C         -30.0650   -1.3770   23.5730 C.3     1  UNL1        0.2292
     25 O         -30.7290   -1.8780   24.7210 O.3     1  UNL1       -0.2162
     26 C         -26.3540    0.5760   25.7770 C.2     1  UNL1        0.1931
     27 F         -25.8600   -0.6810   25.7950 F       1  UNL1       -0.1992
     28 C         -25.4502    3.3435   29.3734 C.3     1  UNL1        0.3701
     29 N         -24.9977    2.0962   29.4976 N.pl3   1  UNL1       -0.1811
     30 C         -24.0511    1.5980   28.6808 C.2     1  UNL1        0.0794
     31 C         -26.5417    6.4785   30.5725 C.3     1  UNL1        0.0966
     32 C         -21.9319    0.2558   28.7958 C.2     1  UNL1        0.0087
     33 C         -22.6352    2.2147   26.4897 C.2     1  UNL1        0.0011
     34 C         -26.8750    5.0145   30.8163 C.2     1  UNL1        0.2461
     35 C         -21.3327    1.5550   26.5867 C.2     1  UNL1       -0.0002
     36 C         -21.0584    0.6501   27.7144 C.2     1  UNL1       -0.0018
     37 O         -27.8948    4.7814   31.4046 O.2     1  UNL1       -0.2732
     38 C         -23.2743    0.4411   29.1835 C.3     1  UNL1        0.1746
     39 O         -23.6165   -0.3145   30.1161 O.3     1  UNL1       -0.3427
     40 N         -26.0626    4.0418   30.4153 N.am    1  UNL1       -0.1456
     41 C         -23.6249    2.2759   27.5240 C.2     1  UNL1        0.0146
@<TRIPOS>BOND
     1     1    39    1
     2     2     7    1
     3     2     1    1
     4     3     2    2
     5     4     3    1
     6     4     5    2
     7     5     6    1
     8     6     7    2
     9     8     1    1
    10     8     9    1
    11     8    12    1
    12     9    10    1
    13    10    11    1
    14    12    11    1
    15    14    13    1
    16    14    15    1
    17    15    18    1
    18    16    17    1
    19    16    15    2
    20    19    14    2
    21    20    21    2
    22    20    19    1
    23    21    26    1
    24    22    21    1
    25    23    22    1
    26    24    23    1
    27    24    25    1
    28    26    27    1
    29    26    13    2
    30    28    18    1
    31    28    29    1
    32    28    40    1
    33    30    38    1
    34    30    29    1
    35    31    34    1
    36    32    38    1
    37    33    35    2
    38    33    41    1
    39    34    37    2
    40    35    36    1
    41    36    32    2
    42    38    39    1
    43    40    34    1
    44    41    30    2
