@<TRIPOS>MOLECULE
outputs/IAG933/test6/raw/output_4565_IAG933_linker_design_.xyz
 42 45 0 0 0
SMALL
GASTEIGER

@<TRIPOS>ATOM
      1 C         -24.8550   -1.0120   30.1430 C.3     1  UNL1        0.1982
      2 C         -24.9730   -2.5050   29.7880 C.2     1  UNL1        0.0213
      3 C         -23.9060   -3.1730   29.1460 C.2     1  UNL1       -0.0004
      4 C         -23.9890   -4.5490   28.8530 C.2     1  UNL1       -0.0002
      5 C         -25.1370   -5.2800   29.2050 C.2     1  UNL1       -0.0000
      6 C         -26.2320   -4.6110   29.7840 C.2     1  UNL1       -0.0002
      7 C         -26.1550   -3.2320   30.0650 C.2     1  UNL1       -0.0004
      8 C         -25.3870   -0.6790   31.5710 C.3     1  UNL1        0.1197
      9 C         -25.1890    0.7730   32.0280 C.3     1  UNL1        0.0233
     10 C         -25.3360    0.6840   33.5440 C.3     1  UNL1        0.0204
     11 C         -24.8290   -0.7150   33.9050 C.3     1  UNL1        0.0889
     12 N         -24.7580   -1.4810   32.6460 N.3     1  UNL1       -0.2150
     13 C         -25.6880    1.6140   26.4610 C.2     1  UNL1        0.0312
     14 C         -26.2500    2.9200   26.3950 C.2     1  UNL1        0.0734
     15 C         -25.6420    4.0930   27.1230 C.2     1  UNL1        0.2661
     16 N         -25.6140    5.2520   26.4490 N.am    1  UNL1       -0.1997
     17 C         -25.0260    6.4790   26.9630 C.3     1  UNL1        0.1388
     18 O         -25.1430    3.9660   28.2430 O.2     1  UNL1       -0.2683
     19 C         -27.4380    3.0910   25.6450 C.2     1  UNL1        0.1064
     20 N         -28.0750    2.0890   25.0030 N.2     1  UNL1       -0.2081
     21 C         -27.5430    0.8490   25.0790 C.2     1  UNL1        0.2530
     22 O         -28.1930   -0.2080   24.4770 O.2     1  UNL1       -0.4558
     23 C         -29.4600    0.0050   23.8660 C.3     1  UNL1        0.2426
     24 C         -30.0650   -1.3770   23.5730 C.3     1  UNL1        0.2292
     25 O         -30.7290   -1.8780   24.7210 O.3     1  UNL1       -0.2162
     26 C         -26.3540    0.5760   25.7770 C.2     1  UNL1        0.1900
     27 F         -25.8600   -0.6810   25.7950 F       1  UNL1       -0.1996
     28 C         -23.3602    1.9251   26.1313 C.2     1  UNL1       -0.0098
     29 C         -21.2804    1.6487   27.4847 C.2     1  UNL1        0.0502
     30 C         -27.6813   -0.7242   29.1583 C.3     1  UNL1        0.1657
     31 C         -21.8146    0.8517   28.5009 C.2     1  UNL1        0.2353
     32 C         -31.3746   -1.0019   28.3613 C.3     1  UNL1        0.1975
     33 O         -30.3534    1.2098   29.2609 O.2     1  UNL1       -0.1561
     34 C         -24.1974    0.6150   28.3409 C.2     1  UNL1        0.3081
     35 C         -24.3527    1.3767   27.0737 C.3     1  UNL1        0.1524
     36 S         -30.1674   -0.2108   29.3105 S.O2    1  UNL1        0.0593
     37 N         -25.2507    0.0122   29.0940 N.pl3   1  UNL1       -0.1908
     38 C         -21.9820    2.1559   26.3666 C.2     1  UNL1        0.0003
     39 N         -22.9840    0.3739   28.8723 N.2     1  UNL1       -0.0400
     40 O         -30.0870   -0.7753   30.7714 O.2     1  UNL1       -0.1561
     41 N         -28.8397   -0.7030   28.5606 N.3     1  UNL1       -0.0776
     42 C         -26.6808    0.4573   29.0346 C.3     1  UNL1        0.2231
@<TRIPOS>BOND
     1     1    37    1
     2     2     7    1
     3     2     1    1
     4     3     2    2
     5     4     3    1
     6     4     5    2
     7     5     6    1
     8     6     7    2
     9     8     1    1
    10     8     9    1
    11     8    12    1
    12     9    10    1
    13    10    11    1
    14    12    11    1
    15    14    13    1
    16    14    15    1
    17    15    18    2
    18    16    17    1
    19    16    15    1
    20    19    14    2
    21    20    21    2
    22    20    19    1
    23    21    26    1
    24    22    21    1
    25    23    22    1
    26    24    23    1
    27    24    25    1
    28    26    27    1
    29    26    13    2
    30    28    38    2
    31    28    35    1
    32    29    31    2
    33    31    39    1
    34    32    36    1
    35    33    36    2
    36    34    39    2
    37    34    37    1
    38    35    13    1
    39    35    34    1
    40    36    40    2
    41    38    29    1
    42    41    30    1
    43    41    36    1
    44    42    37    1
    45    42    30    1
