@<TRIPOS>MOLECULE
No_4566-gen_results/8p0m/2024-11-27-11-27-31/
 35 37 0 0 0
SMALL
GASTEIGER

@<TRIPOS>ATOM
      1 C         -28.0162   -0.8135   28.8779 C.ar    1  UNL1        0.0045
      2 C         -28.4690   -0.7850   29.8287 C.ar    1  UNL1        0.0001
      3 C         -27.0871    0.2903   28.6377 C.ar    1  UNL1        0.0539
      4 C         -26.2516    0.4114   27.4223 C.2     1  UNL1        0.2528
      5 C         -28.3913    0.1041   30.9805 C.ar    1  UNL1        0.0000
      6 C         -27.5332    1.1666   30.7866 C.ar    1  UNL1        0.0001
      7 C         -26.8281    1.2557   29.6454 C.ar    1  UNL1        0.0046
      8 N         -25.7856    1.5766   27.1547 N.am    1  UNL1       -0.2535
      9 C         -24.9255    2.1825   27.9538 C.2     1  UNL1        0.0564
     10 C         -23.8309    1.9491   28.2348 C.2     1  UNL1       -0.0063
     11 C         -22.9286    1.2827   27.3347 C.3     1  UNL1        0.0533
     12 C         -21.5501    1.0153   27.7085 C.2     1  UNL1       -0.0214
     13 C         -21.0791    0.1685   28.5966 C.2     1  UNL1       -0.0042
     14 C         -22.0079   -0.5654   29.3691 C.2     1  UNL1       -0.0003
     15 C         -25.8342    3.0497   28.9625 C.2     1  UNL1        0.0890
     16 C         -26.2193    2.5512   29.6156 C.2     1  UNL1        0.0078
     17 C         -22.7514   -1.7096   29.0091 C.2     1  UNL1        0.0001
     18 C         -23.7335   -2.2416   29.8158 C.ar    1  UNL1        0.0032
     19 C         -24.6904   -1.5095   30.0928 C.ar    1  UNL1        0.0002
     20 C         -25.7313   -2.0890   30.9445 C.ar    1  UNL1        0.0033
     21 C         -26.4571    2.4307   26.2602 C.3     1  UNL1        0.1203
     22 C         -26.2967   -3.3147   30.4913 C.ar    1  UNL1        0.0420
     23 C         -25.4631   -4.1225   29.5560 C.ar    1  UNL1        0.1957
     24 C         -24.4252   -3.4920   28.8943 C.ar    1  UNL1        0.0420
     25 O         -25.9530   -5.2331   29.1407 O.3     1  UNL1       -0.2866
     26 C         -25.6612    4.5057   28.6338 C.2     1  UNL1        0.3425
     27 O         -25.1715    4.9875   27.6922 O.2     1  UNL1       -0.2448
     28 O         -26.2231    5.4076   29.5813 O.3     1  UNL1       -0.4413
     29 O         -25.7476   -0.5821   26.8907 O.2     1  UNL1       -0.2696
     30 C         -26.1459    6.7185   29.3974 C.3     1  UNL1        0.2559
     31 C         -25.4556    7.4141   30.3280 C.3     1  UNL1        0.2536
     32 O         -25.2853    6.9028   31.4496 O.2     1  UNL1       -0.4593
     33 C         -24.2112    7.1099   32.2474 C.2     1  UNL1        0.2588
     34 C         -23.8177    5.9978   33.0914 C.1     1  UNL1        0.1748
     35 O         -24.7104    5.3400   33.5657 O.2     1  UNL1       -0.2278
@<TRIPOS>BOND
     1     3     4    1
     2     4     8   am
     3     8     9    1
     4     9    10    2
     5    10    11    1
     6    11    12    1
     7    12    13    2
     8    13    14    1
     9     9    15    1
    10     7    16    1
    11    15    16    2
    12    14    17    2
    13    17    18    1
    14     8    21    1
    15    23    25    1
    16    15    26    1
    17    26    27    2
    18    26    28    1
    19     4    29    2
    20    28    30    1
    21    30    31    1
    22    31    32    1
    23    32    33    1
    24    33    34    2
    25    34    35    2
    26    18    19   ar
    27    19    20   ar
    28    20    22   ar
    29    22    23   ar
    30    23    24   ar
    31    24    18   ar
    32     1     2   ar
    33     2     5   ar
    34     5     6   ar
    35     6     7   ar
    36     7     3   ar
    37     3     1   ar
