@<TRIPOS>MOLECULE
No_4569-gen_results/8p0m/2024-11-27-11-27-31/
 30 35 0 0 0
SMALL
GASTEIGER

@<TRIPOS>ATOM
      1 C         -28.0162   -0.8135   28.8779 C.ar    1  UNL1        0.0490
      2 C         -28.4690   -0.7850   29.8287 C.ar    1  UNL1       -0.0085
      3 C         -28.1960    0.3478   28.0550 C.ar    1  UNL1        0.0324
      4 C         -29.0191    1.3501   28.3782 C.ar    1  UNL1        0.0028
      5 C         -29.4107    0.1803   30.3782 C.ar    1  UNL1       -0.0030
      6 C         -29.6059    1.2495   29.6193 C.ar    1  UNL1       -0.0002
      7 C         -27.4597    0.3802   26.7091 C.ar    1  UNL1        0.1001
      8 N         -27.8834    0.5390   25.7073 N.ar    1  UNL1       -0.2406
      9 C         -25.9412    0.2046   26.7840 C.ar    1  UNL1        0.1002
     10 C         -25.1451    0.0673   27.9085 C.ar    1  UNL1        0.0340
     11 C         -23.8224    0.0105   27.8402 C.ar    1  UNL1        0.0029
     12 C         -23.0462   -0.2974   29.0283 C.ar    1  UNL1        0.0015
     13 C         -23.6738   -0.7737   30.1673 C.ar    1  UNL1        0.0178
     14 C         -25.0499   -0.8422   30.2007 C.ar    1  UNL1        0.0841
     15 C         -25.7707   -0.4629   29.1617 C.ar    1  UNL1        0.0684
     16 N         -26.8530   -0.7434   29.2984 N.pl3   1  UNL1       -0.2877
     17 C         -26.6520   -2.0293   30.1945 C.3     1  UNL1        0.0776
     18 N         -25.5358   -0.4550   31.4296 N.pl3   1  UNL1       -0.2112
     19 C         -28.8024   -2.0655   30.5878 C.3     1  UNL1        0.0293
     20 C         -25.5577   -2.7536   30.1658 C.3     1  UNL1        0.0218
     21 C         -27.8297   -2.6429   30.8110 C.3     1  UNL1        0.0248
     22 N         -25.4826    0.4299   25.5551 N.ar    1  UNL1       -0.2406
     23 C         -27.5913    0.7324   24.4600 C.ar    1  UNL1        0.1195
     24 C         -26.0973    0.5281   24.4158 C.ar    1  UNL1        0.1195
     25 C         -25.1432    0.8847   31.9688 C.ar    1  UNL1        0.0705
     26 C         -26.1529    1.5706   32.6540 C.ar    1  UNL1        0.0165
     27 C         -26.1002    2.8952   32.8220 C.ar    1  UNL1        0.0013
     28 C         -24.9700    3.6227   32.2747 C.ar    1  UNL1        0.0001
     29 C         -24.0198    2.8860   31.4912 C.ar    1  UNL1        0.0013
     30 C         -24.1826    1.5754   31.2816 C.ar    1  UNL1        0.0165
@<TRIPOS>BOND
     1     3     7    1
     2     9    10    1
     3     1    16    1
     4    15    16    1
     5    16    17    1
     6    14    18    1
     7     2    19    1
     8    17    21    1
     9    19    21    1
    10    18    25    1
    11    20    17    1
    12    25    26   ar
    13    26    27   ar
    14    27    28   ar
    15    28    29   ar
    16    29    30   ar
    17    30    25   ar
    18     1     3   ar
    19     3     4   ar
    20     4     6   ar
    21     6     5   ar
    22     5     2   ar
    23     2     1   ar
    24     7     8   ar
    25     8    23   ar
    26    23    24   ar
    27    24    22   ar
    28    22     9   ar
    29     9     7   ar
    30    10    11   ar
    31    11    12   ar
    32    12    13   ar
    33    13    14   ar
    34    14    15   ar
    35    15    10   ar
