@<TRIPOS>MOLECULE
outputs/IAG933/test6/raw/output_4570_IAG933_linker_design_.xyz
 41 44 0 0 0
SMALL
GASTEIGER

@<TRIPOS>ATOM
      1 C         -24.8550   -1.0120   30.1430 C.3     1  UNL1        0.1161
      2 C         -24.9730   -2.5050   29.7880 C.2     1  UNL1       -0.0048
      3 C         -23.9060   -3.1730   29.1460 C.2     1  UNL1       -0.0029
      4 C         -23.9890   -4.5490   28.8530 C.2     1  UNL1       -0.0003
      5 C         -25.1370   -5.2800   29.2050 C.2     1  UNL1       -0.0000
      6 C         -26.2320   -4.6110   29.7840 C.2     1  UNL1       -0.0003
      7 C         -26.1550   -3.2320   30.0650 C.2     1  UNL1       -0.0029
      8 C         -25.3870   -0.6790   31.5710 C.3     1  UNL1        0.0932
      9 C         -25.1890    0.7730   32.0280 C.3     1  UNL1        0.0206
     10 C         -25.3360    0.6840   33.5440 C.3     1  UNL1        0.0203
     11 C         -24.8290   -0.7150   33.9050 C.3     1  UNL1        0.0888
     12 N         -24.7580   -1.4810   32.6460 N.3     1  UNL1       -0.2177
     13 C         -25.6880    1.6140   26.4610 C.3     1  UNL1        0.0943
     14 C         -26.2500    2.9200   26.3950 C.2     1  UNL1        0.0590
     15 C         -25.6420    4.0930   27.1230 C.2     1  UNL1        0.2628
     16 N         -25.6140    5.2520   26.4490 N.am    1  UNL1       -0.2000
     17 C         -25.0260    6.4790   26.9630 C.3     1  UNL1        0.1388
     18 O         -25.1430    3.9660   28.2430 O.2     1  UNL1       -0.2686
     19 C         -27.4380    3.0910   25.6450 C.2     1  UNL1        0.1025
     20 N         -28.0750    2.0890   25.0030 N.2     1  UNL1       -0.2118
     21 C         -27.5430    0.8490   25.0790 C.2     1  UNL1        0.2344
     22 O         -28.1930   -0.2080   24.4770 O.2     1  UNL1       -0.4585
     23 C         -29.4600    0.0050   23.8660 C.3     1  UNL1        0.2423
     24 C         -30.0650   -1.3770   23.5730 C.3     1  UNL1        0.2292
     25 O         -30.7290   -1.8780   24.7210 O.3     1  UNL1       -0.2162
     26 C         -26.3540    0.5760   25.7770 C.3     1  UNL1        0.2441
     27 F         -25.8600   -0.6810   25.7950 F       1  UNL1       -0.2265
     28 C         -21.7869    1.9232   26.7972 C.2     1  UNL1        0.0316
     29 C         -28.0320    0.4384   29.4075 C.2     1  UNL1        0.3742
     30 F         -22.5229    0.0743   29.8265 F       1  UNL1       -0.2045
     31 C         -22.6864    0.6117   28.5670 C.2     1  UNL1        0.1373
     32 N         -27.6291    1.7252   29.6782 N.am    1  UNL1       -0.0667
     33 N         -27.1076   -0.5725   29.2383 N.am    1  UNL1       -0.1071
     34 C         -21.6129    1.2305   27.9892 C.2     1  UNL1        0.0316
     35 O         -29.2867    0.1320   29.4778 O.2     1  UNL1       -0.2460
     36 C         -24.2010    1.4375   26.8281 C.2     1  UNL1        0.0120
     37 C         -23.0353    2.0112   26.2330 C.2     1  UNL1        0.1364
     38 C         -23.9575    0.6080   27.9286 C.2     1  UNL1        0.0216
     39 N         -25.7352   -0.2242   29.2652 N.3     1  UNL1       -0.1744
     40 F         -23.2002    2.7838   25.1387 F       1  UNL1       -0.2045
     41 C         -25.0914   -0.1871   28.1995 C.3     1  UNL1        0.1226
@<TRIPOS>BOND
     1     1    39    1
     2     2     7    1
     3     2     1    1
     4     3     2    2
     5     4     3    1
     6     4     5    2
     7     5     6    1
     8     6     7    2
     9     8     1    1
    10     8     9    1
    11     8    12    1
    12     9    10    1
    13    10    11    1
    14    12    11    1
    15    13    36    1
    16    14    13    1
    17    14    15    1
    18    15    18    2
    19    16    17    1
    20    16    15    1
    21    19    14    2
    22    20    21    2
    23    20    19    1
    24    21    26    1
    25    22    21    1
    26    23    22    1
    27    24    23    1
    28    24    25    1
    29    26    27    1
    30    26    13    1
    31    28    34    1
    32    29    35    2
    33    29    32    1
    34    31    30    1
    35    33    39    1
    36    33    29    1
    37    34    31    2
    38    36    38    2
    39    37    28    2
    40    37    36    1
    41    38    41    1
    42    38    31    1
    43    40    37    1
    44    41    39    1
