@<TRIPOS>MOLECULE
No_4573-gen_results/8p0m/2024-11-27-11-27-31/
 9 9 0 0 0
SMALL
GASTEIGER

@<TRIPOS>ATOM
      1 C         -28.0162   -0.8135   28.8779 C.ar    1  UNL1        0.0066
      2 C         -28.4690   -0.7850   29.8287 C.ar    1  UNL1        0.0798
      3 C         -26.5042   -0.7777   28.8766 C.ar    1  UNL1        0.0002
      4 C         -25.8103   -0.8531   30.1028 C.ar    1  UNL1        0.0000
      5 C         -30.0136   -0.8410   29.8508 C.2     1  UNL1        0.3878
      6 C         -26.5670   -0.8850   31.2517 C.ar    1  UNL1        0.0002
      7 C         -27.9411   -0.9069   31.1850 C.ar    1  UNL1        0.0066
      8 O         -30.6493   -0.0573   30.6757 O.co2   1  UNL1       -0.2406
      9 O         -30.5749   -1.2882   28.8170 O.co2   1  UNL1       -0.2406
@<TRIPOS>BOND
     1     2     5    1
     2     5     8   ar
     3     5     9   ar
     4     1     2   ar
     5     2     7   ar
     6     7     6   ar
     7     6     4   ar
     8     4     3   ar
     9     3     1   ar
