@<TRIPOS>MOLECULE
outputs/IAG933/test6/raw/output_4574_IAG933_linker_design_.xyz
 52 57 0 0 0
SMALL
GASTEIGER

@<TRIPOS>ATOM
      1 C         -24.8550   -1.0120   30.1430 C.3     1  UNL1        0.0710
      2 C         -24.9730   -2.5050   29.7880 C.2     1  UNL1       -0.0184
      3 C         -23.9060   -3.1730   29.1460 C.2     1  UNL1       -0.0041
      4 C         -23.9890   -4.5490   28.8530 C.2     1  UNL1       -0.0003
      5 C         -25.1370   -5.2800   29.2050 C.2     1  UNL1       -0.0000
      6 C         -26.2320   -4.6110   29.7840 C.2     1  UNL1       -0.0003
      7 C         -26.1550   -3.2320   30.0650 C.2     1  UNL1       -0.0041
      8 C         -25.3870   -0.6790   31.5710 C.3     1  UNL1        0.0795
      9 C         -25.1890    0.7730   32.0280 C.3     1  UNL1        0.0193
     10 C         -25.3360    0.6840   33.5440 C.3     1  UNL1        0.0202
     11 C         -24.8290   -0.7150   33.9050 C.3     1  UNL1        0.0887
     12 N         -24.7580   -1.4810   32.6460 N.3     1  UNL1       -0.2190
     13 C         -25.6880    1.6140   26.4610 C.2     1  UNL1        0.0900
     14 C         -26.2500    2.9200   26.3950 C.2     1  UNL1        0.0902
     15 C         -25.6420    4.0930   27.1230 C.2     1  UNL1        0.2676
     16 N         -25.6140    5.2520   26.4490 N.am    1  UNL1       -0.1997
     17 C         -25.0260    6.4790   26.9630 C.3     1  UNL1        0.1388
     18 O         -25.1430    3.9660   28.2430 O.2     1  UNL1       -0.2683
     19 C         -27.4380    3.0910   25.6450 C.2     1  UNL1        0.1080
     20 N         -28.0750    2.0890   25.0030 N.2     1  UNL1       -0.2080
     21 C         -27.5430    0.8490   25.0790 C.2     1  UNL1        0.2546
     22 O         -28.1930   -0.2080   24.4770 O.2     1  UNL1       -0.4558
     23 C         -29.4600    0.0050   23.8660 C.3     1  UNL1        0.2426
     24 C         -30.0650   -1.3770   23.5730 C.3     1  UNL1        0.2292
     25 O         -30.7290   -1.8780   24.7210 O.3     1  UNL1       -0.2162
     26 C         -26.3540    0.5760   25.7770 C.2     1  UNL1        0.2065
     27 F         -25.8600   -0.6810   25.7950 F       1  UNL1       -0.1979
     28 C         -31.2801    0.8163   34.8806 C.2     1  UNL1        0.0002
     29 O         -32.3632    2.2569   28.2505 O.3     1  UNL1       -0.2205
     30 C         -22.6041    1.7787   27.9097 C.3     1  UNL1        0.1625
     31 C         -32.1122    0.1533   33.9980 C.2     1  UNL1        0.0031
     32 C         -30.3684   -0.0050   28.2197 C.3     1  UNL1        0.0411
     33 C         -23.2659    0.7272   28.7810 C.2     1  UNL1        0.1484
     34 C         -29.8770    1.4553   33.0536 C.2     1  UNL1        0.0370
     35 F         -22.6068    0.1137   29.7391 F       1  UNL1       -0.2063
     36 N         -24.6469    1.2086   27.2060 N.pl3   1  UNL1       -0.2828
     37 C         -23.3515    1.6397   26.6066 C.3     1  UNL1        0.1213
     38 C         -30.1749    1.2963   27.8638 C.3     1  UNL1        0.1493
     39 C         -30.5907    3.7421   27.6713 C.3     1  UNL1        0.0381
     40 C         -31.1833    2.3065   27.4159 C.3     1  UNL1        0.1791
     41 C         -30.1441    1.4699   34.4089 C.2     1  UNL1        0.0031
     42 O         -30.2178    0.2686   30.9243 O.2     1  UNL1       -0.4524
     43 C         -29.1399   -0.2280   29.1972 C.3     1  UNL1        0.1023
     44 O         -29.5790    1.8912   29.1519 O.3     1  UNL1       -0.3204
     45 C         -27.8211   -0.2159   28.3961 C.3     1  UNL1        0.1489
     46 C         -24.5738    0.5829   28.4123 C.2     1  UNL1        0.0815
     47 O         -26.8412   -0.0099   29.3828 O.3     1  UNL1       -0.3499
     48 C         -30.6761    0.6224   32.1927 C.2     1  UNL1        0.1413
     49 C         -31.8721    0.1045   32.6700 C.2     1  UNL1        0.0370
     50 N         -21.1796    1.5202   27.7133 N.3     1  UNL1       -0.1238
     51 C         -29.3179    0.7249   30.0055 C.3     1  UNL1        0.2899
     52 C         -25.4782   -0.1260   29.2111 C.3     1  UNL1        0.1580
@<TRIPOS>BOND
     1     1    52    1
     2     2     7    1
     3     2     1    1
     4     3     2    2
     5     4     3    1
     6     4     5    2
     7     5     6    1
     8     6     7    2
     9     8     1    1
    10     8     9    1
    11     8    12    1
    12     9    10    1
    13    10    11    1
    14    12    11    1
    15    13    36    1
    16    14    13    1
    17    14    15    1
    18    15    18    2
    19    16    17    1
    20    16    15    1
    21    19    14    2
    22    20    21    2
    23    20    19    1
    24    21    26    1
    25    22    21    1
    26    23    22    1
    27    24    23    1
    28    24    25    1
    29    26    27    1
    30    26    13    2
    31    30    50    1
    32    30    33    1
    33    31    28    2
    34    32    43    1
    35    33    35    1
    36    34    41    2
    37    36    46    1
    38    37    36    1
    39    37    30    1
    40    38    40    1
    41    38    32    1
    42    38    44    1
    43    40    39    1
    44    40    29    1
    45    41    28    1
    46    42    48    1
    47    43    45    1
    48    43    51    1
    49    44    51    1
    50    45    47    1
    51    46    33    2
    52    46    52    1
    53    48    49    2
    54    48    34    1
    55    49    31    1
    56    51    42    1
    57    52    47    1
