@<TRIPOS>MOLECULE
No_4578-gen_results/8p0m/2024-11-27-11-27-31/
 7 7 0 0 0
SMALL
GASTEIGER

@<TRIPOS>ATOM
      1 C         -28.0162   -0.8135   28.8779 C.ar    1  UNL1        0.0114
      2 C         -28.4690   -0.7850   29.8287 C.ar    1  UNL1        0.0577
      3 C         -26.5455   -0.8762   28.8500 C.ar    1  UNL1        0.0009
      4 C         -25.8974   -0.8267   29.8894 C.ar    1  UNL1        0.0001
      5 C         -27.9129   -0.8385   31.1942 C.ar    1  UNL1        0.0114
      6 C         -26.5519   -0.8324   31.1775 C.ar    1  UNL1        0.0009
      7 CL        -30.2866   -0.7927   29.9260 Cl      1  UNL1       -0.0822
@<TRIPOS>BOND
     1     2     7    1
     2     1     2   ar
     3     2     5   ar
     4     5     6   ar
     5     6     4   ar
     6     4     3   ar
     7     3     1   ar
