@<TRIPOS>MOLECULE
No_458-gen_results/8p0m/2024-11-27-11-27-31/
 22 24 0 0 0
SMALL
GASTEIGER

@<TRIPOS>ATOM
      1 F         -28.0727   -1.2542   28.5316 F       1  UNL1       -0.2018
      2 C         -28.2662   -0.4214   29.1931 C.ar    1  UNL1        0.1670
      3 C         -27.2356   -0.0574   30.0145 C.ar    1  UNL1        0.0261
      4 C         -27.2606    1.1013   30.9347 C.ar    1  UNL1       -0.0154
      5 C         -29.4969    0.3179   29.2904 C.ar    1  UNL1        0.1674
      6 C         -29.5573    1.4396   30.2037 C.ar    1  UNL1        0.0317
      7 C         -28.4535    1.8015   31.0013 C.ar    1  UNL1       -0.0015
      8 C         -25.9447   -0.7424   30.0259 C.ar    1  UNL1        0.0019
      9 C         -25.0381   -0.4319   29.0064 C.ar    1  UNL1        0.0001
     10 C         -23.8337   -1.0194   28.9771 C.ar    1  UNL1        0.0000
     11 C         -23.5122   -2.0482   29.8943 C.ar    1  UNL1        0.0000
     12 C         -24.4886   -2.4268   30.8137 C.ar    1  UNL1        0.0000
     13 C         -25.6765   -1.7847   30.9313 C.ar    1  UNL1        0.0001
     14 F         -30.4795    0.0039   28.5815 F       1  UNL1       -0.2018
     15 C         -26.1626    1.4679   31.7934 C.3     1  UNL1        0.0559
     16 C         -26.2344    2.3437   32.6711 C.ar    1  UNL1        0.0211
     17 C         -27.1800    2.5164   33.5605 C.ar    1  UNL1       -0.0008
     18 C         -27.2110    3.6126   34.5110 C.ar    1  UNL1       -0.0001
     19 C         -26.2300    4.5746   34.3625 C.ar    1  UNL1        0.0033
     20 C         -25.2282    4.5094   33.3832 C.ar    1  UNL1        0.0417
     21 C         -25.2238    3.4152   32.5310 C.ar    1  UNL1        0.1920
     22 O         -24.3565    3.2013   31.5758 O.3     1  UNL1       -0.2869
@<TRIPOS>BOND
     1     1     2    1
     2     3     8    1
     3     5    14    1
     4     4    15    1
     5    21    22    1
     6    15    16    1
     7    16    17   ar
     8    17    18   ar
     9    18    19   ar
    10    19    20   ar
    11    20    21   ar
    12    21    16   ar
    13     8     9   ar
    14     9    10   ar
    15    10    11   ar
    16    11    12   ar
    17    12    13   ar
    18    13     8   ar
    19     2     3   ar
    20     3     4   ar
    21     4     7   ar
    22     7     6   ar
    23     6     5   ar
    24     5     2   ar
