@<TRIPOS>MOLECULE
outputs/IAG933/test6/raw/output_4584_IAG933_linker_design_.xyz
 42 46 0 0 0
SMALL
GASTEIGER

@<TRIPOS>ATOM
      1 C         -24.8550   -1.0120   30.1430 C.3     1  UNL1        0.0759
      2 C         -24.9730   -2.5050   29.7880 C.2     1  UNL1       -0.0158
      3 C         -23.9060   -3.1730   29.1460 C.2     1  UNL1       -0.0039
      4 C         -23.9890   -4.5490   28.8530 C.2     1  UNL1       -0.0003
      5 C         -25.1370   -5.2800   29.2050 C.2     1  UNL1       -0.0000
      6 C         -26.2320   -4.6110   29.7840 C.2     1  UNL1       -0.0003
      7 C         -26.1550   -3.2320   30.0650 C.2     1  UNL1       -0.0039
      8 C         -25.3870   -0.6790   31.5710 C.3     1  UNL1        0.0822
      9 C         -25.1890    0.7730   32.0280 C.3     1  UNL1        0.0196
     10 C         -25.3360    0.6840   33.5440 C.3     1  UNL1        0.0203
     11 C         -24.8290   -0.7150   33.9050 C.3     1  UNL1        0.0887
     12 N         -24.7580   -1.4810   32.6460 N.3     1  UNL1       -0.2188
     13 C         -25.6880    1.6140   26.4610 C.2     1  UNL1        0.0594
     14 C         -26.2500    2.9200   26.3950 C.2     1  UNL1        0.0803
     15 C         -25.6420    4.0930   27.1230 C.2     1  UNL1        0.2667
     16 N         -25.6140    5.2520   26.4490 N.am    1  UNL1       -0.1997
     17 C         -25.0260    6.4790   26.9630 C.3     1  UNL1        0.1388
     18 O         -25.1430    3.9660   28.2430 O.2     1  UNL1       -0.2683
     19 C         -27.4380    3.0910   25.6450 C.2     1  UNL1        0.1067
     20 N         -28.0750    2.0890   25.0030 N.2     1  UNL1       -0.2112
     21 C         -27.5430    0.8490   25.0790 C.2     1  UNL1        0.2389
     22 O         -28.1930   -0.2080   24.4770 O.2     1  UNL1       -0.4583
     23 C         -29.4600    0.0050   23.8660 C.3     1  UNL1        0.2423
     24 C         -30.0650   -1.3770   23.5730 C.3     1  UNL1        0.2292
     25 O         -30.7290   -1.8780   24.7210 O.3     1  UNL1       -0.2162
     26 C         -26.3540    0.5760   25.7770 C.3     1  UNL1        0.2653
     27 F         -25.8600   -0.6810   25.7950 F       1  UNL1       -0.2217
     28 C         -22.3386    0.2374   28.7355 C.2     1  UNL1        0.4309
     29 C         -22.2585    1.4725   27.0185 C.2     1  UNL1        0.3380
     30 O         -29.5454    0.5642   28.9987 O.3     1  UNL1       -0.3519
     31 C         -24.8341   -0.0396   28.9787 C.2     1  UNL1        0.0564
     32 C         -27.5719    1.8048   29.4759 C.3     1  UNL1        0.0562
     33 C         -27.3410    0.4344   29.0063 C.3     1  UNL1        0.1241
     34 C         -23.6721    0.4189   28.3288 C.2     1  UNL1        0.1171
     35 N         -21.4533    0.9551   27.9110 N.2     1  UNL1        0.0010
     36 N         -22.0573   -0.3775   29.7957 N.2     1  UNL1        0.2001
     37 N         -26.0548    0.1580   28.4407 N.pl3   1  UNL1       -0.2404
     38 F         -22.0969    2.2219   25.8992 F       1  UNL1       -0.1534
     39 C         -28.5103   -0.1774   28.3388 C.3     1  UNL1        0.1636
     40 C         -23.5545    1.1162   27.2720 C.2     1  UNL1        0.1146
     41 C         -29.0897    1.9087   29.1965 C.3     1  UNL1        0.1441
     42 C         -24.6564    1.3783   26.9292 C.1     1  UNL1       -0.0964
@<TRIPOS>BOND
     1     1    31    1
     2     2     7    1
     3     2     1    1
     4     3     2    2
     5     4     3    1
     6     4     5    2
     7     5     6    1
     8     6     7    2
     9     8     1    1
    10     8     9    1
    11     8    12    1
    12     9    10    1
    13    10    11    1
    14    12    11    1
    15    13    42    2
    16    14    13    1
    17    14    15    1
    18    15    18    2
    19    16    17    1
    20    16    15    1
    21    19    14    2
    22    20    21    2
    23    20    19    1
    24    21    26    1
    25    22    21    1
    26    23    22    1
    27    24    23    1
    28    24    25    1
    29    26    27    1
    30    26    13    1
    31    28    36    2
    32    29    40    1
    33    29    35    2
    34    30    41    1
    35    33    37    1
    36    33    32    1
    37    34    28    1
    38    34    31    2
    39    35    28    1
    40    37    31    1
    41    38    29    1
    42    39    30    1
    43    39    33    1
    44    40    34    1
    45    41    32    1
    46    42    40    2
