@<TRIPOS>MOLECULE
outputs/IAG933/test6/raw/output_4585_IAG933_linker_design_.xyz
 46 48 0 0 0
SMALL
GASTEIGER

@<TRIPOS>ATOM
      1 C         -24.8550   -1.0120   30.1430 C.3     1  UNL1        0.0445
      2 C         -24.9730   -2.5050   29.7880 C.2     1  UNL1       -0.0208
      3 C         -23.9060   -3.1730   29.1460 C.2     1  UNL1       -0.0042
      4 C         -23.9890   -4.5490   28.8530 C.2     1  UNL1       -0.0003
      5 C         -25.1370   -5.2800   29.2050 C.2     1  UNL1       -0.0000
      6 C         -26.2320   -4.6110   29.7840 C.2     1  UNL1       -0.0003
      7 C         -26.1550   -3.2320   30.0650 C.2     1  UNL1       -0.0042
      8 C         -25.3870   -0.6790   31.5710 C.3     1  UNL1        0.0772
      9 C         -25.1890    0.7730   32.0280 C.3     1  UNL1        0.0192
     10 C         -25.3360    0.6840   33.5440 C.3     1  UNL1        0.0202
     11 C         -24.8290   -0.7150   33.9050 C.3     1  UNL1        0.0887
     12 N         -24.7580   -1.4810   32.6460 N.3     1  UNL1       -0.2191
     13 C         -25.6880    1.6140   26.4610 C.2     1  UNL1        0.0407
     14 C         -26.2500    2.9200   26.3950 C.2     1  UNL1        0.0745
     15 C         -25.6420    4.0930   27.1230 C.2     1  UNL1        0.2257
     16 N         -25.6140    5.2520   26.4490 N.2     1  UNL1       -0.2356
     17 C         -25.0260    6.4790   26.9630 C.3     1  UNL1        0.1550
     18 O         -25.1430    3.9660   28.2430 O.2     1  UNL1       -0.4204
     19 C         -27.4380    3.0910   25.6450 C.2     1  UNL1        0.1068
     20 N         -28.0750    2.0890   25.0030 N.2     1  UNL1       -0.2081
     21 C         -27.5430    0.8490   25.0790 C.2     1  UNL1        0.2533
     22 O         -28.1930   -0.2080   24.4770 O.2     1  UNL1       -0.4558
     23 C         -29.4600    0.0050   23.8660 C.3     1  UNL1        0.2426
     24 C         -30.0650   -1.3770   23.5730 C.3     1  UNL1        0.2292
     25 O         -30.7290   -1.8780   24.7210 O.3     1  UNL1       -0.2162
     26 C         -26.3540    0.5760   25.7770 C.2     1  UNL1        0.1931
     27 F         -25.8600   -0.6810   25.7950 F       1  UNL1       -0.1992
     28 N         -25.5795    1.9731   29.5346 N.2     1  UNL1       -0.2105
     29 O         -30.2930   -1.1444   29.4917 O.3     1  UNL1       -0.4444
     30 C         -29.1401    1.5411   30.5963 C.3     1  UNL1        0.1425
     31 C         -29.8816    0.1355   27.5217 C.3     1  UNL1        0.1097
     32 C         -22.6807   -0.0126   29.0908 C.3     1  UNL1        0.1203
     33 O         -22.4701    2.2194   28.0574 O.co2   1  UNL1       -0.2456
     34 C         -29.4215   -0.8524   28.5152 C.2     1  UNL1        0.3171
     35 C         -25.9342    3.3524   29.4529 C.3     1  UNL1        0.3801
     36 O         -27.8890    1.9660   30.1988 O.3     1  UNL1       -0.3458
     37 C         -29.9248   -2.1926   30.3593 C.3     1  UNL1        0.2556
     38 C         -29.9051    1.5874   28.1572 C.3     1  UNL1        0.0142
     39 O         -25.5231    3.9954   30.4373 O.3     1  UNL1       -0.1547
     40 C         -22.0108    1.1353   28.5518 C.2     1  UNL1        0.3653
     41 C         -27.5338    3.1975   29.6428 C.3     1  UNL1        0.2416
     42 O         -28.2848   -1.2488   28.4383 O.2     1  UNL1       -0.2501
     43 C         -24.1114   -0.0242   29.2203 C.3     1  UNL1        0.0578
     44 C         -29.9703    1.6576   29.3944 C.3     1  UNL1        0.0326
     45 C         -24.4788    1.3591   29.2813 C.2     1  UNL1        0.0734
     46 O         -20.7645    1.0160   28.2104 O.co2   1  UNL1       -0.2456
@<TRIPOS>BOND
     1     1    43    1
     2     2     7    1
     3     2     1    1
     4     3     2    2
     5     4     3    1
     6     4     5    2
     7     5     6    1
     8     6     7    2
     9     8     1    1
    10     8     9    1
    11     8    12    1
    12     9    10    1
    13    10    11    1
    14    12    11    1
    15    14    13    1
    16    14    15    1
    17    15    18    1
    18    16    17    1
    19    16    15    2
    20    18    35    1
    21    19    14    2
    22    20    21    2
    23    20    19    1
    24    21    26    1
    25    22    21    1
    26    23    22    1
    27    24    23    1
    28    24    25    1
    29    26    27    1
    30    26    13    2
    31    29    37    1
    32    31    38    1
    33    31    34    1
    34    33    40   ar
    35    34    29    1
    36    35    28    1
    37    35    41    1
    38    35    39    1
    39    36    30    1
    40    38    44    1
    41    40    32    1
    42    41    36    1
    43    42    34    2
    44    43    32    1
    45    43    45    1
    46    44    30    1
    47    45    28    2
    48    46    40   ar
