@<TRIPOS>MOLECULE
outputs/IAG933/test6/raw/output_4586_IAG933_linker_design_.xyz
 43 47 0 0 0
SMALL
GASTEIGER

@<TRIPOS>ATOM
      1 C         -24.8550   -1.0120   30.1430 C.3     1  UNL1        0.0411
      2 C         -24.9730   -2.5050   29.7880 C.2     1  UNL1       -0.0211
      3 C         -23.9060   -3.1730   29.1460 C.2     1  UNL1       -0.0042
      4 C         -23.9890   -4.5490   28.8530 C.2     1  UNL1       -0.0003
      5 C         -25.1370   -5.2800   29.2050 C.2     1  UNL1       -0.0000
      6 C         -26.2320   -4.6110   29.7840 C.2     1  UNL1       -0.0003
      7 C         -26.1550   -3.2320   30.0650 C.2     1  UNL1       -0.0042
      8 C         -25.3870   -0.6790   31.5710 C.3     1  UNL1        0.0769
      9 C         -25.1890    0.7730   32.0280 C.3     1  UNL1        0.0192
     10 C         -25.3360    0.6840   33.5440 C.3     1  UNL1        0.0202
     11 C         -24.8290   -0.7150   33.9050 C.3     1  UNL1        0.0887
     12 N         -24.7580   -1.4810   32.6460 N.3     1  UNL1       -0.2191
     13 C         -25.6880    1.6140   26.4610 C.3     1  UNL1        0.0848
     14 C         -26.2500    2.9200   26.3950 C.2     1  UNL1        0.0561
     15 C         -25.6420    4.0930   27.1230 C.2     1  UNL1        0.2625
     16 N         -25.6140    5.2520   26.4490 N.am    1  UNL1       -0.2000
     17 C         -25.0260    6.4790   26.9630 C.3     1  UNL1        0.1388
     18 O         -25.1430    3.9660   28.2430 O.2     1  UNL1       -0.2687
     19 C         -27.4380    3.0910   25.6450 C.2     1  UNL1        0.1022
     20 N         -28.0750    2.0890   25.0030 N.2     1  UNL1       -0.2119
     21 C         -27.5430    0.8490   25.0790 C.2     1  UNL1        0.2341
     22 O         -28.1930   -0.2080   24.4770 O.2     1  UNL1       -0.4585
     23 C         -29.4600    0.0050   23.8660 C.3     1  UNL1        0.2423
     24 C         -30.0650   -1.3770   23.5730 C.3     1  UNL1        0.2292
     25 O         -30.7290   -1.8780   24.7210 O.3     1  UNL1       -0.2162
     26 C         -26.3540    0.5760   25.7770 C.3     1  UNL1        0.2413
     27 F         -25.8600   -0.6810   25.7950 F       1  UNL1       -0.2268
     28 O         -28.4908   -0.9251   30.0312 O.3     1  UNL1       -0.2641
     29 N         -30.8947    0.3201   29.2061 N.3     1  UNL1       -0.2521
     30 C         -22.3824    1.1059   27.8783 C.3     1  UNL1        0.0589
     31 C         -29.6971    0.4977   28.3782 C.3     1  UNL1        0.1955
     32 C         -29.8438   -1.5968   30.2783 C.3     1  UNL1        0.1856
     33 C         -26.3540   -0.6646   28.1609 C.3     1  UNL1        0.1119
     34 C         -31.9044   -0.5684   28.6911 C.3     1  UNL1        0.0909
     35 C         -24.7956    1.0527   27.6262 C.3     1  UNL1        0.0666
     36 C         -25.1991    0.0522   28.9387 C.3     1  UNL1        0.0395
     37 C         -22.6775    0.2910   29.1221 C.3     1  UNL1        0.0174
     38 C         -30.7901   -0.3966   30.4866 C.3     1  UNL1        0.1080
     39 N         -23.5148    1.1299   26.9142 N.3     1  UNL1       -0.2747
     40 N         -27.8337   -0.4943   27.9825 N.3     1  UNL1       -0.1209
     41 C         -22.7619    2.0317   26.0469 C.3     1  UNL1        0.0734
     42 C         -21.6287    2.1513   27.0973 C.3     1  UNL1        0.0333
     43 N         -28.4908   -0.2001   28.9300 N.3     1  UNL1       -0.0751
@<TRIPOS>BOND
     1     1    36    1
     2     2     7    1
     3     2     1    1
     4     3     2    2
     5     4     3    1
     6     4     5    2
     7     5     6    1
     8     6     7    2
     9     8     1    1
    10     8     9    1
    11     8    12    1
    12     9    10    1
    13    10    11    1
    14    12    11    1
    15    13    35    1
    16    14    13    1
    17    14    15    1
    18    15    18    2
    19    16    17    1
    20    16    15    1
    21    19    14    2
    22    20    21    2
    23    20    19    1
    24    21    26    1
    25    22    21    1
    26    23    22    1
    27    24    23    1
    28    24    25    1
    29    26    27    1
    30    26    13    1
    31    28    32    1
    32    29    38    1
    33    30    37    1
    34    31    43    1
    35    31    29    1
    36    32    38    1
    37    34    29    1
    38    35    36    1
    39    36    33    1
    40    39    35    1
    41    39    30    1
    42    40    33    1
    43    40    43    1
    44    41    39    1
    45    41    42    1
    46    42    30    1
    47    43    28    1
