@<TRIPOS>MOLECULE
outputs/IAG933/test6/raw/output_459_IAG933_linker_design_.xyz
 46 49 0 0 0
SMALL
GASTEIGER

@<TRIPOS>ATOM
      1 C         -24.8550   -1.0120   30.1430 C.3     1  UNL1        0.1127
      2 C         -24.9730   -2.5050   29.7880 C.2     1  UNL1       -0.0051
      3 C         -23.9060   -3.1730   29.1460 C.2     1  UNL1       -0.0029
      4 C         -23.9890   -4.5490   28.8530 C.2     1  UNL1       -0.0003
      5 C         -25.1370   -5.2800   29.2050 C.2     1  UNL1       -0.0000
      6 C         -26.2320   -4.6110   29.7840 C.2     1  UNL1       -0.0003
      7 C         -26.1550   -3.2320   30.0650 C.2     1  UNL1       -0.0029
      8 C         -25.3870   -0.6790   31.5710 C.3     1  UNL1        0.0929
      9 C         -25.1890    0.7730   32.0280 C.3     1  UNL1        0.0206
     10 C         -25.3360    0.6840   33.5440 C.3     1  UNL1        0.0203
     11 C         -24.8290   -0.7150   33.9050 C.3     1  UNL1        0.0888
     12 N         -24.7580   -1.4810   32.6460 N.3     1  UNL1       -0.2177
     13 C         -25.6880    1.6140   26.4610 C.3     1  UNL1        0.1005
     14 C         -26.2500    2.9200   26.3950 C.2     1  UNL1        0.0573
     15 C         -25.6420    4.0930   27.1230 C.2     1  UNL1        0.2625
     16 N         -25.6140    5.2520   26.4490 N.am    1  UNL1       -0.2000
     17 C         -25.0260    6.4790   26.9630 C.3     1  UNL1        0.1388
     18 O         -25.1430    3.9660   28.2430 O.2     1  UNL1       -0.2687
     19 C         -27.4380    3.0910   25.6450 C.2     1  UNL1        0.1022
     20 N         -28.0750    2.0890   25.0030 N.2     1  UNL1       -0.2119
     21 C         -27.5430    0.8490   25.0790 C.2     1  UNL1        0.2342
     22 O         -28.1930   -0.2080   24.4770 O.2     1  UNL1       -0.4585
     23 C         -29.4600    0.0050   23.8660 C.3     1  UNL1        0.2423
     24 C         -30.0650   -1.3770   23.5730 C.3     1  UNL1        0.2292
     25 O         -30.7290   -1.8780   24.7210 O.3     1  UNL1       -0.2162
     26 C         -26.3540    0.5760   25.7770 C.3     1  UNL1        0.2425
     27 F         -25.8600   -0.6810   25.7950 F       1  UNL1       -0.2268
     28 O         -31.2131    0.2001   30.8323 O.3     1  UNL1       -0.2199
     29 C         -30.7284    3.1425   29.5035 C.3     1  UNL1        0.0006
     30 C         -22.5373    0.7654   28.2744 C.3     1  UNL1        0.2397
     31 C         -30.4258    1.8297   28.8012 C.3     1  UNL1        0.0112
     32 O         -28.6809   -0.4008   27.8027 O.2     1  UNL1       -0.2732
     33 N         -22.8712    1.0425   29.6639 N.3     1  UNL1       -0.0972
     34 N         -25.0731   -0.2781   28.9391 N.3     1  UNL1       -0.1921
     35 O         -21.3908    2.0286   26.5097 O.3     1  UNL1       -0.2160
     36 C         -28.9104    3.1127   30.9789 C.3     1  UNL1        0.0006
     37 C         -28.5176    1.7776   30.4575 C.3     1  UNL1        0.0112
     38 O         -23.4877    1.0396   27.2464 O.3     1  UNL1       -0.3352
     39 C         -30.4133    3.1073   30.9583 C.3     1  UNL1        0.0000
     40 C         -24.8387    1.2752   27.6605 C.3     1  UNL1        0.1606
     41 C         -25.7590    0.5043   28.5757 C.3     1  UNL1        0.1956
     42 C         -29.3112    1.0384   29.4996 C.3     1  UNL1        0.1010
     43 C         -28.2932    0.2912   28.6679 C.2     1  UNL1        0.2442
     44 C         -21.3137    1.5311   27.8181 C.3     1  UNL1        0.2313
     45 N         -27.1182    0.5557   28.8796 N.am    1  UNL1       -0.1866
     46 C         -29.9744   -0.1460   30.2920 C.3     1  UNL1        0.1906
@<TRIPOS>BOND
     1     1    34    1
     2     2     7    1
     3     2     1    1
     4     3     2    2
     5     4     3    1
     6     4     5    2
     7     5     6    1
     8     6     7    2
     9     8     1    1
    10     8     9    1
    11     8    12    1
    12     9    10    1
    13    10    11    1
    14    12    11    1
    15    13    40    1
    16    14    13    1
    17    14    15    1
    18    15    18    2
    19    16    17    1
    20    16    15    1
    21    19    14    2
    22    20    21    2
    23    20    19    1
    24    21    26    1
    25    22    21    1
    26    23    22    1
    27    24    23    1
    28    24    25    1
    29    26    27    1
    30    26    13    1
    31    29    39    1
    32    30    33    1
    33    31    42    1
    34    31    29    1
    35    32    43    2
    36    35    44    1
    37    37    36    1
    38    38    30    1
    39    39    36    1
    40    40    38    1
    41    40    41    1
    42    41    45    1
    43    41    34    1
    44    42    46    1
    45    42    37    1
    46    43    45    1
    47    43    42    1
    48    44    30    1
    49    46    28    1
