@<TRIPOS>MOLECULE
outputs/IAG933/test6/raw/output_4591_IAG933_linker_design_.xyz
 43 46 0 0 0
SMALL
GASTEIGER

@<TRIPOS>ATOM
      1 C         -24.8550   -1.0120   30.1430 C.3     1  UNL1        0.1155
      2 C         -24.9730   -2.5050   29.7880 C.2     1  UNL1       -0.0029
      3 C         -23.9060   -3.1730   29.1460 C.2     1  UNL1       -0.0026
      4 C         -23.9890   -4.5490   28.8530 C.2     1  UNL1       -0.0003
      5 C         -25.1370   -5.2800   29.2050 C.2     1  UNL1       -0.0000
      6 C         -26.2320   -4.6110   29.7840 C.2     1  UNL1       -0.0003
      7 C         -26.1550   -3.2320   30.0650 C.2     1  UNL1       -0.0026
      8 C         -25.3870   -0.6790   31.5710 C.3     1  UNL1        0.0952
      9 C         -25.1890    0.7730   32.0280 C.3     1  UNL1        0.0209
     10 C         -25.3360    0.6840   33.5440 C.3     1  UNL1        0.0203
     11 C         -24.8290   -0.7150   33.9050 C.3     1  UNL1        0.0888
     12 N         -24.7580   -1.4810   32.6460 N.3     1  UNL1       -0.2174
     13 C         -25.6880    1.6140   26.4610 C.2     1  UNL1        0.0249
     14 C         -26.2500    2.9200   26.3950 C.2     1  UNL1        0.0730
     15 C         -25.6420    4.0930   27.1230 C.2     1  UNL1        0.2661
     16 N         -25.6140    5.2520   26.4490 N.am    1  UNL1       -0.1997
     17 C         -25.0260    6.4790   26.9630 C.3     1  UNL1        0.1388
     18 O         -25.1430    3.9660   28.2430 O.2     1  UNL1       -0.2683
     19 C         -27.4380    3.0910   25.6450 C.2     1  UNL1        0.1064
     20 N         -28.0750    2.0890   25.0030 N.2     1  UNL1       -0.2081
     21 C         -27.5430    0.8490   25.0790 C.2     1  UNL1        0.2530
     22 O         -28.1930   -0.2080   24.4770 O.2     1  UNL1       -0.4558
     23 C         -29.4600    0.0050   23.8660 C.3     1  UNL1        0.2426
     24 C         -30.0650   -1.3770   23.5730 C.3     1  UNL1        0.2292
     25 O         -30.7290   -1.8780   24.7210 O.3     1  UNL1       -0.2162
     26 C         -26.3540    0.5760   25.7770 C.2     1  UNL1        0.1896
     27 F         -25.8600   -0.6810   25.7950 F       1  UNL1       -0.1996
     28 C         -24.2826    0.5945   28.3925 C.3     1  UNL1        0.1108
     29 C         -21.7366    0.7938   28.8858 C.2     1  UNL1       -0.0028
     30 O         -23.3020    2.3930   25.1714 O.2     1  UNL1       -0.2909
     31 C         -23.0264    1.8385   26.2398 C.2     1  UNL1        0.1788
     32 C         -24.2994    1.4036   27.0855 C.3     1  UNL1        0.1090
     33 C         -27.9167    3.9157   30.4664 C.2     1  UNL1        0.2829
     34 N         -26.5904    1.9136   29.6596 N.am    1  UNL1       -0.1784
     35 C         -21.5651    1.7197   26.5200 C.2     1  UNL1        0.0378
     36 C         -27.9322    2.5908   29.5955 C.3     1  UNL1        0.2047
     37 N         -26.7411    4.4359   31.1269 N.am    1  UNL1       -0.0862
     38 N         -25.2855    0.0040   29.1904 N.am    1  UNL1       -0.2565
     39 C         -26.5315    0.6087   29.2573 C.2     1  UNL1        0.3241
     40 O         -27.4875   -0.0559   28.8990 O.2     1  UNL1       -0.2507
     41 C         -23.1056    0.5580   29.2024 C.2     1  UNL1       -0.0059
     42 O         -29.0840    4.5464   30.6443 O.2     1  UNL1       -0.2697
     43 C         -21.0099    1.2257   27.7413 C.2     1  UNL1        0.0027
@<TRIPOS>BOND
     1     1    38    1
     2     2     7    1
     3     2     1    1
     4     3     2    2
     5     4     3    1
     6     4     5    2
     7     5     6    1
     8     6     7    2
     9     8     1    1
    10     8     9    1
    11     8    12    1
    12     9    10    1
    13    10    11    1
    14    12    11    1
    15    14    13    1
    16    14    15    1
    17    15    18    2
    18    16    17    1
    19    16    15    1
    20    19    14    2
    21    20    21    2
    22    20    19    1
    23    21    26    1
    24    22    21    1
    25    23    22    1
    26    24    23    1
    27    24    25    1
    28    26    27    1
    29    26    13    2
    30    28    38    1
    31    28    41    1
    32    29    41    2
    33    30    31    2
    34    31    35    1
    35    31    32    1
    36    32    13    1
    37    32    28    1
    38    33    42    2
    39    33    37    1
    40    35    43    2
    41    36    34    1
    42    36    33    1
    43    38    39   am
    44    39    34    1
    45    40    39    2
    46    43    29    1
