@<TRIPOS>MOLECULE
No_4592-gen_results/8p0m/2024-11-27-11-27-31/
 6 5 0 0 0
SMALL
GASTEIGER

@<TRIPOS>ATOM
      1 F         -28.0727   -1.2542   28.5316 F       1  UNL1       -0.1953
      2 C         -27.0607   -0.6291   28.8721 C.3     1  UNL1        0.3504
      3 F         -26.1267   -1.0777   29.2000 F       1  UNL1       -0.1953
      4 C         -27.1088    0.8355   28.6396 C.3     1  UNL1        0.2272
      5 F         -26.2626    1.3603   29.3215 F       1  UNL1       -0.2312
      6 C         -26.9065    1.1659   27.2156 C.3     1  UNL1        0.0442
@<TRIPOS>BOND
     1     1     2    1
     2     2     3    1
     3     2     4    1
     4     4     5    1
     5     4     6    1
