@<TRIPOS>MOLECULE
outputs/IAG933/test6/raw/output_4595_IAG933_linker_design_.xyz
 47 51 0 0 0
SMALL
GASTEIGER

@<TRIPOS>ATOM
      1 C         -24.8550   -1.0120   30.1430 C.3     1  UNL1        0.0438
      2 C         -24.9730   -2.5050   29.7880 C.2     1  UNL1       -0.0208
      3 C         -23.9060   -3.1730   29.1460 C.2     1  UNL1       -0.0042
      4 C         -23.9890   -4.5490   28.8530 C.2     1  UNL1       -0.0003
      5 C         -25.1370   -5.2800   29.2050 C.2     1  UNL1       -0.0000
      6 C         -26.2320   -4.6110   29.7840 C.2     1  UNL1       -0.0003
      7 C         -26.1550   -3.2320   30.0650 C.2     1  UNL1       -0.0042
      8 C         -25.3870   -0.6790   31.5710 C.3     1  UNL1        0.0795
      9 C         -25.1890    0.7730   32.0280 C.3     1  UNL1        0.0479
     10 C         -25.3360    0.6840   33.5440 C.3     1  UNL1        0.0227
     11 C         -24.8290   -0.7150   33.9050 C.3     1  UNL1        0.0888
     12 N         -24.7580   -1.4810   32.6460 N.3     1  UNL1       -0.2190
     13 C         -25.6880    1.6140   26.4610 C.2     1  UNL1        0.0387
     14 C         -26.2500    2.9200   26.3950 C.2     1  UNL1        0.0764
     15 C         -25.6420    4.0930   27.1230 C.2     1  UNL1        0.2664
     16 N         -25.6140    5.2520   26.4490 N.am    1  UNL1       -0.1997
     17 C         -25.0260    6.4790   26.9630 C.3     1  UNL1        0.1388
     18 O         -25.1430    3.9660   28.2430 O.2     1  UNL1       -0.2683
     19 C         -27.4380    3.0910   25.6450 C.2     1  UNL1        0.1067
     20 N         -28.0750    2.0890   25.0030 N.2     1  UNL1       -0.2081
     21 C         -27.5430    0.8490   25.0790 C.2     1  UNL1        0.2533
     22 O         -28.1930   -0.2080   24.4770 O.2     1  UNL1       -0.4558
     23 C         -29.4600    0.0050   23.8660 C.3     1  UNL1        0.2426
     24 C         -30.0650   -1.3770   23.5730 C.3     1  UNL1        0.2292
     25 O         -30.7290   -1.8780   24.7210 O.3     1  UNL1       -0.2162
     26 C         -26.3540    0.5760   25.7770 C.2     1  UNL1        0.1929
     27 F         -25.8600   -0.6810   25.7950 F       1  UNL1       -0.1992
     28 O         -21.9120    1.5730   26.7098 O.2     1  UNL1       -0.4716
     29 C         -23.1725    1.6896   26.1745 C.3     1  UNL1        0.1897
     30 C         -26.0402    7.1497   33.8403 C.2     1  UNL1        0.0366
     31 C         -22.6027    0.9234   28.8498 C.2     1  UNL1        0.0559
     32 C         -23.3466    1.8826   24.7217 C.3     1  UNL1        0.0523
     33 C         -24.4723    7.3653   31.9974 C.2     1  UNL1        0.0366
     34 C         -23.9071    1.3740   28.5182 C.2     1  UNL1        0.0679
     35 C         -25.1071    7.9826   33.0159 C.2     1  UNL1        0.1387
     36 N         -24.5179    1.8273   29.6282 N.pl3   1  UNL1       -0.2351
     37 C         -23.8017    9.8048   32.6356 C.3     1  UNL1        0.2525
     38 O         -24.8426    9.2329   33.3776 O.2     1  UNL1       -0.4714
     39 C         -21.5905    1.1134   27.8838 C.2     1  UNL1        0.1738
     40 C         -25.1212    2.3668   31.7970 C.3     1  UNL1        0.1517
     41 C         -25.2875    5.0690   32.6242 C.2     1  UNL1       -0.0195
     42 O         -26.4190    2.8086   31.2664 O.3     1  UNL1       -0.2234
     43 C         -23.8081    2.3463   30.8359 C.3     1  UNL1        0.1428
     44 C         -26.0766    5.7483   33.6419 C.2     1  UNL1       -0.0011
     45 C         -24.7945    3.6396   32.7634 C.3     1  UNL1        0.0586
     46 C         -24.3507    1.5187   27.0879 C.2     1  UNL1        0.0346
     47 C         -24.6361    5.9323   31.6644 C.2     1  UNL1       -0.0011
@<TRIPOS>BOND
     1     2     7    1
     2     2     1    1
     3     3     2    2
     4     4     3    1
     5     4     5    2
     6     5     6    1
     7     6     7    2
     8     8     1    1
     9     8     9    1
    10     8    12    1
    11     9    40    1
    12     9    10    1
    13    10    11    1
    14    12    11    1
    15    13    46    1
    16    14    13    1
    17    14    15    1
    18    15    18    2
    19    16    17    1
    20    16    15    1
    21    19    14    2
    22    20    21    2
    23    20    19    1
    24    21    26    1
    25    22    21    1
    26    23    22    1
    27    24    23    1
    28    24    25    1
    29    26    27    1
    30    26    13    2
    31    28    39    1
    32    29    32    1
    33    29    28    1
    34    29    46    1
    35    33    35    1
    36    34    31    1
    37    34    36    1
    38    35    38    1
    39    35    30    2
    40    36    43    1
    41    37    38    1
    42    39    31    2
    43    40    42    1
    44    40    45    1
    45    41    45    1
    46    41    44    2
    47    43    40    1
    48    44    30    1
    49    46    34    2
    50    47    33    2
    51    47    41    1
