@<TRIPOS>MOLECULE
No_4596-gen_results/8p0m/2024-11-27-11-27-31/
 18 20 0 0 0
SMALL
GASTEIGER

@<TRIPOS>ATOM
      1 C         -28.0162   -0.8135   28.8779 C.ar    1  UNL1        0.0000
      2 C         -27.0636   -0.1190   28.6079 C.ar    1  UNL1        0.0001
      3 C         -26.9716    0.7139   27.5060 C.ar    1  UNL1        0.0129
      4 C         -28.1053    0.7744   26.6421 C.ar    1  UNL1        0.0052
      5 C         -29.2008    0.1044   27.0527 C.ar    1  UNL1        0.0796
      6 C         -29.2096   -0.6029   28.1853 C.ar    1  UNL1        0.0066
      7 C         -30.4815    0.1441   26.3452 C.2     1  UNL1        0.3877
      8 O         -31.4212   -0.4197   26.6541 O.co2   1  UNL1       -0.2406
      9 O         -30.6243    1.0825   25.3858 O.co2   1  UNL1       -0.2406
     10 C         -25.6792   -0.2249   29.3947 C.ar    1  UNL1        0.0147
     11 C         -25.2748   -1.0133   29.9297 C.ar    1  UNL1        0.0013
     12 C         -23.9806   -1.0895   30.6681 C.ar    1  UNL1        0.0001
     13 C         -23.1996   -0.1703   30.4315 C.ar    1  UNL1        0.0013
     14 C         -23.5076    0.9631   29.6199 C.ar    1  UNL1        0.0161
     15 C         -24.8285    0.9782   29.0021 C.ar    1  UNL1        0.0670
     16 N         -25.2323    1.9269   28.2387 N.pl3   1  UNL1       -0.2184
     17 C         -26.2250    1.8577   27.3738 C.3     1  UNL1        0.1931
     18 CL        -26.2007    2.8871   25.9766 Cl      1  UNL1       -0.0861
@<TRIPOS>BOND
     1     5     7    1
     2     7     8   ar
     3     7     9   ar
     4     2    10    1
     5    15    16    1
     6     3    17    1
     7    16    17    1
     8    17    18    1
     9     1     2   ar
    10     2     3   ar
    11     3     4   ar
    12     4     5   ar
    13     5     6   ar
    14     6     1   ar
    15    10    11   ar
    16    11    12   ar
    17    12    13   ar
    18    13    14   ar
    19    14    15   ar
    20    15    10   ar
