@<TRIPOS>MOLECULE
No_4600-gen_results/8p0m/2024-11-27-11-27-31/
 14 15 0 0 0
SMALL
GASTEIGER

@<TRIPOS>ATOM
      1 C         -28.0162   -0.8135   28.8779 C.ar    1  UNL1        0.0009
      2 C         -27.0636   -0.1189   28.6079 C.ar    1  UNL1        0.0001
      3 C         -26.9716    0.7139   27.5060 C.ar    1  UNL1        0.0009
      4 C         -28.1053    0.7744   26.6421 C.ar    1  UNL1        0.0114
      5 C         -29.2041    0.1179   27.0477 C.ar    1  UNL1        0.0577
      6 C         -29.2127   -0.6088   28.1281 C.ar    1  UNL1        0.0114
      7 CL        -30.6624    0.2313   26.2021 Cl      1  UNL1       -0.0822
      8 C         -25.7054    1.4439   27.1045 C.ar    1  UNL1        0.0032
      9 C         -25.3352    1.8933   26.1196 C.ar    1  UNL1        0.0002
     10 C         -23.9952    2.5650   25.9492 C.ar    1  UNL1        0.0033
     11 C         -23.0447    2.3860   26.9726 C.ar    1  UNL1        0.0420
     12 C         -23.4181    1.6840   28.1153 C.ar    1  UNL1        0.1957
     13 C         -24.6821    1.1809   28.2538 C.ar    1  UNL1        0.0420
     14 O         -22.4545    1.5947   29.0431 O.3     1  UNL1       -0.2866
@<TRIPOS>BOND
     1     5     7    1
     2     3     8    1
     3    12    14    1
     4     1     2   ar
     5     2     3   ar
     6     3     4   ar
     7     4     5   ar
     8     5     6   ar
     9     6     1   ar
    10     8     9   ar
    11     9    10   ar
    12    10    11   ar
    13    11    12   ar
    14    12    13   ar
    15    13     8   ar
