@<TRIPOS>MOLECULE
No_4606-gen_results/8p0m/2024-11-27-11-27-31/
 18 19 0 0 0
SMALL
GASTEIGER

@<TRIPOS>ATOM
      1 C         -28.0162   -0.8135   28.8779 C.ar    1  UNL1        0.0043
      2 C         -28.4690   -0.7850   29.8287 C.ar    1  UNL1        0.0555
      3 C         -26.5042   -0.7777   28.8766 C.ar    1  UNL1       -0.0041
      4 C         -25.9500    0.1157   29.4052 C.ar    1  UNL1       -0.0218
      5 C         -29.9713   -0.8318   29.8595 C.2     1  UNL1        0.2733
      6 C         -26.5443    0.4866   30.7701 C.ar    1  UNL1       -0.0041
      7 C         -27.9173    0.0753   31.0021 C.ar    1  UNL1        0.0043
      8 N         -30.7182   -0.0454   30.4793 N.am    1  UNL1       -0.1110
      9 C         -31.6137    0.6329   30.2122 C.2     1  UNL1        0.4165
     10 F         -32.1791    0.3427   29.1538 F       1  UNL1       -0.1421
     11 O         -32.6097    0.9404   31.0537 O.2     1  UNL1       -0.2339
     12 O         -30.4768   -1.9013   29.4460 O.2     1  UNL1       -0.2679
     13 C         -24.5056    0.3783   29.3893 C.3     1  UNL1        0.0323
     14 C         -24.1191    1.3418   28.3530 C.3     1  UNL1        0.0474
     15 C         -24.7615    2.3799   28.0856 C.2     1  UNL1        0.0667
     16 N         -24.3729    3.0845   26.9297 N.2     1  UNL1       -0.2735
     17 C         -23.2942    2.4571   26.3563 C.3     1  UNL1        0.1255
     18 C         -23.0813    1.3595   27.1988 C.3     1  UNL1        0.0325
@<TRIPOS>BOND
     1     2     5    1
     2     5     8   am
     3     8     9   am
     4     9    10    1
     5     9    11    2
     6     5    12    2
     7     4    13    1
     8    13    14    1
     9    14    15    1
    10    15    16    2
    11    16    17    1
    12    14    18    1
    13    17    18    1
    14     1     2   ar
    15     2     7   ar
    16     7     6   ar
    17     6     4   ar
    18     4     3   ar
    19     3     1   ar
