@<TRIPOS>MOLECULE
outputs/IAG933/test6/raw/output_4607_IAG933_linker_design_.xyz
 46 49 0 0 0
SMALL
GASTEIGER

@<TRIPOS>ATOM
      1 C         -24.8550   -1.0120   30.1430 C.3     1  UNL1        0.0415
      2 C         -24.9730   -2.5050   29.7880 C.2     1  UNL1       -0.0210
      3 C         -23.9060   -3.1730   29.1460 C.2     1  UNL1       -0.0042
      4 C         -23.9890   -4.5490   28.8530 C.2     1  UNL1       -0.0003
      5 C         -25.1370   -5.2800   29.2050 C.2     1  UNL1       -0.0000
      6 C         -26.2320   -4.6110   29.7840 C.2     1  UNL1       -0.0003
      7 C         -26.1550   -3.2320   30.0650 C.2     1  UNL1       -0.0042
      8 C         -25.3870   -0.6790   31.5710 C.3     1  UNL1        0.0769
      9 C         -25.1890    0.7730   32.0280 C.3     1  UNL1        0.0192
     10 C         -25.3360    0.6840   33.5440 C.3     1  UNL1        0.0202
     11 C         -24.8290   -0.7150   33.9050 C.3     1  UNL1        0.0887
     12 N         -24.7580   -1.4810   32.6460 N.3     1  UNL1       -0.2191
     13 C         -25.6880    1.6140   26.4610 C.2     1  UNL1        0.0304
     14 C         -26.2500    2.9200   26.3950 C.2     1  UNL1        0.0738
     15 C         -25.6420    4.0930   27.1230 C.2     1  UNL1        0.2662
     16 N         -25.6140    5.2520   26.4490 N.am    1  UNL1       -0.1997
     17 C         -25.0260    6.4790   26.9630 C.3     1  UNL1        0.1388
     18 O         -25.1430    3.9660   28.2430 O.2     1  UNL1       -0.2683
     19 C         -27.4380    3.0910   25.6450 C.2     1  UNL1        0.1065
     20 N         -28.0750    2.0890   25.0030 N.2     1  UNL1       -0.2081
     21 C         -27.5430    0.8490   25.0790 C.2     1  UNL1        0.2530
     22 O         -28.1930   -0.2080   24.4770 O.2     1  UNL1       -0.4558
     23 C         -29.4600    0.0050   23.8660 C.3     1  UNL1        0.2426
     24 C         -30.0650   -1.3770   23.5730 C.3     1  UNL1        0.2292
     25 O         -30.7290   -1.8780   24.7210 O.3     1  UNL1       -0.2162
     26 C         -26.3540    0.5760   25.7770 C.2     1  UNL1        0.1904
     27 F         -25.8600   -0.6810   25.7950 F       1  UNL1       -0.1995
     28 N         -24.3863    1.4280   28.3719 N.3     1  UNL1       -0.2518
     29 C         -25.4531    7.4072   32.2633 C.3     1  UNL1        0.1538
     30 C         -25.4264    1.3135   29.1564 C.3     1  UNL1        0.1569
     31 C         -25.8655   -0.1583   29.2746 C.3     1  UNL1        0.0443
     32 C         -26.1247    3.5399   30.7418 C.2     1  UNL1        0.3404
     33 C         -27.1802    5.5570   31.5539 C.3     1  UNL1        0.0995
     34 N         -26.0729    2.4153   29.7575 N.am    1  UNL1       -0.1722
     35 O         -24.5098    6.7278   31.7081 O.3     1  UNL1       -0.2231
     36 C         -22.7557    1.6766   26.9409 C.3     1  UNL1        0.0530
     37 C         -25.2621    8.4750   33.3164 C.3     1  UNL1        0.0355
     38 C         -24.4655    1.3720   27.0277 C.3     1  UNL1        0.0867
     39 F         -21.3598    0.5261   27.6931 F       1  UNL1       -0.2357
     40 C         -28.6193    5.7303   31.0937 C.3     1  UNL1        0.0236
     41 N         -26.2693    4.9819   30.5665 N.am    1  UNL1       -0.1889
     42 C         -26.8125    7.0030   32.0751 C.3     1  UNL1        0.0546
     43 C         -23.1211    1.3653   28.9389 C.3     1  UNL1        0.1093
     44 O         -26.0463    3.1954   31.8444 O.2     1  UNL1       -0.2491
     45 C         -22.2956    1.1801   27.9191 C.3     1  UNL1        0.1784
     46 C         -22.4738    2.4981   25.5120 C.3     1  UNL1        0.0046
@<TRIPOS>BOND
     1     1    31    1
     2     2     7    1
     3     2     1    1
     4     3     2    2
     5     4     3    1
     6     4     5    2
     7     5     6    1
     8     6     7    2
     9     8     1    1
    10     8     9    1
    11     8    12    1
    12     9    10    1
    13    10    11    1
    14    12    11    1
    15    14    13    1
    16    14    15    1
    17    15    18    2
    18    16    17    1
    19    16    15    1
    20    19    14    2
    21    20    21    2
    22    20    19    1
    23    21    26    1
    24    22    21    1
    25    23    22    1
    26    24    23    1
    27    24    25    1
    28    26    27    1
    29    26    13    2
    30    28    43    1
    31    28    30    1
    32    29    37    1
    33    30    31    1
    34    30    34    1
    35    32    44    2
    36    33    40    1
    37    33    42    1
    38    34    32    1
    39    35    29    1
    40    36    46    1
    41    36    38    1
    42    36    45    1
    43    38    13    1
    44    38    28    1
    45    41    32    1
    46    41    33    1
    47    42    29    1
    48    45    39    1
    49    45    43    1
