@<TRIPOS>MOLECULE
No_461-gen_results/8p0m/2024-11-27-11-27-31/
 13 13 0 0 0
SMALL
GASTEIGER

@<TRIPOS>ATOM
      1 C         -28.0162   -0.8135   28.8779 C.ar    1  UNL1       -0.0039
      2 C         -28.4690   -0.7850   29.8287 C.ar    1  UNL1       -0.0003
      3 C         -28.1960    0.3478   28.0550 C.ar    1  UNL1       -0.0178
      4 C         -29.0191    1.3501   28.3782 C.ar    1  UNL1       -0.0039
      5 C         -29.6249    1.2683   29.6012 C.ar    1  UNL1       -0.0003
      6 C         -29.3821    0.1816   30.4004 C.ar    1  UNL1       -0.0000
      7 C         -27.4591    0.3787   26.7048 C.3     1  UNL1        0.0520
      8 C         -26.1348    0.3565   26.8183 C.2     1  UNL1       -0.0256
      9 C         -25.3867    0.0255   27.9208 C.2     1  UNL1       -0.0257
     10 C         -23.9776    0.0231   27.9125 C.3     1  UNL1        0.0513
     11 C         -23.2128   -0.3716   29.0874 C.2     1  UNL1       -0.0260
     12 C         -23.8141   -1.1949   30.0213 C.2     1  UNL1       -0.0300
     13 C         -25.1804   -1.3032   30.0025 C.3     1  UNL1        0.0304
@<TRIPOS>BOND
     1     3     7    1
     2     7     8    1
     3     8     9    2
     4     9    10    1
     5    10    11    1
     6    11    12    2
     7    12    13    1
     8     1     2   ar
     9     2     6   ar
    10     6     5   ar
    11     5     4   ar
    12     4     3   ar
    13     3     1   ar
