@<TRIPOS>MOLECULE
outputs/IAG933/test6/raw/output_4612_IAG933_linker_design_.xyz
 41 45 0 0 0
SMALL
GASTEIGER

@<TRIPOS>ATOM
      1 C         -24.8550   -1.0120   30.1430 C.3     1  UNL1        0.1505
      2 C         -24.9730   -2.5050   29.7880 C.2     1  UNL1        0.0017
      3 C         -23.9060   -3.1730   29.1460 C.2     1  UNL1       -0.0023
      4 C         -23.9890   -4.5490   28.8530 C.2     1  UNL1       -0.0003
      5 C         -25.1370   -5.2800   29.2050 C.2     1  UNL1       -0.0000
      6 C         -26.2320   -4.6110   29.7840 C.2     1  UNL1       -0.0003
      7 C         -26.1550   -3.2320   30.0650 C.2     1  UNL1       -0.0023
      8 C         -25.3870   -0.6790   31.5710 C.3     1  UNL1        0.0999
      9 C         -25.1890    0.7730   32.0280 C.3     1  UNL1        0.0212
     10 C         -25.3360    0.6840   33.5440 C.3     1  UNL1        0.0203
     11 C         -24.8290   -0.7150   33.9050 C.3     1  UNL1        0.0888
     12 N         -24.7580   -1.4810   32.6460 N.3     1  UNL1       -0.2171
     13 C         -25.6880    1.6140   26.4610 C.2     1  UNL1        0.0427
     14 C         -26.2500    2.9200   26.3950 C.2     1  UNL1        0.0767
     15 C         -25.6420    4.0930   27.1230 C.2     1  UNL1        0.2664
     16 N         -25.6140    5.2520   26.4490 N.am    1  UNL1       -0.1997
     17 C         -25.0260    6.4790   26.9630 C.3     1  UNL1        0.1388
     18 O         -25.1430    3.9660   28.2430 O.2     1  UNL1       -0.2683
     19 C         -27.4380    3.0910   25.6450 C.2     1  UNL1        0.1067
     20 N         -28.0750    2.0890   25.0030 N.2     1  UNL1       -0.2081
     21 C         -27.5430    0.8490   25.0790 C.2     1  UNL1        0.2533
     22 O         -28.1930   -0.2080   24.4770 O.2     1  UNL1       -0.4558
     23 C         -29.4600    0.0050   23.8660 C.3     1  UNL1        0.2426
     24 C         -30.0650   -1.3770   23.5730 C.3     1  UNL1        0.2292
     25 O         -30.7290   -1.8780   24.7210 O.3     1  UNL1       -0.2162
     26 C         -26.3540    0.5760   25.7770 C.2     1  UNL1        0.1932
     27 F         -25.8600   -0.6810   25.7950 F       1  UNL1       -0.1992
     28 C         -24.4122    1.2433   27.1021 C.2     1  UNL1        0.0606
     29 O         -26.4311    0.2616   28.7885 O.3     1  UNL1       -0.0839
     30 O         -22.0601    1.3533   26.9047 O.2     1  UNL1       -0.4415
     31 C         -23.3400    2.0129   25.1308 C.2     1  UNL1        0.4212
     32 N         -25.1442   -0.1474   28.9706 N.3     1  UNL1       -0.2035
     33 C         -22.4302   -0.3487   29.8764 C.3     1  UNL1        0.1512
     34 C         -24.2006    0.5268   28.3059 C.2     1  UNL1        0.0879
     35 C         -21.8195    0.7094   28.0152 C.3     1  UNL1        0.3294
     36 C         -23.2471    1.5474   26.4178 C.2     1  UNL1        0.2223
     37 O         -22.4130    2.9412   24.8535 O.co2   1  UNL1       -0.2371
     38 O         -24.1196    1.6491   24.3115 O.co2   1  UNL1       -0.2371
     39 O         -20.5237    0.6384   28.5029 O.3     1  UNL1       -0.2214
     40 C         -22.8778    0.3461   28.7554 C.2     1  UNL1        0.0644
     41 N         -20.9692   -0.5748   29.2689 N.3     1  UNL1       -0.0748
@<TRIPOS>BOND
     1     1    32    1
     2     2     7    1
     3     2     1    1
     4     3     2    2
     5     4     3    1
     6     4     5    2
     7     5     6    1
     8     6     7    2
     9     8     1    1
    10     8     9    1
    11     8    12    1
    12     9    10    1
    13    10    11    1
    14    12    11    1
    15    13    28    1
    16    14    13    1
    17    14    15    1
    18    15    18    2
    19    16    17    1
    20    16    15    1
    21    19    14    2
    22    20    21    2
    23    20    19    1
    24    21    26    1
    25    22    21    1
    26    23    22    1
    27    24    23    1
    28    24    25    1
    29    26    27    1
    30    26    13    2
    31    28    34    1
    32    29    32    1
    33    31    36    1
    34    34    40    2
    35    34    32    1
    36    35    30    1
    37    35    39    1
    38    35    40    1
    39    36    30    1
    40    36    28    2
    41    37    31   ar
    42    38    31   ar
    43    39    41    1
    44    40    33    1
    45    41    33    1
