@<TRIPOS>MOLECULE
outputs/IAG933/test6/raw/output_4614_IAG933_linker_design_.xyz
 44 48 0 0 0
SMALL
GASTEIGER

@<TRIPOS>ATOM
      1 C         -24.8550   -1.0120   30.1430 C.3     1  UNL1        0.1260
      2 C         -24.9730   -2.5050   29.7880 C.2     1  UNL1       -0.0041
      3 C         -23.9060   -3.1730   29.1460 C.2     1  UNL1       -0.0029
      4 C         -23.9890   -4.5490   28.8530 C.2     1  UNL1       -0.0003
      5 C         -25.1370   -5.2800   29.2050 C.2     1  UNL1       -0.0000
      6 C         -26.2320   -4.6110   29.7840 C.2     1  UNL1       -0.0003
      7 C         -26.1550   -3.2320   30.0650 C.2     1  UNL1       -0.0029
      8 C         -25.3870   -0.6790   31.5710 C.3     1  UNL1        0.0940
      9 C         -25.1890    0.7730   32.0280 C.3     1  UNL1        0.0207
     10 C         -25.3360    0.6840   33.5440 C.3     1  UNL1        0.0203
     11 C         -24.8290   -0.7150   33.9050 C.3     1  UNL1        0.0888
     12 N         -24.7580   -1.4810   32.6460 N.3     1  UNL1       -0.2177
     13 C         -25.6880    1.6140   26.4610 C.2     1  UNL1        0.0387
     14 C         -26.2500    2.9200   26.3950 C.2     1  UNL1        0.0764
     15 C         -25.6420    4.0930   27.1230 C.2     1  UNL1        0.2664
     16 N         -25.6140    5.2520   26.4490 N.am    1  UNL1       -0.1997
     17 C         -25.0260    6.4790   26.9630 C.3     1  UNL1        0.1388
     18 O         -25.1430    3.9660   28.2430 O.2     1  UNL1       -0.2683
     19 C         -27.4380    3.0910   25.6450 C.2     1  UNL1        0.1067
     20 N         -28.0750    2.0890   25.0030 N.2     1  UNL1       -0.2081
     21 C         -27.5430    0.8490   25.0790 C.2     1  UNL1        0.2533
     22 O         -28.1930   -0.2080   24.4770 O.2     1  UNL1       -0.4558
     23 C         -29.4600    0.0050   23.8660 C.3     1  UNL1        0.2426
     24 C         -30.0650   -1.3770   23.5730 C.3     1  UNL1        0.2292
     25 O         -30.7290   -1.8780   24.7210 O.3     1  UNL1       -0.2162
     26 C         -26.3540    0.5760   25.7770 C.2     1  UNL1        0.1929
     27 F         -25.8600   -0.6810   25.7950 F       1  UNL1       -0.1992
     28 O         -26.5579    0.2226   28.6207 O.3     1  UNL1       -0.1169
     29 O         -20.1003   -0.7071   27.6404 O.3     1  UNL1       -0.1711
     30 F         -19.7073    1.7871   27.9024 F       1  UNL1       -0.2272
     31 O         -21.3580    1.6932   25.8318 O.3     1  UNL1       -0.2842
     32 C         -22.0424    1.5508   27.0561 C.3     1  UNL1        0.2162
     33 C         -24.5358    1.2661   27.2410 C.2     1  UNL1        0.0402
     34 C         -20.9511    1.3107   28.1159 C.3     1  UNL1        0.2673
     35 O         -23.3329    2.3133   25.4605 O.2     1  UNL1       -0.4291
     36 O         -22.1944   -0.7049   28.5613 O.3     1  UNL1       -0.4183
     37 O         -22.7563    0.9530   30.1219 O.2     1  UNL1       -0.2481
     38 N         -25.2820   -0.0775   29.1266 N.3     1  UNL1       -0.1152
     39 F         -22.2331    1.7595   23.7823 F       1  UNL1       -0.1587
     40 C         -24.3479    0.5817   28.3982 C.3     1  UNL1        0.2106
     41 C         -22.2916    2.0492   24.9324 C.3     1  UNL1        0.4701
     42 C         -23.3872    1.6828   26.6009 C.2     1  UNL1        0.1495
     43 C         -20.9833   -0.1135   28.5436 C.3     1  UNL1        0.3554
     44 C         -23.0926    0.3537   29.1178 C.2     1  UNL1        0.3403
@<TRIPOS>BOND
     1     1    38    1
     2     2     7    1
     3     2     1    1
     4     3     2    2
     5     4     3    1
     6     4     5    2
     7     5     6    1
     8     6     7    2
     9     8     1    1
    10     8     9    1
    11     8    12    1
    12     9    10    1
    13    10    11    1
    14    12    11    1
    15    13    33    1
    16    14    13    1
    17    14    15    1
    18    15    18    2
    19    16    17    1
    20    16    15    1
    21    19    14    2
    22    20    21    2
    23    20    19    1
    24    21    26    1
    25    22    21    1
    26    23    22    1
    27    24    23    1
    28    24    25    1
    29    26    27    1
    30    26    13    2
    31    28    38    1
    32    32    31    1
    33    32    34    1
    34    33    40    1
    35    34    30    1
    36    34    43    1
    37    35    42    1
    38    36    44    1
    39    40    44    1
    40    40    38    1
    41    41    39    1
    42    41    35    1
    43    41    31    1
    44    42    32    1
    45    42    33    2
    46    43    29    1
    47    43    36    1
    48    44    37    2
