@<TRIPOS>MOLECULE
outputs/IAG933/test6/raw/output_4616_IAG933_linker_design_.xyz
 42 45 0 0 0
SMALL
GASTEIGER

@<TRIPOS>ATOM
      1 C         -24.8550   -1.0120   30.1430 C.3     1  UNL1        0.1116
      2 C         -24.9730   -2.5050   29.7880 C.2     1  UNL1       -0.0030
      3 C         -23.9060   -3.1730   29.1460 C.2     1  UNL1       -0.0026
      4 C         -23.9890   -4.5490   28.8530 C.2     1  UNL1       -0.0003
      5 C         -25.1370   -5.2800   29.2050 C.2     1  UNL1       -0.0000
      6 C         -26.2320   -4.6110   29.7840 C.2     1  UNL1       -0.0003
      7 C         -26.1550   -3.2320   30.0650 C.2     1  UNL1       -0.0026
      8 C         -25.3870   -0.6790   31.5710 C.3     1  UNL1        0.0950
      9 C         -25.1890    0.7730   32.0280 C.3     1  UNL1        0.0209
     10 C         -25.3360    0.6840   33.5440 C.3     1  UNL1        0.0203
     11 C         -24.8290   -0.7150   33.9050 C.3     1  UNL1        0.0888
     12 N         -24.7580   -1.4810   32.6460 N.3     1  UNL1       -0.2174
     13 C         -25.6880    1.6140   26.4610 C.3     1  UNL1        0.0925
     14 C         -26.2500    2.9200   26.3950 C.2     1  UNL1        0.0568
     15 C         -25.6420    4.0930   27.1230 C.2     1  UNL1        0.2625
     16 N         -25.6140    5.2520   26.4490 N.am    1  UNL1       -0.2000
     17 C         -25.0260    6.4790   26.9630 C.3     1  UNL1        0.1388
     18 O         -25.1430    3.9660   28.2430 O.2     1  UNL1       -0.2687
     19 C         -27.4380    3.0910   25.6450 C.2     1  UNL1        0.1022
     20 N         -28.0750    2.0890   25.0030 N.2     1  UNL1       -0.2119
     21 C         -27.5430    0.8490   25.0790 C.2     1  UNL1        0.2341
     22 O         -28.1930   -0.2080   24.4770 O.2     1  UNL1       -0.4585
     23 C         -29.4600    0.0050   23.8660 C.3     1  UNL1        0.2423
     24 C         -30.0650   -1.3770   23.5730 C.3     1  UNL1        0.2292
     25 O         -30.7290   -1.8780   24.7210 O.3     1  UNL1       -0.2162
     26 C         -26.3540    0.5760   25.7770 C.3     1  UNL1        0.2419
     27 F         -25.8600   -0.6810   25.7950 F       1  UNL1       -0.2268
     28 C         -28.1142    0.7449   29.4229 C.2     1  UNL1        0.1879
     29 O         -23.5174    2.7795   26.0393 O.2     1  UNL1       -0.3836
     30 C         -27.7312    3.8966   31.2287 C.3     1  UNL1        0.0512
     31 C         -23.6677    1.1664   27.8140 C.2     1  UNL1        0.0322
     32 C         -22.8701    0.5321   28.7876 C.2     1  UNL1        0.0004
     33 N         -25.5866   -0.1028   29.1018 N.pl3   1  UNL1       -0.2979
     34 C         -28.6923    2.8271   30.6987 C.3     1  UNL1        0.2057
     35 O         -27.7501    2.1245   29.8444 O.2     1  UNL1       -0.4711
     36 C         -22.9823    1.8739   26.8964 C.2     1  UNL1        0.1613
     37 C         -20.8508    1.1162   27.6754 C.2     1  UNL1        0.0032
     38 CL        -22.3983    2.8291   24.5967 Cl      1  UNL1        0.1347
     39 C         -25.1707    1.0635   27.7902 C.3     1  UNL1        0.1060
     40 C         -27.0258   -0.2978   28.9313 C.2     1  UNL1        0.1024
     41 C         -21.6019    1.8098   26.7628 C.2     1  UNL1        0.0388
     42 C         -21.4680    0.5456   28.7393 C.2     1  UNL1       -0.0001
@<TRIPOS>BOND
     1     1    33    1
     2     2     7    1
     3     2     1    1
     4     3     2    2
     5     4     3    1
     6     4     5    2
     7     5     6    1
     8     6     7    2
     9     8     1    1
    10     8     9    1
    11     8    12    1
    12     9    10    1
    13    10    11    1
    14    12    11    1
    15    13    39    1
    16    14    13    1
    17    14    15    1
    18    15    18    2
    19    16    17    1
    20    16    15    1
    21    19    14    2
    22    20    21    2
    23    20    19    1
    24    21    26    1
    25    22    21    1
    26    23    22    1
    27    24    23    1
    28    24    25    1
    29    26    27    1
    30    26    13    1
    31    28    35    1
    32    29    36    1
    33    31    32    1
    34    34    30    1
    35    35    34    1
    36    36    31    2
    37    37    42    1
    38    38    29    1
    39    39    31    1
    40    39    33    1
    41    40    33    1
    42    40    28    2
    43    41    36    1
    44    41    37    2
    45    42    32    2
