@<TRIPOS>MOLECULE
outputs/IAG933/test6/raw/output_4618_IAG933_linker_design_.xyz
 43 47 0 0 0
SMALL
GASTEIGER

@<TRIPOS>ATOM
      1 C         -24.8550   -1.0120   30.1430 C.3     1  UNL1        0.1171
      2 C         -24.9730   -2.5050   29.7880 C.2     1  UNL1       -0.0028
      3 C         -23.9060   -3.1730   29.1460 C.2     1  UNL1       -0.0026
      4 C         -23.9890   -4.5490   28.8530 C.2     1  UNL1       -0.0003
      5 C         -25.1370   -5.2800   29.2050 C.2     1  UNL1       -0.0000
      6 C         -26.2320   -4.6110   29.7840 C.2     1  UNL1       -0.0003
      7 C         -26.1550   -3.2320   30.0650 C.2     1  UNL1       -0.0026
      8 C         -25.3870   -0.6790   31.5710 C.3     1  UNL1        0.0952
      9 C         -25.1890    0.7730   32.0280 C.3     1  UNL1        0.0209
     10 C         -25.3360    0.6840   33.5440 C.3     1  UNL1        0.0203
     11 C         -24.8290   -0.7150   33.9050 C.3     1  UNL1        0.0888
     12 N         -24.7580   -1.4810   32.6460 N.3     1  UNL1       -0.2174
     13 C         -25.6880    1.6140   26.4610 C.2     1  UNL1        0.0375
     14 C         -26.2500    2.9200   26.3950 C.2     1  UNL1        0.0763
     15 C         -25.6420    4.0930   27.1230 C.2     1  UNL1        0.2664
     16 N         -25.6140    5.2520   26.4490 N.am    1  UNL1       -0.1997
     17 C         -25.0260    6.4790   26.9630 C.3     1  UNL1        0.1388
     18 O         -25.1430    3.9660   28.2430 O.2     1  UNL1       -0.2683
     19 C         -27.4380    3.0910   25.6450 C.2     1  UNL1        0.1067
     20 N         -28.0750    2.0890   25.0030 N.2     1  UNL1       -0.2081
     21 C         -27.5430    0.8490   25.0790 C.2     1  UNL1        0.2533
     22 O         -28.1930   -0.2080   24.4770 O.2     1  UNL1       -0.4558
     23 C         -29.4600    0.0050   23.8660 C.3     1  UNL1        0.2426
     24 C         -30.0650   -1.3770   23.5730 C.3     1  UNL1        0.2292
     25 O         -30.7290   -1.8780   24.7210 O.3     1  UNL1       -0.2162
     26 C         -26.3540    0.5760   25.7770 C.2     1  UNL1        0.1929
     27 F         -25.8600   -0.6810   25.7950 F       1  UNL1       -0.1992
     28 N         -26.4238    0.9096   29.3449 N.am    1  UNL1       -0.1823
     29 O         -22.5997    0.5792   30.6455 O.2     1  UNL1       -0.2503
     30 N         -21.9884    0.2500   28.5833 N.am    1  UNL1       -0.1272
     31 C         -22.8761    1.8215   25.7010 C.2     1  UNL1        0.0449
     32 C         -24.6615    1.1813   27.3977 C.2     1  UNL1        0.0234
     33 C         -27.7118    0.7053   29.1444 C.2     1  UNL1        0.2431
     34 C         -29.9404    1.7959   28.8830 C.3     1  UNL1        0.0101
     35 C         -22.1717    1.0241   27.5423 C.2     1  UNL1        0.2225
     36 C         -28.6026    1.7951   29.6700 C.3     1  UNL1        0.0869
     37 C         -21.5858    1.9147   25.7352 C.2     1  UNL1        0.1814
     38 C         -23.3232    1.3423   26.9013 C.2     1  UNL1        0.0536
     39 C         -22.9398    0.2077   29.5559 C.2     1  UNL1        0.3316
     40 C         -25.1235    0.6812   28.6907 C.3     1  UNL1        0.1970
     41 N         -24.1963   -0.1495   29.3409 N.am    1  UNL1       -0.2393
     42 O         -21.0472    1.4618   26.8904 O.2     1  UNL1       -0.4350
     43 O         -28.1906   -0.2504   28.5011 O.2     1  UNL1       -0.2733
@<TRIPOS>BOND
     1     1     2    1
     2     2     7    1
     3     3     2    2
     4     4     3    1
     5     4     5    2
     6     5     6    1
     7     6     7    2
     8     8     1    1
     9     8     9    1
    10     8    12    1
    11     9    10    1
    12    10    11    1
    13    12    11    1
    14    13    32    1
    15    14    13    1
    16    14    15    1
    17    15    18    2
    18    16    17    1
    19    16    15    1
    20    19    14    2
    21    20    21    2
    22    20    19    1
    23    21    26    1
    24    22    21    1
    25    23    22    1
    26    24    23    1
    27    24    25    1
    28    26    27    1
    29    26    13    2
    30    30    39    1
    31    31    37    2
    32    31    38    1
    33    32    40    1
    34    33    28    1
    35    33    36    1
    36    34    36    1
    37    35    30    2
    38    37    42    1
    39    38    32    2
    40    38    35    1
    41    39    29    2
    42    40    41    1
    43    40    28    1
    44    41    39   am
    45    41     1    1
    46    42    35    1
    47    43    33    2
