@<TRIPOS>MOLECULE
No_4619-gen_results/8p0m/2024-11-27-11-27-31/
 20 20 0 0 0
SMALL
GASTEIGER

@<TRIPOS>ATOM
      1 C         -28.0162   -0.8135   28.8779 C.2     1  UNL1        0.0782
      2 C         -27.0636   -0.1189   28.6079 C.2     1  UNL1       -0.0275
      3 C         -26.9716    0.7139   27.5060 C.3     1  UNL1        0.1181
      4 C         -25.8205    1.4910   27.1160 C.3     1  UNL1        0.0264
      5 C         -24.6562    1.4242   27.9180 C.3     1  UNL1        0.1046
      6 C         -24.6847    0.5901   29.0659 C.3     1  UNL1        0.0156
      7 C         -25.8099   -0.1265   29.3338 C.3     1  UNL1        0.0233
      8 C         -28.7093   -0.4588   30.1754 C.2     1  UNL1        0.3873
      9 O         -29.4273   -1.3885   30.7420 O.co2   1  UNL1       -0.2406
     10 C         -23.4634    2.2046   27.5975 C.2     1  UNL1        0.3643
     11 O         -22.5740    2.2499   28.4844 O.co2   1  UNL1       -0.2457
     12 O         -23.0954    2.3259   26.3209 O.co2   1  UNL1       -0.2457
     13 O         -28.2252    0.3868   30.9160 O.co2   1  UNL1       -0.2406
     14 C         -28.0798    0.8126   26.5566 C.2     1  UNL1        0.3208
     15 O         -28.9561    1.4934   26.6903 O.2     1  UNL1       -0.2498
     16 O         -27.8942    0.2270   25.3973 O.3     1  UNL1       -0.4358
     17 C         -28.9524   -0.0281   24.5674 C.3     1  UNL1        0.3212
     18 C         -30.0984   -0.4697   25.1406 C.2     1  UNL1        0.4085
     19 O         -30.9019    0.3090   25.3564 O.co2   1  UNL1       -0.2415
     20 O         -30.3692   -1.7531   25.1903 O.co2   1  UNL1       -0.2415
@<TRIPOS>BOND
     1     1     2    2
     2     2     3    1
     3     3     4    1
     4     4     5    1
     5     5     6    1
     6     2     7    1
     7     6     7    1
     8     1     8    1
     9     8     9   ar
    10     5    10    1
    11    10    11   ar
    12    10    12   ar
    13     8    13   ar
    14     3    14    1
    15    14    15    2
    16    14    16    1
    17    16    17    1
    18    17    18    1
    19    18    19   ar
    20    18    20   ar
