@<TRIPOS>MOLECULE
No_462-gen_results/8p0m/2024-11-27-11-27-31/
 15 16 0 0 0
SMALL
GASTEIGER

@<TRIPOS>ATOM
      1 C         -28.0162   -0.8135   28.8779 C.ar    1  UNL1        0.0410
      2 C         -28.4690   -0.7850   29.8287 C.ar    1  UNL1        0.0599
      3 C         -26.5455   -0.8762   28.8500 C.ar    1  UNL1        0.1409
      4 C         -25.8041   -1.0324   30.0571 C.ar    1  UNL1        0.0276
      5 C         -26.5373   -1.0386   31.2171 C.ar    1  UNL1        0.0031
      6 C         -27.8843   -0.9532   31.1862 C.ar    1  UNL1        0.0115
      7 C         -24.3655   -1.1134   30.0483 C.ar    1  UNL1        0.0030
      8 C         -23.7447   -1.3689   30.8125 C.ar    1  UNL1        0.0001
      9 C         -22.5702   -0.8171   31.2268 C.ar    1  UNL1        0.0009
     10 C         -21.7941   -0.1957   30.2067 C.ar    1  UNL1        0.0114
     11 C         -22.4671    0.0452   28.9825 C.ar    1  UNL1        0.0577
     12 C         -23.8655   -0.3262   28.8704 C.ar    1  UNL1        0.0115
     13 F         -25.8550   -0.7997   27.7284 F       1  UNL1       -0.2041
     14 CL        -30.2954   -0.7229   29.8968 Cl      1  UNL1       -0.0822
     15 CL        -21.6882    0.9159   27.7746 Cl      1  UNL1       -0.0822
@<TRIPOS>BOND
     1     4     7    1
     2     3    13    1
     3     2    14    1
     4    11    15    1
     5     1     2   ar
     6     2     6   ar
     7     6     5   ar
     8     5     4   ar
     9     4     3   ar
    10     3     1   ar
    11     7     8   ar
    12     8     9   ar
    13     9    10   ar
    14    10    11   ar
    15    11    12   ar
    16    12     7   ar
