@<TRIPOS>MOLECULE
outputs/IAG933/test6/raw/output_4620_IAG933_linker_design_.xyz
 44 47 0 0 0
SMALL
GASTEIGER

@<TRIPOS>ATOM
      1 C         -24.8550   -1.0120   30.1430 C.3     1  UNL1        0.0708
      2 C         -24.9730   -2.5050   29.7880 C.2     1  UNL1       -0.0184
      3 C         -23.9060   -3.1730   29.1460 C.2     1  UNL1       -0.0041
      4 C         -23.9890   -4.5490   28.8530 C.2     1  UNL1       -0.0003
      5 C         -25.1370   -5.2800   29.2050 C.2     1  UNL1       -0.0000
      6 C         -26.2320   -4.6110   29.7840 C.2     1  UNL1       -0.0003
      7 C         -26.1550   -3.2320   30.0650 C.2     1  UNL1       -0.0041
      8 C         -25.3870   -0.6790   31.5710 C.3     1  UNL1        0.0796
      9 C         -25.1890    0.7730   32.0280 C.3     1  UNL1        0.0193
     10 C         -25.3360    0.6840   33.5440 C.3     1  UNL1        0.0202
     11 C         -24.8290   -0.7150   33.9050 C.3     1  UNL1        0.0887
     12 N         -24.7580   -1.4810   32.6460 N.3     1  UNL1       -0.2190
     13 C         -25.6880    1.6140   26.4610 C.2     1  UNL1        0.0173
     14 C         -26.2500    2.9200   26.3950 C.2     1  UNL1        0.0726
     15 C         -25.6420    4.0930   27.1230 C.2     1  UNL1        0.2661
     16 N         -25.6140    5.2520   26.4490 N.am    1  UNL1       -0.1997
     17 C         -25.0260    6.4790   26.9630 C.3     1  UNL1        0.1388
     18 O         -25.1430    3.9660   28.2430 O.2     1  UNL1       -0.2683
     19 C         -27.4380    3.0910   25.6450 C.2     1  UNL1        0.1064
     20 N         -28.0750    2.0890   25.0030 N.2     1  UNL1       -0.2081
     21 C         -27.5430    0.8490   25.0790 C.2     1  UNL1        0.2530
     22 O         -28.1930   -0.2080   24.4770 O.2     1  UNL1       -0.4558
     23 C         -29.4600    0.0050   23.8660 C.3     1  UNL1        0.2426
     24 C         -30.0650   -1.3770   23.5730 C.3     1  UNL1        0.2292
     25 O         -30.7290   -1.8780   24.7210 O.3     1  UNL1       -0.2162
     26 C         -26.3540    0.5760   25.7770 C.2     1  UNL1        0.1892
     27 F         -25.8600   -0.6810   25.7950 F       1  UNL1       -0.1996
     28 N         -23.2515    0.0982   28.5183 N.3     1  UNL1       -0.2017
     29 C         -29.1243    0.4588   31.2741 C.3     1  UNL1        0.0934
     30 C         -24.6477    1.2066   27.2621 C.3     1  UNL1        0.0477
     31 C         -22.5205    1.9059   27.1091 C.3     1  UNL1        0.0963
     32 C         -30.4890    2.5843   30.2881 C.3     1  UNL1        0.0216
     33 C         -23.6912    1.0461   27.4753 C.3     1  UNL1        0.0936
     34 C         -30.5237    0.6080   31.7186 C.3     1  UNL1        0.0216
     35 C         -31.2997    1.4981   30.8434 C.3     1  UNL1        0.0035
     36 N         -26.1162   -0.4667   28.2539 N.3     1  UNL1       -0.1922
     37 C         -28.6861   -0.1504   28.8829 C.2     1  UNL1        0.2434
     38 C         -29.3929    2.1086   29.4864 C.3     1  UNL1        0.0934
     39 C         -21.0503    1.7208   27.5775 C.3     1  UNL1        0.0190
     40 CL        -22.6090    2.4279   25.4292 Cl      1  UNL1       -0.1135
     41 N         -29.1053    0.6948   29.8196 N.am    1  UNL1       -0.2784
     42 C         -24.7748   -0.0636   28.9884 C.3     1  UNL1        0.1508
     43 O         -29.2617   -0.4787   27.8430 O.2     1  UNL1       -0.2733
     44 C         -27.2681   -0.5595   29.0790 C.3     1  UNL1        0.1751
@<TRIPOS>BOND
     1     1    42    1
     2     2     7    1
     3     2     1    1
     4     3     2    2
     5     4     3    1
     6     4     5    2
     7     5     6    1
     8     6     7    2
     9     8     1    1
    10     8     9    1
    11     8    12    1
    12     9    10    1
    13    10    11    1
    14    12    11    1
    15    13    30    1
    16    14    13    1
    17    14    15    1
    18    15    18    2
    19    16    17    1
    20    16    15    1
    21    19    14    2
    22    20    21    2
    23    20    19    1
    24    21    26    1
    25    22    21    1
    26    23    22    1
    27    24    23    1
    28    24    25    1
    29    26    27    1
    30    26    13    2
    31    28    42    1
    32    29    34    1
    33    31    33    1
    34    31    39    1
    35    32    35    1
    36    33    30    1
    37    33    28    1
    38    35    34    1
    39    36    44    1
    40    37    44    1
    41    37    41   am
    42    38    41    1
    43    38    32    1
    44    40    31    1
    45    41    29    1
    46    42    36    1
    47    43    37    2
