@<TRIPOS>MOLECULE
No_4624-gen_results/8p0m/2024-11-27-11-27-31/
 28 31 0 0 0
SMALL
GASTEIGER

@<TRIPOS>ATOM
      1 C         -28.0162   -0.8135   28.8779 C.ar    1  UNL1        0.0026
      2 C         -28.4690   -0.7850   29.8287 C.ar    1  UNL1        0.0795
      3 C         -26.5455   -0.8762   28.8500 C.ar    1  UNL1       -0.0176
      4 C         -25.6825   -0.7773   27.6829 C.3     1  UNL1        0.0526
      5 C         -27.9181   -1.0034   31.1877 C.ar    1  UNL1        0.0066
      6 C         -26.5308   -1.0794   31.2463 C.ar    1  UNL1       -0.0001
      7 C         -25.7798   -1.0462   30.0905 C.ar    1  UNL1       -0.0039
      8 C         -25.8976    0.2387   26.7449 C.ar    1  UNL1       -0.0178
      9 C         -25.0024    0.4172   25.6959 C.ar    1  UNL1       -0.0039
     10 C         -27.2685    0.4611   26.3704 C.ar    1  UNL1       -0.0039
     11 C         -27.5644    1.1829   25.2129 C.ar    1  UNL1       -0.0003
     12 C         -28.8249    1.7112   25.1107 C.ar    1  UNL1       -0.0000
     13 C         -29.4677    2.0973   26.2202 C.ar    1  UNL1        0.0000
     14 C         -30.8182    2.4681   26.0789 C.ar    1  UNL1        0.0015
     15 C         -31.3789    2.5921   24.8095 C.ar    1  UNL1        0.0177
     16 C         -30.7108    2.2830   23.6595 C.ar    1  UNL1        0.0015
     17 C         -29.4216    1.8505   23.7982 C.ar    1  UNL1        0.0000
     18 C         -26.2594    1.6748   24.7016 C.ar    1  UNL1       -0.0000
     19 C         -25.2395    1.3193   24.8902 C.ar    1  UNL1       -0.0003
     20 C         -30.0680   -0.6409   29.9132 C.2     1  UNL1        0.3877
     21 O         -30.5003    0.2906   29.5903 O.co2   1  UNL1       -0.2406
     22 O         -30.6803   -1.4712   30.6694 O.co2   1  UNL1       -0.2406
     23 C         -32.7947    3.1258   24.6485 C.ar    1  UNL1        0.0813
     24 N         -33.2928    3.8713   25.4575 N.ar    1  UNL1       -0.2438
     25 C         -33.8609    4.8294   25.6234 C.ar    1  UNL1        0.0988
     26 C         -34.3729    5.4872   24.4417 C.ar    1  UNL1        0.0207
     27 C         -34.1014    4.7447   23.2579 C.ar    1  UNL1        0.0031
     28 C         -33.0324    3.6787   23.2774 C.ar    1  UNL1        0.0191
@<TRIPOS>BOND
     1     3     4    1
     2    11    12    1
     3     2    20    1
     4    20    21   ar
     5    20    22   ar
     6    15    23    1
     7     4     8    1
     8    12    13   ar
     9    13    14   ar
    10    14    15   ar
    11    15    16   ar
    12    16    17   ar
    13    17    12   ar
    14    23    24   ar
    15    24    25   ar
    16    25    26   ar
    17    26    27   ar
    18    27    28   ar
    19    28    23   ar
    20     8     9   ar
    21     9    19   ar
    22    19    18   ar
    23    18    11   ar
    24    11    10   ar
    25    10     8   ar
    26     1     2   ar
    27     2     5   ar
    28     5     6   ar
    29     6     7   ar
    30     7     3   ar
    31     3     1   ar
