@<TRIPOS>MOLECULE
outputs/IAG933/test6/raw/output_4626_IAG933_linker_design_.xyz
 40 43 0 0 0
SMALL
GASTEIGER

@<TRIPOS>ATOM
      1 C         -24.8550   -1.0120   30.1430 C.3     1  UNL1        0.0653
      2 C         -24.9730   -2.5050   29.7880 C.2     1  UNL1       -0.0192
      3 C         -23.9060   -3.1730   29.1460 C.2     1  UNL1       -0.0042
      4 C         -23.9890   -4.5490   28.8530 C.2     1  UNL1       -0.0003
      5 C         -25.1370   -5.2800   29.2050 C.2     1  UNL1       -0.0000
      6 C         -26.2320   -4.6110   29.7840 C.2     1  UNL1       -0.0003
      7 C         -26.1550   -3.2320   30.0650 C.2     1  UNL1       -0.0042
      8 C         -25.3870   -0.6790   31.5710 C.3     1  UNL1        0.0787
      9 C         -25.1890    0.7730   32.0280 C.3     1  UNL1        0.0193
     10 C         -25.3360    0.6840   33.5440 C.3     1  UNL1        0.0202
     11 C         -24.8290   -0.7150   33.9050 C.3     1  UNL1        0.0887
     12 N         -24.7580   -1.4810   32.6460 N.3     1  UNL1       -0.2191
     13 C         -25.6880    1.6140   26.4610 C.3     1  UNL1        0.0903
     14 C         -26.2500    2.9200   26.3950 C.2     1  UNL1        0.0565
     15 C         -25.6420    4.0930   27.1230 C.2     1  UNL1        0.2625
     16 N         -25.6140    5.2520   26.4490 N.am    1  UNL1       -0.2000
     17 C         -25.0260    6.4790   26.9630 C.3     1  UNL1        0.1388
     18 O         -25.1430    3.9660   28.2430 O.2     1  UNL1       -0.2687
     19 C         -27.4380    3.0910   25.6450 C.2     1  UNL1        0.1022
     20 N         -28.0750    2.0890   25.0030 N.2     1  UNL1       -0.2119
     21 C         -27.5430    0.8490   25.0790 C.2     1  UNL1        0.2341
     22 O         -28.1930   -0.2080   24.4770 O.2     1  UNL1       -0.4585
     23 C         -29.4600    0.0050   23.8660 C.3     1  UNL1        0.2423
     24 C         -30.0650   -1.3770   23.5730 C.3     1  UNL1        0.2292
     25 O         -30.7290   -1.8780   24.7210 O.3     1  UNL1       -0.2162
     26 C         -26.3540    0.5760   25.7770 C.3     1  UNL1        0.2417
     27 F         -25.8600   -0.6810   25.7950 F       1  UNL1       -0.2268
     28 N         -25.6560    1.1745   28.9786 N.3     1  UNL1       -0.2045
     29 C         -21.2156    0.6909   28.2696 C.2     1  UNL1        0.0008
     30 CL        -22.9885    2.7848   25.4036 Cl      1  UNL1       -0.0825
     31 O         -28.1285   -1.1942   28.6583 O.co2   1  UNL1       -0.2441
     32 C         -21.4858    1.6581   27.3549 C.2     1  UNL1        0.0111
     33 OXT       -28.1006    0.7908   29.6444 O.co2   1  UNL1       -0.2441
     34 C         -27.5492   -0.2153   29.1587 C.2     1  UNL1        0.3806
     35 CA        -25.9646   -0.2586   29.2617 C.3     1  UNL1        0.1813
     36 C         -23.7448    1.0937   27.6678 C.2     1  UNL1        0.0045
     37 C         -22.7460    1.8731   26.8797 C.2     1  UNL1        0.0550
     38 C         -24.9968    1.2810   27.7746 C.3     1  UNL1        0.1036
     39 C         -22.1003   -0.1487   28.8005 C.2     1  UNL1       -0.0002
     40 C         -23.4064    0.0651   28.3542 C.2     1  UNL1       -0.0021
@<TRIPOS>BOND
     1     1    35    1
     2     2     7    1
     3     2     1    1
     4     3     2    2
     5     4     3    1
     6     4     5    2
     7     5     6    1
     8     6     7    2
     9     8     1    1
    10     8     9    1
    11     8    12    1
    12     9    10    1
    13    10    11    1
    14    12    11    1
    15    13    38    1
    16    14    13    1
    17    14    15    1
    18    15    18    2
    19    16    17    1
    20    16    15    1
    21    19    14    2
    22    20    21    2
    23    20    19    1
    24    21    26    1
    25    22    21    1
    26    23    22    1
    27    24    23    1
    28    24    25    1
    29    26    27    1
    30    26    13    1
    31    29    39    1
    32    30    37    1
    33    31    34   ar
    34    32    29    2
    35    34    35    1
    36    34    33   ar
    37    35    28    1
    38    36    38    1
    39    36    40    1
    40    37    32    1
    41    37    36    2
    42    38    28    1
    43    40    39    2
