@<TRIPOS>MOLECULE
outputs/IAG933/test6/raw/output_4627_IAG933_linker_design_.xyz
 42 47 0 0 0
SMALL
GASTEIGER

@<TRIPOS>ATOM
      1 C         -24.8550   -1.0120   30.1430 C.3     1  UNL1        0.0965
      2 C         -24.9730   -2.5050   29.7880 C.2     1  UNL1       -0.0064
      3 C         -23.9060   -3.1730   29.1460 C.2     1  UNL1       -0.0029
      4 C         -23.9890   -4.5490   28.8530 C.2     1  UNL1       -0.0003
      5 C         -25.1370   -5.2800   29.2050 C.2     1  UNL1       -0.0000
      6 C         -26.2320   -4.6110   29.7840 C.2     1  UNL1       -0.0003
      7 C         -26.1550   -3.2320   30.0650 C.2     1  UNL1       -0.0029
      8 C         -25.3870   -0.6790   31.5710 C.3     1  UNL1        0.0916
      9 C         -25.1890    0.7730   32.0280 C.3     1  UNL1        0.0206
     10 C         -25.3360    0.6840   33.5440 C.3     1  UNL1        0.0203
     11 C         -24.8290   -0.7150   33.9050 C.3     1  UNL1        0.0888
     12 N         -24.7580   -1.4810   32.6460 N.3     1  UNL1       -0.2178
     13 C         -25.6880    1.6140   26.4610 C.3     1  UNL1        0.0888
     14 C         -26.2500    2.9200   26.3950 C.2     1  UNL1        0.0564
     15 C         -25.6420    4.0930   27.1230 C.2     1  UNL1        0.2625
     16 N         -25.6140    5.2520   26.4490 N.am    1  UNL1       -0.2000
     17 C         -25.0260    6.4790   26.9630 C.3     1  UNL1        0.1388
     18 O         -25.1430    3.9660   28.2430 O.2     1  UNL1       -0.2687
     19 C         -27.4380    3.0910   25.6450 C.2     1  UNL1        0.1022
     20 N         -28.0750    2.0890   25.0030 N.2     1  UNL1       -0.2119
     21 C         -27.5430    0.8490   25.0790 C.2     1  UNL1        0.2341
     22 O         -28.1930   -0.2080   24.4770 O.2     1  UNL1       -0.4585
     23 C         -29.4600    0.0050   23.8660 C.3     1  UNL1        0.2423
     24 C         -30.0650   -1.3770   23.5730 C.3     1  UNL1        0.2292
     25 O         -30.7290   -1.8780   24.7210 O.3     1  UNL1       -0.2162
     26 C         -26.3540    0.5760   25.7770 C.3     1  UNL1        0.2416
     27 F         -25.8600   -0.6810   25.7950 F       1  UNL1       -0.2268
     28 C         -22.7628    0.7104   28.5569 C.2     1  UNL1        0.1770
     29 O         -27.3846   -0.9059   28.4033 O.co2   1  UNL1       -0.2456
     30 C         -23.7581    1.2175   27.7181 C.2     1  UNL1        0.0322
     31 C         -21.4748    0.9222   28.4362 C.2     1  UNL1        0.1816
     32 C         -21.0500    1.6460   27.2910 C.2     1  UNL1        0.0702
     33 C         -25.8661    1.0704   28.9838 C.3     1  UNL1        0.0870
     34 O         -29.2760    0.0398   28.7163 O.co2   1  UNL1       -0.2456
     35 C         -28.0975    0.0028   28.7257 C.2     1  UNL1        0.3663
     36 F         -21.4995    2.1945   25.0728 F       1  UNL1       -0.2041
     37 C         -21.9466    1.9154   26.3087 C.2     1  UNL1        0.1431
     38 C         -23.3047    1.8448   26.5332 C.2     1  UNL1        0.0299
     39 N         -25.1514    0.0098   29.0456 N.3     1  UNL1       -0.2658
     40 C         -27.3026    1.2505   29.2901 C.3     1  UNL1        0.1316
     41 O         -22.3095   -0.1095   29.2885 O.2     1  UNL1       -0.4475
     42 C         -25.1362    1.1328   27.8681 C.3     1  UNL1        0.0886
@<TRIPOS>BOND
     1     1     2    1
     2     2     7    1
     3     3     2    2
     4     4     3    1
     5     4     5    2
     6     5     6    1
     7     6     7    2
     8     8     1    1
     9     8     9    1
    10     8    12    1
    11     9    10    1
    12    10    11    1
    13    12    11    1
    14    13    14    1
    15    13    42    1
    16    14    15    1
    17    15    18    2
    18    16    17    1
    19    16    15    1
    20    19    14    2
    21    20    21    2
    22    20    19    1
    23    21    26    1
    24    22    21    1
    25    23    22    1
    26    24    23    1
    27    24    25    1
    28    26    27    1
    29    26    13    1
    30    28    41    1
    31    29    35   ar
    32    30    28    2
    33    31    28    1
    34    31    41    1
    35    32    31    2
    36    33    39    1
    37    33    40    1
    38    34    35   ar
    39    35    40    1
    40    36    37    1
    41    37    38    2
    42    37    32    1
    43    38    30    1
    44    39     1    1
    45    42    30    1
    46    42    33    1
    47    42    39    1
