@<TRIPOS>MOLECULE
No_4628-gen_results/8p0m/2024-11-27-11-27-31/
 24 26 0 0 0
SMALL
GASTEIGER

@<TRIPOS>ATOM
      1 C         -28.0162   -0.8135   28.8779 C.ar    1  UNL1        0.0066
      2 C         -27.0636   -0.1190   28.6079 C.ar    1  UNL1        0.0003
      3 C         -25.7923   -0.4302   29.0761 C.ar    1  UNL1        0.0029
      4 C         -24.5456    0.3494   28.8225 C.ar    1  UNL1        0.0347
      5 C         -23.2409    0.0217   29.3323 C.ar    1  UNL1        0.0030
      6 C         -27.8820   -1.8995   29.8633 C.ar    1  UNL1        0.0798
      7 C         -26.6706   -2.3272   30.3212 C.ar    1  UNL1        0.0066
      8 C         -25.5433   -1.5852   29.9316 C.ar    1  UNL1        0.0003
      9 C         -22.1918    0.8302   29.0004 C.ar    1  UNL1        0.0002
     10 C         -22.1472    1.7783   28.0287 C.ar    1  UNL1        0.0031
     11 C         -24.6254    1.6458   28.1951 C.ar    1  UNL1        0.1487
     12 C         -23.4130    2.2586   27.6822 C.ar    1  UNL1        0.0376
     13 C         -29.0595   -2.7310   30.2931 C.2     1  UNL1        0.3878
     14 O         -30.1192   -2.3676   30.1409 O.co2   1  UNL1       -0.2406
     15 O         -28.7474   -3.9974   30.6534 O.co2   1  UNL1       -0.2406
     16 O         -25.7300    2.0779   27.6995 O.3     1  UNL1       -0.4210
     17 C         -25.7622    3.3794   27.0522 C.2     1  UNL1        0.3457
     18 C         -26.8926    4.1115   27.3976 C.ar    1  UNL1        0.0760
     19 C         -28.0256    3.6577   27.4664 C.ar    1  UNL1        0.0065
     20 C         -29.1803    4.4871   27.8119 C.ar    1  UNL1        0.0002
     21 C         -28.9598    5.8839   28.0166 C.ar    1  UNL1        0.0000
     22 C         -27.7050    6.4199   27.8882 C.ar    1  UNL1        0.0002
     23 C         -26.6084    5.5828   27.5984 C.ar    1  UNL1        0.0065
     24 O         -24.7645    3.7987   26.8148 O.2     1  UNL1       -0.2445
@<TRIPOS>BOND
     1     3     4    1
     2     6    13    1
     3    13    14   ar
     4    13    15   ar
     5    11    16    1
     6    16    17    1
     7    17    18    1
     8    17    24    2
     9    18    19   ar
    10    19    20   ar
    11    20    21   ar
    12    21    22   ar
    13    22    23   ar
    14    23    18   ar
    15     1     2   ar
    16     2     3   ar
    17     3     8   ar
    18     8     7   ar
    19     7     6   ar
    20     6     1   ar
    21     4     5   ar
    22     5     9   ar
    23     9    10   ar
    24    10    12   ar
    25    12    11   ar
    26    11     4   ar
