@<TRIPOS>MOLECULE
outputs/IAG933/test6/raw/output_4630_IAG933_linker_design_.xyz
 41 45 0 0 0
SMALL
GASTEIGER

@<TRIPOS>ATOM
      1 C         -24.8550   -1.0120   30.1430 C.3     1  UNL1        0.1317
      2 C         -24.9730   -2.5050   29.7880 C.2     1  UNL1       -0.0110
      3 C         -23.9060   -3.1730   29.1460 C.2     1  UNL1       -0.0037
      4 C         -23.9890   -4.5490   28.8530 C.2     1  UNL1       -0.0003
      5 C         -25.1370   -5.2800   29.2050 C.2     1  UNL1       -0.0000
      6 C         -26.2320   -4.6110   29.7840 C.2     1  UNL1       -0.0003
      7 C         -26.1550   -3.2320   30.0650 C.2     1  UNL1       -0.0037
      8 C         -25.3870   -0.6790   31.5710 C.3     1  UNL1        0.0870
      9 C         -25.1890    0.7730   32.0280 C.3     1  UNL1        0.0197
     10 C         -25.3360    0.6840   33.5440 C.3     1  UNL1        0.0203
     11 C         -24.8290   -0.7150   33.9050 C.3     1  UNL1        0.0887
     12 N         -24.7580   -1.4810   32.6460 N.3     1  UNL1       -0.2186
     13 C         -25.6880    1.6140   26.4610 C.2     1  UNL1        0.0705
     14 C         -26.2500    2.9200   26.3950 C.2     1  UNL1        0.0792
     15 C         -25.6420    4.0930   27.1230 C.2     1  UNL1        0.2665
     16 N         -25.6140    5.2520   26.4490 N.am    1  UNL1       -0.1997
     17 C         -25.0260    6.4790   26.9630 C.3     1  UNL1        0.1388
     18 O         -25.1430    3.9660   28.2430 O.2     1  UNL1       -0.2683
     19 C         -27.4380    3.0910   25.6450 C.2     1  UNL1        0.1068
     20 N         -28.0750    2.0890   25.0030 N.2     1  UNL1       -0.2081
     21 C         -27.5430    0.8490   25.0790 C.2     1  UNL1        0.2534
     22 O         -28.1930   -0.2080   24.4770 O.2     1  UNL1       -0.4558
     23 C         -29.4600    0.0050   23.8660 C.3     1  UNL1        0.2426
     24 C         -30.0650   -1.3770   23.5730 C.3     1  UNL1        0.2292
     25 O         -30.7290   -1.8780   24.7210 O.3     1  UNL1       -0.2162
     26 C         -26.3540    0.5760   25.7770 C.2     1  UNL1        0.1957
     27 F         -25.8600   -0.6810   25.7950 F       1  UNL1       -0.1991
     28 O         -23.5468    2.2020   25.2030 O.2     1  UNL1       -0.4317
     29 O         -26.4828   -0.6725   28.5213 O.2     1  UNL1       -0.2557
     30 N         -24.6680    0.6702   28.4084 N.am    1  UNL1       -0.1181
     31 C         -22.3302    2.4088   24.8365 C.3     1  UNL1        0.4297
     32 N         -22.4689    0.7948   28.9264 N.2     1  UNL1       -0.0356
     33 C         -25.3942   -0.3142   28.9685 C.2     1  UNL1        0.2965
     34 C         -21.7833    1.3297   27.9851 C.2     1  UNL1        0.3330
     35 C         -22.2272    1.5323   26.7529 C.2     1  UNL1        0.2414
     36 N         -24.0254    2.2127   29.9410 N.pl3   1  UNL1        0.1449
     37 F         -20.4594    1.4086   28.1318 F       1  UNL1       -0.1604
     38 C         -23.7258    1.2371   29.1375 C.2     1  UNL1        0.4600
     39 O         -21.4534    1.8975   25.8690 O.2     1  UNL1       -0.4290
     40 C         -23.5195    1.6247   26.4047 C.2     1  UNL1        0.2108
     41 C         -24.6351    1.1970   27.1633 C.2     1  UNL1        0.1590
@<TRIPOS>BOND
     1     1    33    1
     2     2     7    1
     3     2     1    1
     4     3     2    2
     5     4     3    1
     6     4     5    2
     7     5     6    1
     8     6     7    2
     9     8     1    1
    10     8     9    1
    11     8    12    1
    12     9    10    1
    13    10    11    1
    14    12    11    1
    15    13    41    1
    16    14    13    1
    17    14    15    1
    18    15    18    2
    19    16    17    1
    20    16    15    1
    21    19    14    2
    22    20    21    2
    23    20    19    1
    24    21    26    1
    25    22    21    1
    26    23    22    1
    27    24    23    1
    28    24    25    1
    29    26    27    1
    30    26    13    2
    31    28    40    1
    32    29    33    2
    33    30    33   am
    34    30    38    1
    35    31    28    1
    36    31    39    1
    37    32    38    2
    38    34    37    1
    39    34    32    1
    40    35    34    2
    41    38    36    1
    42    39    35    1
    43    40    35    1
    44    40    41    2
    45    41    30    1
