@<TRIPOS>MOLECULE
outputs/IAG933/test6/raw/output_4631_IAG933_linker_design_.xyz
 48 52 0 0 0
SMALL
GASTEIGER

@<TRIPOS>ATOM
      1 C         -24.8550   -1.0120   30.1430 C.3     1  UNL1        0.0866
      2 C         -24.9730   -2.5050   29.7880 C.2     1  UNL1       -0.0170
      3 C         -23.9060   -3.1730   29.1460 C.2     1  UNL1       -0.0041
      4 C         -23.9890   -4.5490   28.8530 C.2     1  UNL1       -0.0003
      5 C         -25.1370   -5.2800   29.2050 C.2     1  UNL1       -0.0000
      6 C         -26.2320   -4.6110   29.7840 C.2     1  UNL1       -0.0003
      7 C         -26.1550   -3.2320   30.0650 C.2     1  UNL1       -0.0041
      8 C         -25.3870   -0.6790   31.5710 C.3     1  UNL1        0.0809
      9 C         -25.1890    0.7730   32.0280 C.3     1  UNL1        0.0193
     10 C         -25.3360    0.6840   33.5440 C.3     1  UNL1        0.0202
     11 C         -24.8290   -0.7150   33.9050 C.3     1  UNL1        0.0887
     12 N         -24.7580   -1.4810   32.6460 N.3     1  UNL1       -0.2190
     13 C         -25.6880    1.6140   26.4610 C.3     1  UNL1        0.0936
     14 C         -26.2500    2.9200   26.3950 C.2     1  UNL1        0.0589
     15 C         -25.6420    4.0930   27.1230 C.2     1  UNL1        0.2628
     16 N         -25.6140    5.2520   26.4490 N.am    1  UNL1       -0.2000
     17 C         -25.0260    6.4790   26.9630 C.3     1  UNL1        0.1388
     18 O         -25.1430    3.9660   28.2430 O.2     1  UNL1       -0.2686
     19 C         -27.4380    3.0910   25.6450 C.2     1  UNL1        0.1025
     20 N         -28.0750    2.0890   25.0030 N.2     1  UNL1       -0.2118
     21 C         -27.5430    0.8490   25.0790 C.2     1  UNL1        0.2344
     22 O         -28.1930   -0.2080   24.4770 O.2     1  UNL1       -0.4585
     23 C         -29.4600    0.0050   23.8660 C.3     1  UNL1        0.2423
     24 C         -30.0650   -1.3770   23.5730 C.3     1  UNL1        0.2292
     25 O         -30.7290   -1.8780   24.7210 O.3     1  UNL1       -0.2162
     26 C         -26.3540    0.5760   25.7770 C.3     1  UNL1        0.2440
     27 F         -25.8600   -0.6810   25.7950 F       1  UNL1       -0.2265
     28 C         -24.2587    0.6716   27.9246 C.2     1  UNL1        0.0643
     29 O         -27.0338    0.2336   29.8017 O.3     1  UNL1       -0.3360
     30 C         -30.0260    0.8257   27.8897 C.3     1  UNL1        0.0771
     31 C         -30.7173   -0.3146   27.4194 C.2     1  UNL1        0.2076
     32 C         -22.0527    1.8169   26.8162 C.2     1  UNL1       -0.0002
     33 C         -31.1962    3.2155   31.0938 C.3     1  UNL1        0.1473
     34 N         -25.3803    0.1246   28.2230 N.pl3   1  UNL1       -0.2106
     35 C         -23.3005    1.9459   26.2451 C.2     1  UNL1       -0.0026
     36 C         -30.8598    4.4625   29.0791 C.3     1  UNL1        0.0051
     37 O         -30.9161   -1.3742   28.1031 O.2     1  UNL1       -0.2883
     38 C         -25.7977   -0.2243   29.3660 C.3     1  UNL1        0.2136
     39 C         -21.8790    1.0838   27.9826 C.2     1  UNL1        0.0013
     40 O         -30.1771    4.1919   31.6860 O.3     1  UNL1       -0.3267
     41 C         -28.2493   -0.2125   29.0694 C.3     1  UNL1        0.1469
     42 O         -28.8353    2.3164   30.8342 O.3     1  UNL1       -0.3291
     43 C         -23.0070    0.5328   28.5573 C.2     1  UNL1        0.0159
     44 C         -29.5622    0.6842   29.2412 C.3     1  UNL1        0.0648
     45 C         -24.3957    1.3984   26.8415 C.2     1  UNL1       -0.0001
     46 C         -30.8652    3.0735   29.7896 C.3     1  UNL1        0.0571
     47 C         -28.9393    3.7079   31.4741 C.3     1  UNL1        0.2939
     48 C         -29.6399    2.2065   29.7439 C.3     1  UNL1        0.1231
@<TRIPOS>BOND
     1     1    38    1
     2     2     7    1
     3     2     1    1
     4     3     2    2
     5     4     3    1
     6     4     5    2
     7     5     6    1
     8     6     7    2
     9     8     1    1
    10     8     9    1
    11     8    12    1
    12     9    10    1
    13    10    11    1
    14    12    11    1
    15    13    45    1
    16    14    13    1
    17    14    15    1
    18    15    18    2
    19    16    17    1
    20    16    15    1
    21    19    14    2
    22    20    21    2
    23    20    19    1
    24    21    26    1
    25    22    21    1
    26    23    22    1
    27    24    23    1
    28    24    25    1
    29    26    27    1
    30    26    13    1
    31    28    34    1
    32    28    43    1
    33    31    30    1
    34    31    37    2
    35    32    39    1
    36    33    40    1
    37    35    32    2
    38    35    45    1
    39    38    34    1
    40    38    29    1
    41    39    43    2
    42    41    44    1
    43    41    29    1
    44    42    47    1
    45    44    30    1
    46    45    28    2
    47    46    36    1
    48    46    33    1
    49    47    40    1
    50    48    44    1
    51    48    46    1
    52    48    42    1
