@<TRIPOS>MOLECULE
outputs/IAG933/test6/raw/output_4632_IAG933_linker_design_.xyz
 41 44 0 0 0
SMALL
GASTEIGER

@<TRIPOS>ATOM
      1 C         -24.8550   -1.0120   30.1430 C.3     1  UNL1        0.0619
      2 C         -24.9730   -2.5050   29.7880 C.2     1  UNL1       -0.0170
      3 C         -23.9060   -3.1730   29.1460 C.2     1  UNL1       -0.0039
      4 C         -23.9890   -4.5490   28.8530 C.2     1  UNL1       -0.0003
      5 C         -25.1370   -5.2800   29.2050 C.2     1  UNL1       -0.0000
      6 C         -26.2320   -4.6110   29.7840 C.2     1  UNL1       -0.0003
      7 C         -26.1550   -3.2320   30.0650 C.2     1  UNL1       -0.0039
      8 C         -25.3870   -0.6790   31.5710 C.3     1  UNL1        0.0809
      9 C         -25.1890    0.7730   32.0280 C.3     1  UNL1        0.0195
     10 C         -25.3360    0.6840   33.5440 C.3     1  UNL1        0.0203
     11 C         -24.8290   -0.7150   33.9050 C.3     1  UNL1        0.0887
     12 N         -24.7580   -1.4810   32.6460 N.3     1  UNL1       -0.2188
     13 C         -25.6880    1.6140   26.4610 C.2     1  UNL1        0.0416
     14 C         -26.2500    2.9200   26.3950 C.2     1  UNL1        0.0767
     15 C         -25.6420    4.0930   27.1230 C.2     1  UNL1        0.2664
     16 N         -25.6140    5.2520   26.4490 N.am    1  UNL1       -0.1997
     17 C         -25.0260    6.4790   26.9630 C.3     1  UNL1        0.1388
     18 O         -25.1430    3.9660   28.2430 O.2     1  UNL1       -0.2683
     19 C         -27.4380    3.0910   25.6450 C.2     1  UNL1        0.1067
     20 N         -28.0750    2.0890   25.0030 N.2     1  UNL1       -0.2081
     21 C         -27.5430    0.8490   25.0790 C.2     1  UNL1        0.2533
     22 O         -28.1930   -0.2080   24.4770 O.2     1  UNL1       -0.4558
     23 C         -29.4600    0.0050   23.8660 C.3     1  UNL1        0.2426
     24 C         -30.0650   -1.3770   23.5730 C.3     1  UNL1        0.2292
     25 O         -30.7290   -1.8780   24.7210 O.3     1  UNL1       -0.2162
     26 C         -26.3540    0.5760   25.7770 C.2     1  UNL1        0.1932
     27 F         -25.8600   -0.6810   25.7950 F       1  UNL1       -0.1992
     28 C         -24.0983   -0.1483   29.2341 C.2     1  UNL1        0.0006
     29 C         -27.2423    0.7734   29.1054 C.2     1  UNL1        0.2760
     30 C         -24.9752    0.3899   28.3439 C.2     1  UNL1        0.0721
     31 O         -26.9415    1.7417   29.7804 O.2     1  UNL1       -0.2702
     32 C         -22.2341    0.9245   28.2743 C.2     1  UNL1        0.1672
     33 C         -29.7753    0.9519   28.3544 C.3     1  UNL1        0.0456
     34 C         -23.0742    1.4587   27.1887 C.2     1  UNL1        0.1686
     35 C         -22.7521    0.0810   29.2452 C.2     1  UNL1        0.0293
     36 C         -28.6287    0.2180   29.0760 C.3     1  UNL1        0.2295
     37 F         -21.0090    1.3249   28.2518 F       1  UNL1       -0.2018
     38 C         -24.5141    1.2209   27.2807 C.2     1  UNL1        0.0473
     39 F         -22.4607    2.0938   26.2104 F       1  UNL1       -0.2018
     40 O         -28.5824   -1.1515   29.0875 O.3     1  UNL1       -0.2132
     41 N         -26.3311    0.0949   28.4355 N.am    1  UNL1       -0.1773
@<TRIPOS>BOND
     1     1    28    1
     2     2     7    1
     3     2     1    1
     4     3     2    2
     5     4     3    1
     6     4     5    2
     7     5     6    1
     8     6     7    2
     9     8     1    1
    10     8     9    1
    11     8    12    1
    12     9    10    1
    13    10    11    1
    14    12    11    1
    15    13    38    1
    16    14    13    1
    17    14    15    1
    18    15    18    2
    19    16    17    1
    20    16    15    1
    21    19    14    2
    22    20    21    2
    23    20    19    1
    24    21    26    1
    25    22    21    1
    26    23    22    1
    27    24    23    1
    28    24    25    1
    29    26    27    1
    30    26    13    2
    31    28    35    1
    32    29    31    2
    33    30    41    1
    34    30    28    2
    35    32    35    2
    36    34    38    2
    37    34    32    1
    38    36    33    1
    39    36    40    1
    40    36    29    1
    41    37    32    1
    42    38    30    1
    43    39    34    1
    44    41    29    1
