@<TRIPOS>MOLECULE
outputs/IAG933/test6/raw/output_4633_IAG933_linker_design_.xyz
 46 51 0 0 0
SMALL
GASTEIGER

@<TRIPOS>ATOM
      1 C         -24.8550   -1.0120   30.1430 C.3     1  UNL1        0.0548
      2 C         -24.9730   -2.5050   29.7880 C.2     1  UNL1       -0.0198
      3 C         -23.9060   -3.1730   29.1460 C.2     1  UNL1       -0.0042
      4 C         -23.9890   -4.5490   28.8530 C.2     1  UNL1       -0.0003
      5 C         -25.1370   -5.2800   29.2050 C.2     1  UNL1       -0.0000
      6 C         -26.2320   -4.6110   29.7840 C.2     1  UNL1       -0.0003
      7 C         -26.1550   -3.2320   30.0650 C.2     1  UNL1       -0.0042
      8 C         -25.3870   -0.6790   31.5710 C.3     1  UNL1        0.0795
      9 C         -25.1890    0.7730   32.0280 C.3     1  UNL1        0.0344
     10 C         -25.3360    0.6840   33.5440 C.3     1  UNL1        0.0216
     11 C         -24.8290   -0.7150   33.9050 C.3     1  UNL1        0.0887
     12 N         -24.7580   -1.4810   32.6460 N.3     1  UNL1       -0.2190
     13 C         -25.6880    1.6140   26.4610 C.2     1  UNL1        0.0950
     14 C         -26.2500    2.9200   26.3950 C.2     1  UNL1        0.0903
     15 C         -25.6420    4.0930   27.1230 C.2     1  UNL1        0.2676
     16 N         -25.6140    5.2520   26.4490 N.am    1  UNL1       -0.1997
     17 C         -25.0260    6.4790   26.9630 C.3     1  UNL1        0.1388
     18 O         -25.1430    3.9660   28.2430 O.2     1  UNL1       -0.2683
     19 C         -27.4380    3.0910   25.6450 C.2     1  UNL1        0.1080
     20 N         -28.0750    2.0890   25.0030 N.2     1  UNL1       -0.2080
     21 C         -27.5430    0.8490   25.0790 C.2     1  UNL1        0.2546
     22 O         -28.1930   -0.2080   24.4770 O.2     1  UNL1       -0.4558
     23 C         -29.4600    0.0050   23.8660 C.3     1  UNL1        0.2426
     24 C         -30.0650   -1.3770   23.5730 C.3     1  UNL1        0.2292
     25 O         -30.7290   -1.8780   24.7210 O.3     1  UNL1       -0.2162
     26 C         -26.3540    0.5760   25.7770 C.2     1  UNL1        0.2067
     27 F         -25.8600   -0.6810   25.7950 F       1  UNL1       -0.1979
     28 N         -24.5826    1.3706   29.6513 N.3     1  UNL1       -0.2195
     29 C         -22.4122    0.0938   29.6591 C.3     1  UNL1        0.0543
     30 C         -21.7466    1.0130   28.5590 C.3     1  UNL1        0.1902
     31 O         -20.8330    1.1064   28.0095 O.3     1  UNL1       -0.3146
     32 C         -23.3647    1.3443   25.8213 C.2     1  UNL1        0.4106
     33 C         -24.1219    0.0640   27.7195 C.3     1  UNL1        0.1180
     34 C         -21.5506    1.1342   27.6105 C.3     1  UNL1        0.3196
     35 C         -26.2169    3.0286   31.2068 C.3     1  UNL1        0.1045
     36 C         -25.3957    3.6700   32.2890 C.2     1  UNL1        0.2464
     37 C         -25.5540    1.6192   30.8114 C.3     1  UNL1        0.0832
     38 C         -26.4757    5.9541   33.0286 C.2     1  UNL1        0.0296
     39 N         -26.2435    4.5832   33.2088 N.am    1  UNL1       -0.1879
     40 O         -21.8126    1.4588   25.8996 O.3     1  UNL1       -0.4074
     41 N         -24.3406    1.4362   26.9702 N.am    1  UNL1       -0.2211
     42 O         -23.6745    1.0781   24.8380 O.2     1  UNL1       -0.2258
     43 C         -23.9571    0.0301   29.3019 C.3     1  UNL1        0.0856
     44 C         -25.5358    6.4404   31.9534 C.3     1  UNL1        0.0445
     45 C         -27.2330    6.7556   33.8264 C.3     1  UNL1        0.0445
     46 O         -24.2106    3.6432   32.3574 O.2     1  UNL1       -0.2730
@<TRIPOS>BOND
     1     1     2    1
     2     1     8    1
     3     2     7    1
     4     3     2    2
     5     4     3    1
     6     4     5    2
     7     5     6    1
     8     6     7    2
     9     8     9    1
    10     8    12    1
    11     9    10    1
    12    10    11    1
    13    12    11    1
    14    13    41    1
    15    14    13    1
    16    14    15    1
    17    15    18    2
    18    16    17    1
    19    16    15    1
    20    19    14    2
    21    20    21    2
    22    20    19    1
    23    21    26    1
    24    22    21    1
    25    23    22    1
    26    24    23    1
    27    24    25    1
    28    26    27    1
    29    26    13    2
    30    28    37    1
    31    30    29    1
    32    31    30    1
    33    32    40    1
    34    32    41   am
    35    34    40    1
    36    34    31    1
    37    34    30    1
    38    35    36    1
    39    36    46    2
    40    36    39    1
    41    37    35    1
    42    37     9    1
    43    38    39    2
    44    38    45    1
    45    41    33    1
    46    42    32    2
    47    43    33    1
    48    43    28    1
    49    43    29    1
    50    43     1    1
    51    44    38    1
