@<TRIPOS>MOLECULE
outputs/IAG933/test6/raw/output_4638_IAG933_linker_design_.xyz
 42 45 0 0 0
SMALL
GASTEIGER

@<TRIPOS>ATOM
      1 C         -24.8550   -1.0120   30.1430 C.3     1  UNL1        0.1189
      2 C         -24.9730   -2.5050   29.7880 C.2     1  UNL1       -0.0028
      3 C         -23.9060   -3.1730   29.1460 C.2     1  UNL1       -0.0026
      4 C         -23.9890   -4.5490   28.8530 C.2     1  UNL1       -0.0003
      5 C         -25.1370   -5.2800   29.2050 C.2     1  UNL1       -0.0000
      6 C         -26.2320   -4.6110   29.7840 C.2     1  UNL1       -0.0003
      7 C         -26.1550   -3.2320   30.0650 C.2     1  UNL1       -0.0026
      8 C         -25.3870   -0.6790   31.5710 C.3     1  UNL1        0.0953
      9 C         -25.1890    0.7730   32.0280 C.3     1  UNL1        0.0209
     10 C         -25.3360    0.6840   33.5440 C.3     1  UNL1        0.0203
     11 C         -24.8290   -0.7150   33.9050 C.3     1  UNL1        0.0888
     12 N         -24.7580   -1.4810   32.6460 N.3     1  UNL1       -0.2174
     13 C         -25.6880    1.6140   26.4610 C.2     1  UNL1        0.0939
     14 C         -26.2500    2.9200   26.3950 C.2     1  UNL1        0.0903
     15 C         -25.6420    4.0930   27.1230 C.2     1  UNL1        0.2676
     16 N         -25.6140    5.2520   26.4490 N.am    1  UNL1       -0.1997
     17 C         -25.0260    6.4790   26.9630 C.3     1  UNL1        0.1388
     18 O         -25.1430    3.9660   28.2430 O.2     1  UNL1       -0.2683
     19 C         -27.4380    3.0910   25.6450 C.2     1  UNL1        0.1080
     20 N         -28.0750    2.0890   25.0030 N.2     1  UNL1       -0.2080
     21 C         -27.5430    0.8490   25.0790 C.2     1  UNL1        0.2546
     22 O         -28.1930   -0.2080   24.4770 O.2     1  UNL1       -0.4558
     23 C         -29.4600    0.0050   23.8660 C.3     1  UNL1        0.2426
     24 C         -30.0650   -1.3770   23.5730 C.3     1  UNL1        0.2292
     25 O         -30.7290   -1.8780   24.7210 O.3     1  UNL1       -0.2162
     26 C         -26.3540    0.5760   25.7770 C.2     1  UNL1        0.2067
     27 F         -25.8600   -0.6810   25.7950 F       1  UNL1       -0.1979
     28 C         -24.5121    0.5750   28.4953 C.3     1  UNL1        0.2127
     29 F         -22.6810   -0.4436   30.2127 F       1  UNL1       -0.2056
     30 C         -22.1632    1.3592   27.0702 C.2     1  UNL1        0.1906
     31 O         -23.6035    2.4777   25.6249 O.2     1  UNL1       -0.2848
     32 C         -21.8330    0.5728   28.2236 C.2     1  UNL1        0.0367
     33 F         -21.1587    1.7455   26.3392 F       1  UNL1       -0.1997
     34 O         -27.6431   -0.8323   28.6651 O.co2   1  UNL1       -0.2223
     35 N         -25.4446   -0.2143   29.0565 N.am    1  UNL1       -0.2186
     36 C         -26.8222    0.0283   28.9312 C.2     1  UNL1        0.4489
     37 O         -27.2263    1.1057   29.1137 O.co2   1  UNL1       -0.2223
     38 N         -24.5305    1.3002   27.2741 N.pl3   1  UNL1       -0.2307
     39 C         -20.5934    0.1587   28.6871 C.3     1  UNL1        0.0357
     40 C         -23.0460    0.2182   28.9404 C.2     1  UNL1        0.1538
     41 O         -22.8864    2.1474   24.6318 O.3     1  UNL1        0.0297
     42 C         -23.3886    1.7614   26.6565 C.2     1  UNL1        0.2716
@<TRIPOS>BOND
     1     1    35    1
     2     2     7    1
     3     2     1    1
     4     3     2    2
     5     4     3    1
     6     4     5    2
     7     5     6    1
     8     6     7    2
     9     8     1    1
    10     8     9    1
    11     8    12    1
    12     9    10    1
    13    10    11    1
    14    12    11    1
    15    13    38    1
    16    14    13    1
    17    14    15    1
    18    15    18    2
    19    16    17    1
    20    16    15    1
    21    19    14    2
    22    20    21    2
    23    20    19    1
    24    21    26    1
    25    22    21    1
    26    23    22    1
    27    24    23    1
    28    24    25    1
    29    26    27    1
    30    26    13    2
    31    28    40    1
    32    28    35    1
    33    30    32    1
    34    31    42    1
    35    32    39    1
    36    32    40    2
    37    33    30    1
    38    34    36   ar
    39    36    35   am
    40    36    37   ar
    41    38    28    1
    42    40    29    1
    43    41    31    1
    44    42    30    2
    45    42    38    1
