@<TRIPOS>MOLECULE
No_4639-gen_results/8p0m/2024-11-27-11-27-31/
 35 38 0 0 0
SMALL
GASTEIGER

@<TRIPOS>ATOM
      1 C         -28.0162   -0.8135   28.8779 C.ar    1  UNL1        0.0442
      2 C         -28.4690   -0.7850   29.8287 C.ar    1  UNL1        0.0376
      3 C         -26.5042   -0.7777   28.8766 C.ar    1  UNL1        0.1457
      4 C         -25.8103   -0.8531   30.1028 C.ar    1  UNL1        0.0346
      5 C         -27.9906   -0.8916   31.2257 C.ar    1  UNL1        0.0069
      6 C         -26.6042   -0.8676   31.2652 C.ar    1  UNL1        0.0035
      7 BR        -30.4622   -0.8398   29.8385 Br      1  UNL1       -0.0489
      8 C         -24.3620   -0.8196   30.1394 C.ar    1  UNL1        0.0031
      9 C         -23.6760   -1.2865   30.8006 C.ar    1  UNL1        0.0001
     10 C         -22.1832   -1.1487   30.8747 C.ar    1  UNL1        0.0001
     11 C         -21.7080   -0.3839   29.8245 C.ar    1  UNL1        0.0046
     12 C         -23.6422    0.0020   29.1093 C.ar    1  UNL1        0.0047
     13 C         -22.4171    0.1893   28.9725 C.ar    1  UNL1        0.0567
     14 C         -21.8815    1.0366   27.8770 C.2     1  UNL1        0.2842
     15 N         -20.8445    1.8359   28.1323 N.am    1  UNL1       -0.0837
     16 O         -22.5038    1.2175   26.7863 O.2     1  UNL1       -0.2667
     17 O         -25.8778   -0.7285   27.7222 O.3     1  UNL1       -0.4535
     18 C         -26.4935    0.0734   26.7906 C.ar    1  UNL1        0.1453
     19 C         -25.8078    0.0245   25.4600 C.ar    1  UNL1        0.0375
     20 C         -27.4652    0.9619   26.7886 C.ar    1  UNL1        0.0375
     21 C         -27.8115    1.7357   25.7166 C.ar    1  UNL1        0.0032
     22 C         -28.9277    2.5747   25.8639 C.ar    1  UNL1        0.0040
     23 C         -26.0968    0.7036   24.3848 C.ar    1  UNL1        0.0031
     24 C         -27.0984    1.5508   24.5348 C.ar    1  UNL1        0.0002
     25 C         -29.8586    2.6942   24.9731 C.ar    1  UNL1        0.0375
     26 C         -30.9792    3.2840   25.0655 C.ar    1  UNL1        0.1455
     27 C         -31.2750    4.0086   26.2914 C.ar    1  UNL1        0.0790
     28 C         -30.3488    3.9493   27.2896 C.ar    1  UNL1        0.0668
     29 C         -29.2285    3.2237   27.1693 C.ar    1  UNL1        0.0121
     30 BR        -32.8868    4.9840   26.4415 Br      1  UNL1       -0.0450
     31 O         -31.8704    3.4880   24.0273 O.3     1  UNL1       -0.4749
     32 C         -31.8293    2.5436   23.0086 C.3     1  UNL1        0.2054
     33 CL        -30.6620    4.6673   28.8504 Cl      1  UNL1       -0.0816
     34 C         -32.1149    1.3053   23.3530 C.3     1  UNL1        0.0473
     35 C         -33.3069    0.7147   22.9194 C.3     1  UNL1        0.0040
@<TRIPOS>BOND
     1     2     7    1
     2     4     8    1
     3    13    14    1
     4    14    15   am
     5    14    16    2
     6     3    17    1
     7    17    18    1
     8    21    22    1
     9    27    30    1
    10    26    31    1
    11    31    32    1
    12    28    33    1
    13    32    34    1
    14    34    35    1
    15    22    25   ar
    16    25    26   ar
    17    26    27   ar
    18    27    28   ar
    19    28    29   ar
    20    29    22   ar
    21     1     2   ar
    22     2     5   ar
    23     5     6   ar
    24     6     4   ar
    25     4     3   ar
    26     3     1   ar
    27    18    19   ar
    28    19    23   ar
    29    23    24   ar
    30    24    21   ar
    31    21    20   ar
    32    20    18   ar
    33     8     9   ar
    34     9    10   ar
    35    10    11   ar
    36    11    13   ar
    37    13    12   ar
    38    12     8   ar
