@<TRIPOS>MOLECULE
outputs/IAG933/test6/raw/output_464_IAG933_linker_design_.xyz
 45 49 0 0 0
SMALL
GASTEIGER

@<TRIPOS>ATOM
      1 C         -24.8550   -1.0120   30.1430 C.3     1  UNL1        0.1155
      2 C         -24.9730   -2.5050   29.7880 C.2     1  UNL1       -0.0027
      3 C         -23.9060   -3.1730   29.1460 C.2     1  UNL1       -0.0026
      4 C         -23.9890   -4.5490   28.8530 C.2     1  UNL1       -0.0003
      5 C         -25.1370   -5.2800   29.2050 C.2     1  UNL1       -0.0000
      6 C         -26.2320   -4.6110   29.7840 C.2     1  UNL1       -0.0003
      7 C         -26.1550   -3.2320   30.0650 C.2     1  UNL1       -0.0026
      8 C         -25.3870   -0.6790   31.5710 C.3     1  UNL1        0.0954
      9 C         -25.1890    0.7730   32.0280 C.3     1  UNL1        0.0209
     10 C         -25.3360    0.6840   33.5440 C.3     1  UNL1        0.0203
     11 C         -24.8290   -0.7150   33.9050 C.3     1  UNL1        0.0888
     12 N         -24.7580   -1.4810   32.6460 N.3     1  UNL1       -0.2174
     13 C         -25.6880    1.6140   26.4610 C.2     1  UNL1        0.0394
     14 C         -26.2500    2.9200   26.3950 C.2     1  UNL1        0.0766
     15 C         -25.6420    4.0930   27.1230 C.2     1  UNL1        0.2664
     16 N         -25.6140    5.2520   26.4490 N.am    1  UNL1       -0.1997
     17 C         -25.0260    6.4790   26.9630 C.3     1  UNL1        0.1388
     18 O         -25.1430    3.9660   28.2430 O.2     1  UNL1       -0.2683
     19 C         -27.4380    3.0910   25.6450 C.2     1  UNL1        0.1067
     20 N         -28.0750    2.0890   25.0030 N.2     1  UNL1       -0.2081
     21 C         -27.5430    0.8490   25.0790 C.2     1  UNL1        0.2533
     22 O         -28.1930   -0.2080   24.4770 O.2     1  UNL1       -0.4558
     23 C         -29.4600    0.0050   23.8660 C.3     1  UNL1        0.2426
     24 C         -30.0650   -1.3770   23.5730 C.3     1  UNL1        0.2292
     25 O         -30.7290   -1.8780   24.7210 O.3     1  UNL1       -0.2162
     26 C         -26.3540    0.5760   25.7770 C.2     1  UNL1        0.1931
     27 F         -25.8600   -0.6810   25.7950 F       1  UNL1       -0.1992
     28 N         -29.0782    3.3760   30.2573 N.2     1  UNL1       -0.2459
     29 F         -22.3774   -0.0728   29.6902 F       1  UNL1       -0.2029
     30 C         -26.5292   -0.6205   28.1594 C.2     1  UNL1        0.0672
     31 C         -24.3510    1.3692   26.9512 C.2     1  UNL1        0.0184
     32 C         -31.3188    2.3175   30.1195 C.3     1  UNL1        0.0542
     33 N         -25.0993   -0.2356   28.8263 N.pl3   1  UNL1       -0.2804
     34 C         -27.8529   -0.1960   28.2677 C.2     1  UNL1        0.0355
     35 C         -24.1170    0.5821   28.1386 C.2     1  UNL1        0.0797
     36 C         -29.8894    2.4046   29.7753 C.3     1  UNL1        0.2138
     37 C         -21.7216    1.1831   27.8064 C.2     1  UNL1        0.0309
     38 C         -27.7555    3.1607   30.2282 C.2     1  UNL1        0.0969
     39 N         -29.4998    1.4080   28.9826 N.3     1  UNL1       -0.1858
     40 C         -27.2896    1.9590   29.6778 C.2     1  UNL1        0.0396
     41 C         -28.2179    1.1027   29.0306 C.2     1  UNL1        0.0899
     42 O         -30.3396    0.9053   28.0414 O.3     1  UNL1       -0.0824
     43 C         -22.0037    1.8660   26.6039 C.2     1  UNL1        0.0024
     44 C         -22.7472    0.5645   28.5500 C.2     1  UNL1        0.1536
     45 C         -23.3169    1.9444   26.1289 C.2     1  UNL1        0.0015
@<TRIPOS>BOND
     1     1    33    1
     2     2     7    1
     3     2     1    1
     4     3     2    2
     5     4     3    1
     6     4     5    2
     7     5     6    1
     8     6     7    2
     9     8     1    1
    10     8     9    1
    11     8    12    1
    12     9    10    1
    13    10    11    1
    14    12    11    1
    15    13    31    1
    16    14    13    1
    17    14    15    1
    18    15    18    2
    19    16    17    1
    20    16    15    1
    21    19    14    2
    22    20    21    2
    23    20    19    1
    24    21    26    1
    25    22    21    1
    26    23    22    1
    27    24    23    1
    28    24    25    1
    29    26    27    1
    30    26    13    2
    31    30    34    2
    32    30    33    1
    33    31    35    1
    34    34    41    1
    35    35    44    2
    36    35    33    1
    37    36    32    1
    38    36    28    1
    39    37    44    1
    40    38    28    2
    41    39    41    1
    42    39    36    1
    43    40    38    1
    44    41    40    2
    45    42    39    1
    46    43    37    2
    47    44    29    1
    48    45    43    1
    49    45    31    2
