@<TRIPOS>MOLECULE
outputs/IAG933/test6/raw/output_4640_IAG933_linker_design_.xyz
 44 48 0 0 0
SMALL
GASTEIGER

@<TRIPOS>ATOM
      1 C         -24.8550   -1.0120   30.1430 C.3     1  UNL1        0.1443
      2 C         -24.9730   -2.5050   29.7880 C.2     1  UNL1       -0.0097
      3 C         -23.9060   -3.1730   29.1460 C.2     1  UNL1       -0.0037
      4 C         -23.9890   -4.5490   28.8530 C.2     1  UNL1       -0.0003
      5 C         -25.1370   -5.2800   29.2050 C.2     1  UNL1       -0.0000
      6 C         -26.2320   -4.6110   29.7840 C.2     1  UNL1       -0.0003
      7 C         -26.1550   -3.2320   30.0650 C.2     1  UNL1       -0.0037
      8 C         -25.3870   -0.6790   31.5710 C.3     1  UNL1        0.0884
      9 C         -25.1890    0.7730   32.0280 C.3     1  UNL1        0.0198
     10 C         -25.3360    0.6840   33.5440 C.3     1  UNL1        0.0203
     11 C         -24.8290   -0.7150   33.9050 C.3     1  UNL1        0.0887
     12 N         -24.7580   -1.4810   32.6460 N.3     1  UNL1       -0.2185
     13 C         -25.6880    1.6140   26.4610 C.2     1  UNL1        0.0760
     14 C         -26.2500    2.9200   26.3950 C.2     1  UNL1        0.0799
     15 C         -25.6420    4.0930   27.1230 C.2     1  UNL1        0.2665
     16 N         -25.6140    5.2520   26.4490 N.am    1  UNL1       -0.1997
     17 C         -25.0260    6.4790   26.9630 C.3     1  UNL1        0.1388
     18 O         -25.1430    3.9660   28.2430 O.2     1  UNL1       -0.2683
     19 C         -27.4380    3.0910   25.6450 C.2     1  UNL1        0.1068
     20 N         -28.0750    2.0890   25.0030 N.2     1  UNL1       -0.2081
     21 C         -27.5430    0.8490   25.0790 C.2     1  UNL1        0.2534
     22 O         -28.1930   -0.2080   24.4770 O.2     1  UNL1       -0.4558
     23 C         -29.4600    0.0050   23.8660 C.3     1  UNL1        0.2426
     24 C         -30.0650   -1.3770   23.5730 C.3     1  UNL1        0.2292
     25 O         -30.7290   -1.8780   24.7210 O.3     1  UNL1       -0.2162
     26 C         -26.3540    0.5760   25.7770 C.2     1  UNL1        0.1964
     27 F         -25.8600   -0.6810   25.7950 F       1  UNL1       -0.1991
     28 C         -24.5903    1.2719   27.2990 C.2     1  UNL1        0.1540
     29 C         -23.1528    1.5223   26.8457 C.2     1  UNL1        0.1258
     30 CL        -22.6771    2.1474   25.2266 Cl      1  UNL1       -0.0762
     31 C         -26.5298    1.0680   28.8753 C.3     1  UNL1        0.2316
     32 C         -28.8238    2.3673   29.2902 C.3     1  UNL1        0.1175
     33 C         -30.2818   -0.0428   29.2076 C.2     1  UNL1        0.0153
     34 C         -21.9950    0.6487   28.8635 C.2     1  UNL1        0.2657
     35 C         -24.4449    0.0402   29.2183 C.2     1  UNL1        0.3096
     36 C         -21.9898    1.3340   27.6632 C.2     1  UNL1        0.2004
     37 C         -30.8303    3.6093   29.8602 C.3     1  UNL1        0.1125
     38 C         -30.8726    1.1332   29.6787 C.2     1  UNL1        0.0616
     39 N         -25.1629    0.7351   28.4369 N.pl3   1  UNL1       -0.1685
     40 C         -28.1742    1.1678   28.9352 C.2     1  UNL1        0.0222
     41 C         -28.9459   -0.0212   28.8167 C.2     1  UNL1       -0.0016
     42 N         -23.0733    0.2191   29.5007 N.2     1  UNL1       -0.0375
     43 N         -30.1322    2.3051   29.6459 N.pl3   1  UNL1       -0.3010
     44 F         -20.8147    1.8184   27.2270 F       1  UNL1       -0.1991
@<TRIPOS>BOND
     1     1    35    1
     2     2     7    1
     3     2     1    1
     4     3     2    2
     5     4     3    1
     6     4     5    2
     7     5     6    1
     8     6     7    2
     9     8     1    1
    10     8     9    1
    11     8    12    1
    12     9    10    1
    13    10    11    1
    14    12    11    1
    15    13    28    1
    16    14    13    1
    17    14    15    1
    18    15    18    2
    19    16    17    1
    20    16    15    1
    21    19    14    2
    22    20    21    2
    23    20    19    1
    24    21    26    1
    25    22    21    1
    26    23    22    1
    27    24    23    1
    28    24    25    1
    29    26    27    1
    30    26    13    2
    31    28    39    1
    32    29    28    2
    33    29    36    1
    34    30    29    1
    35    31    40    1
    36    32    43    1
    37    33    38    2
    38    34    42    1
    39    35    42    2
    40    36    34    2
    41    39    31    1
    42    39    35    1
    43    40    32    1
    44    41    40    2
    45    41    33    1
    46    43    38    1
    47    43    37    1
    48    44    36    1
