@<TRIPOS>MOLECULE
outputs/IAG933/test6/raw/output_4641_IAG933_linker_design_.xyz
 45 49 0 0 0
SMALL
GASTEIGER

@<TRIPOS>ATOM
      1 C         -24.8550   -1.0120   30.1430 C.3     1  UNL1        0.0599
      2 C         -24.9730   -2.5050   29.7880 C.2     1  UNL1       -0.0194
      3 C         -23.9060   -3.1730   29.1460 C.2     1  UNL1       -0.0042
      4 C         -23.9890   -4.5490   28.8530 C.2     1  UNL1       -0.0003
      5 C         -25.1370   -5.2800   29.2050 C.2     1  UNL1       -0.0000
      6 C         -26.2320   -4.6110   29.7840 C.2     1  UNL1       -0.0003
      7 C         -26.1550   -3.2320   30.0650 C.2     1  UNL1       -0.0042
      8 C         -25.3870   -0.6790   31.5710 C.3     1  UNL1        0.0785
      9 C         -25.1890    0.7730   32.0280 C.3     1  UNL1        0.0192
     10 C         -25.3360    0.6840   33.5440 C.3     1  UNL1        0.0202
     11 C         -24.8290   -0.7150   33.9050 C.3     1  UNL1        0.0887
     12 N         -24.7580   -1.4810   32.6460 N.3     1  UNL1       -0.2191
     13 C         -25.6880    1.6140   26.4610 C.2     1  UNL1        0.0864
     14 C         -26.2500    2.9200   26.3950 C.2     1  UNL1        0.0899
     15 C         -25.6420    4.0930   27.1230 C.2     1  UNL1        0.2676
     16 N         -25.6140    5.2520   26.4490 N.am    1  UNL1       -0.1997
     17 C         -25.0260    6.4790   26.9630 C.3     1  UNL1        0.1388
     18 O         -25.1430    3.9660   28.2430 O.2     1  UNL1       -0.2683
     19 C         -27.4380    3.0910   25.6450 C.2     1  UNL1        0.1080
     20 N         -28.0750    2.0890   25.0030 N.2     1  UNL1       -0.2080
     21 C         -27.5430    0.8490   25.0790 C.2     1  UNL1        0.2546
     22 O         -28.1930   -0.2080   24.4770 O.2     1  UNL1       -0.4558
     23 C         -29.4600    0.0050   23.8660 C.3     1  UNL1        0.2426
     24 C         -30.0650   -1.3770   23.5730 C.3     1  UNL1        0.2292
     25 O         -30.7290   -1.8780   24.7210 O.3     1  UNL1       -0.2162
     26 C         -26.3540    0.5760   25.7770 C.2     1  UNL1        0.2062
     27 F         -25.8600   -0.6810   25.7950 F       1  UNL1       -0.1979
     28 C         -23.2955    1.2923   26.3123 C.3     1  UNL1        0.1239
     29 C         -28.2480    2.4415   30.7747 C.2     1  UNL1       -0.0013
     30 C         -28.9383    2.1538   29.5489 C.2     1  UNL1        0.0166
     31 O         -29.7971   -0.0428   28.4902 O.3     1  UNL1       -0.2083
     32 C         -22.2599    1.1190   27.4094 C.3     1  UNL1        0.1733
     33 C         -28.4751    3.6579   31.4804 C.2     1  UNL1       -0.0002
     34 C         -28.7362    0.8569   28.7493 C.3     1  UNL1        0.2513
     35 C         -29.4960    4.5284   31.0500 C.2     1  UNL1       -0.0000
     36 C         -25.2906   -0.0534   29.0390 C.3     1  UNL1        0.1187
     37 C         -30.1143    4.3142   29.8063 C.2     1  UNL1       -0.0002
     38 N         -24.5463    1.2706   27.0493 N.pl3   1  UNL1       -0.3029
     39 C         -27.7376    0.0136   29.2014 C.2     1  UNL1        0.2762
     40 O         -28.0063   -0.7566   30.1373 O.2     1  UNL1       -0.2702
     41 C         -29.8063    3.1580   29.0737 C.2     1  UNL1       -0.0013
     42 C         -24.3963    0.7770   28.2529 C.3     1  UNL1        0.0958
     43 N         -26.5580    0.1619   28.5447 N.am    1  UNL1       -0.2027
     44 O         -21.5460    2.3558   27.5489 O.3     1  UNL1       -0.2213
     45 C         -22.9179    0.8969   28.7575 C.3     1  UNL1        0.0561
@<TRIPOS>BOND
     1     1    36    1
     2     2     7    1
     3     2     1    1
     4     3     2    2
     5     4     3    1
     6     4     5    2
     7     5     6    1
     8     6     7    2
     9     8     1    1
    10     8     9    1
    11     8    12    1
    12     9    10    1
    13    10    11    1
    14    12    11    1
    15    13    38    1
    16    14    13    1
    17    14    15    1
    18    15    18    2
    19    16    17    1
    20    16    15    1
    21    19    14    2
    22    20    21    2
    23    20    19    1
    24    21    26    1
    25    22    21    1
    26    23    22    1
    27    24    23    1
    28    24    25    1
    29    26    27    1
    30    26    13    2
    31    28    38    1
    32    28    32    1
    33    29    33    1
    34    30    29    2
    35    32    44    1
    36    32    45    1
    37    34    31    1
    38    34    39    1
    39    34    30    1
    40    35    33    2
    41    36    43    1
    42    37    35    1
    43    38    42    1
    44    39    40    2
    45    41    30    1
    46    41    37    2
    47    42    45    1
    48    42    36    1
    49    43    39    1
