@<TRIPOS>MOLECULE
No_4642-gen_results/8p0m/2024-11-27-11-27-31/
 7 6 0 0 0
SMALL
GASTEIGER

@<TRIPOS>ATOM
      1 C         -28.0162   -0.8135   28.8779 C.2     1  UNL1       -0.0049
      2 C         -28.4690   -0.7850   29.8287 C.2     1  UNL1       -0.0049
      3 C         -27.0871    0.2903   28.6377 C.2     1  UNL1       -0.0261
      4 C         -26.8317    1.2487   29.5869 C.3     1  UNL1        0.0260
      5 C         -28.3914    0.0801   31.0065 C.2     1  UNL1       -0.0258
      6 C         -27.4940    1.1521   30.7841 C.3     1  UNL1        0.0307
      7 C         -25.8981    2.3330   29.3565 C.3     1  UNL1        0.0050
@<TRIPOS>BOND
     1     1     2    1
     2     1     3    2
     3     3     4    1
     4     2     5    2
     5     5     6    1
     6     4     7    1
