@<TRIPOS>MOLECULE
No_4644-gen_results/8p0m/2024-11-27-11-27-31/
 33 37 0 0 0
SMALL
GASTEIGER

@<TRIPOS>ATOM
      1 C         -28.0162   -0.8135   28.8779 C.ar    1  UNL1        0.0066
      2 C         -27.0636   -0.1190   28.6079 C.ar    1  UNL1        0.0002
      3 C         -25.7647   -0.3897   29.0360 C.ar    1  UNL1        0.0000
      4 C         -24.5516    0.4058   28.7646 C.ar    1  UNL1        0.0008
      5 C         -23.2300    0.1178   29.2575 C.ar    1  UNL1        0.0000
      6 C         -23.0942   -1.1309   29.8730 C.ar    1  UNL1        0.0000
      7 C         -27.7981   -1.9341   29.8560 C.ar    1  UNL1        0.0798
      8 C         -26.5420   -2.3269   30.2580 C.ar    1  UNL1        0.0066
      9 C         -25.4514   -1.5516   29.9079 C.ar    1  UNL1        0.0002
     10 C         -24.1562   -1.9097   30.2809 C.ar    1  UNL1        0.0000
     11 C         -24.6450    1.6582   27.9464 C.ar    1  UNL1        0.0108
     12 C         -24.8958    2.7559   28.5615 C.ar    1  UNL1        0.0639
     13 C         -25.1728    3.9344   27.8440 C.ar    1  UNL1        0.0866
     14 C         -24.4838    1.5571   26.5889 C.ar    1  UNL1        0.0008
     15 C         -24.6321    2.6939   25.7850 C.ar    1  UNL1        0.0003
     16 C         -24.8902    3.9231   26.4317 C.ar    1  UNL1        0.0073
     17 CL        -25.1519    2.9361   30.2805 Cl      1  UNL1       -0.0820
     18 C         -29.0108   -2.7529   30.2316 C.2     1  UNL1        0.3878
     19 O         -29.2293   -2.7831   31.5272 O.co2   1  UNL1       -0.2406
     20 O         -29.5760   -3.5114   29.4878 O.co2   1  UNL1       -0.2406
     21 C         -25.4026    5.3276   28.4118 C.2     1  UNL1        0.3465
     22 O         -25.6169    5.4657   29.5278 O.3     1  UNL1       -0.4210
     23 O         -25.5094    6.2689   27.5147 O.2     1  UNL1       -0.2445
     24 C         -25.7059    6.7722   30.1084 C.ar    1  UNL1        0.1487
     25 C         -25.4784    6.8513   31.4877 C.ar    1  UNL1        0.0347
     26 C         -24.7378    7.7639   31.9609 C.ar    1  UNL1        0.0029
     27 C         -24.2328    7.7175   33.3876 C.ar    1  UNL1        0.0001
     28 C         -24.2062    6.7865   33.9699 C.ar    1  UNL1        0.0000
     29 C         -24.8913    5.5509   33.5019 C.ar    1  UNL1        0.0001
     30 C         -25.3481    5.6327   32.1889 C.ar    1  UNL1        0.0030
     31 C         -24.6172    9.1389   31.2874 C.ar    1  UNL1        0.0002
     32 C         -25.0336    9.1290   29.8881 C.ar    1  UNL1        0.0031
     33 C         -25.5319    7.9325   29.3100 C.ar    1  UNL1        0.0376
@<TRIPOS>BOND
     1     4    11    1
     2    12    17    1
     3     7    18    1
     4    18    19   ar
     5    18    20   ar
     6    13    21    1
     7    21    22    1
     8    21    23    2
     9    22    24    1
    10    24    25   ar
    11    26    31   ar
    12    31    32   ar
    13    32    33   ar
    14    33    24   ar
    15    25    26   ar
    16    26    27   ar
    17    27    28   ar
    18    28    29   ar
    19    29    30   ar
    20    30    25   ar
    21     1     2   ar
    22     2     3   ar
    23     9     8   ar
    24     8     7   ar
    25     7     1   ar
    26     3     4   ar
    27     4     5   ar
    28     5     6   ar
    29     6    10   ar
    30    10     9   ar
    31     9     3   ar
    32    11    12   ar
    33    12    13   ar
    34    13    16   ar
    35    16    15   ar
    36    15    14   ar
    37    14    11   ar
