@<TRIPOS>MOLECULE
No_4646-gen_results/8p0m/2024-11-27-11-27-31/
 15 16 0 0 0
SMALL
GASTEIGER

@<TRIPOS>ATOM
      1 C         -28.0162   -0.8135   28.8779 C.ar    1  UNL1        0.0001
      2 C         -27.0636   -0.1189   28.6079 C.ar    1  UNL1        0.0000
      3 C         -26.9716    0.7139   27.5060 C.ar    1  UNL1        0.0001
      4 C         -28.1053    0.7744   26.6421 C.ar    1  UNL1        0.0046
      5 C         -29.2041    0.1179   27.0477 C.ar    1  UNL1        0.0567
      6 C         -29.2127   -0.6088   28.1281 C.ar    1  UNL1        0.0046
      7 C         -25.7106    1.4519   27.1380 C.ar    1  UNL1        0.0000
      8 C         -25.2074    2.4128   27.9320 C.ar    1  UNL1        0.0000
      9 C         -23.9434    3.0257   27.6071 C.ar    1  UNL1        0.0000
     10 C         -23.2732    2.5298   26.4563 C.ar    1  UNL1        0.0000
     11 C         -24.8702    0.9778   26.0692 C.ar    1  UNL1        0.0000
     12 C         -23.7309    1.5522   25.6992 C.ar    1  UNL1        0.0000
     13 C         -30.3989    0.2592   26.1864 C.2     1  UNL1        0.2842
     14 O         -31.3107   -0.5933   26.1927 O.2     1  UNL1       -0.2667
     15 N         -30.4805    1.2669   25.2501 N.am    1  UNL1       -0.0837
@<TRIPOS>BOND
     1     3     7    1
     2     5    13    1
     3    13    14    2
     4    13    15   am
     5     7     8   ar
     6     8     9   ar
     7     9    10   ar
     8    10    12   ar
     9    12    11   ar
    10    11     7   ar
    11     1     2   ar
    12     2     3   ar
    13     3     4   ar
    14     4     5   ar
    15     5     6   ar
    16     6     1   ar
