@<TRIPOS>MOLECULE
No_4647-gen_results/8p0m/2024-11-27-11-27-31/
 35 38 0 0 0
SMALL
GASTEIGER

@<TRIPOS>ATOM
      1 C         -28.0162   -0.8135   28.8779 C.ar    1  UNL1       -0.0000
      2 C         -28.4690   -0.7850   29.8287 C.ar    1  UNL1       -0.0003
      3 C         -27.1356    0.2359   28.5352 C.ar    1  UNL1       -0.0003
      4 C         -26.8745    1.2825   29.3982 C.ar    1  UNL1       -0.0043
      5 C         -28.3613    0.1987   30.9244 C.ar    1  UNL1       -0.0043
      6 C         -27.5277    1.2234   30.6356 C.ar    1  UNL1       -0.0218
      7 C         -26.3987    0.2949   27.2279 C.2     1  UNL1        0.0015
      8 C         -25.0392    0.2356   27.3538 C.2     1  UNL1        0.0002
      9 C         -24.2585    0.8274   26.2566 C.2     1  UNL1        0.0033
     10 C         -24.1535    1.8650   26.0705 C.2     1  UNL1        0.0420
     11 C         -24.7081    2.9307   26.9757 C.2     1  UNL1        0.1956
     12 C         -25.6544    3.5779   27.0939 C.ar    1  UNL1        0.0390
     13 C         -26.6680    3.5708   26.0567 C.ar    1  UNL1        0.0033
     14 C         -27.9235    4.1990   26.2187 C.ar    1  UNL1        0.0028
     15 C         -28.1208    4.8589   27.4667 C.ar    1  UNL1        0.0288
     16 C         -26.0447    4.3582   28.2781 C.ar    1  UNL1        0.0033
     17 C         -27.1701    5.0210   28.4407 C.ar    1  UNL1        0.0028
     18 C         -27.1293    0.3115   26.0586 C.ar    1  UNL1        0.0192
     19 O         -23.6043    3.2174   27.9615 O.2     1  UNL1       -0.2866
     20 C         -28.1192    0.5829   25.6725 C.ar    1  UNL1        0.0031
     21 C         -28.7138    0.4256   24.3907 C.ar    1  UNL1        0.0192
     22 C         -26.3772   -0.2628   24.8640 C.ar    1  UNL1        0.0988
     23 N         -26.9367   -0.4265   23.7151 N.ar    1  UNL1       -0.2423
     24 C         -28.1458   -0.0412   23.4640 C.ar    1  UNL1        0.0988
     25 C         -30.2380    0.8396   24.3809 C.ar    1  UNL1        0.0015
     26 C         -30.5284    2.0654   24.6619 C.ar    1  UNL1        0.0000
     27 C         -31.9208    2.5512   24.5975 C.ar    1  UNL1        0.0000
     28 C         -32.8727    1.5648   24.2867 C.ar    1  UNL1        0.0000
     29 C         -31.1492   -0.1750   24.2161 C.ar    1  UNL1        0.0000
     30 C         -32.5168    0.2305   24.1206 C.ar    1  UNL1        0.0000
     31 P         -29.6617    5.7582   27.4726 P.3     1  UNL1        0.1395
     32 O         -29.9393    6.0212   28.7990 O.3     1  UNL1       -0.3542
     33 O         -29.3085    7.0097   26.7293 O.2     1  UNL1       -0.4557
     34 O         -30.6529    4.8901   26.7971 O.3     1  UNL1       -0.3542
     35 C         -27.2897    2.3306   31.6538 C.3     1  UNL1        0.0310
@<TRIPOS>BOND
     1     3     7    1
     2     7     8    2
     3     8     9    1
     4     9    10    2
     5    10    11    1
     6    11    12    1
     7     7    18    1
     8    11    19    2
     9    21    25    1
    10    15    31    1
    11    31    32    1
    12    31    33    2
    13    31    34    1
    14     6    35    1
    15    12    13   ar
    16    13    14   ar
    17    14    15   ar
    18    15    17   ar
    19    17    16   ar
    20    16    12   ar
    21    18    20   ar
    22    20    21   ar
    23    21    24   ar
    24    24    23   ar
    25    23    22   ar
    26    22    18   ar
    27    25    26   ar
    28    26    27   ar
    29    27    28   ar
    30    28    30   ar
    31    30    29   ar
    32    29    25   ar
    33     1     2   ar
    34     2     5   ar
    35     5     6   ar
    36     6     4   ar
    37     4     3   ar
    38     3     1   ar
