@<TRIPOS>MOLECULE
No_4648-gen_results/8p0m/2024-11-27-11-27-31/
 5 4 0 0 0
SMALL
GASTEIGER

@<TRIPOS>ATOM
      1 C         -28.0162   -0.8135   28.8779 C.1     1  UNL1       -0.0731
      2 C         -28.4690   -0.7850   29.8287 C.1     1  UNL1       -0.0138
      3 C         -28.1915    0.1474   27.8714 C.3     1  UNL1        0.1030
      4 C         -27.3336    0.3041   26.7482 C.2     1  UNL1       -0.0122
      5 C         -27.6635    0.9845   25.6288 C.2     1  UNL1       -0.0039
@<TRIPOS>BOND
     1     1     2    3
     2     1     3    1
     3     3     4    1
     4     4     5    2
