@<TRIPOS>MOLECULE
No_4650-gen_results/8p0m/2024-11-27-11-27-31/
 21 22 0 0 0
SMALL
GASTEIGER

@<TRIPOS>ATOM
      1 C         -28.0162   -0.8135   28.8779 C.ar    1  UNL1        0.0435
      2 C         -28.4690   -0.7850   29.8287 C.ar    1  UNL1        0.0828
      3 C         -26.5042   -0.7777   28.8766 C.ar    1  UNL1        0.1392
      4 C         -25.8103   -0.8531   30.1028 C.ar    1  UNL1        0.0340
      5 C         -27.9906   -0.8916   31.2257 C.ar    1  UNL1        0.0068
      6 C         -26.6042   -0.8676   31.2652 C.ar    1  UNL1        0.0032
      7 C         -24.3894   -0.8049   30.1638 C.ar    1  UNL1        0.0029
      8 C         -23.6350   -0.8621   29.1472 C.ar    1  UNL1        0.0001
      9 C         -22.1747   -0.6734   29.2132 C.ar    1  UNL1        0.0000
     10 C         -23.7457   -0.7709   31.4942 C.ar    1  UNL1        0.0001
     11 C         -22.2897   -0.6581   31.5825 C.ar    1  UNL1        0.0000
     12 C         -21.5754   -0.5908   30.3772 C.ar    1  UNL1        0.0000
     13 C         -30.0884   -0.7798   29.8382 C.2     1  UNL1        0.3879
     14 O         -30.6886    0.0879   30.5407 O.co2   1  UNL1       -0.2406
     15 O         -30.6552   -1.5351   29.0664 O.co2   1  UNL1       -0.2406
     16 O         -25.8322   -0.7449   27.7459 O.3     1  UNL1       -0.4706
     17 C         -25.9527    0.4373   26.9378 C.3     1  UNL1        0.2318
     18 C         -25.6250    1.5415   27.4951 C.2     1  UNL1        0.0223
     19 C         -25.5502    2.5578   27.2412 C.2     1  UNL1        0.0216
     20 C         -25.2386    3.8342   28.0036 C.2     1  UNL1        0.1219
     21 N         -25.1234    3.5179   29.3119 N.2     1  UNL1       -0.1464
@<TRIPOS>BOND
     1     4     7    1
     2     2    13    1
     3    13    14   ar
     4    13    15   ar
     5     3    16    1
     6    16    17    1
     7    17    18    1
     8    18    19    2
     9    19    20    1
    10    20    21    2
    11     1     2   ar
    12     2     5   ar
    13     5     6   ar
    14     6     4   ar
    15     4     3   ar
    16     3     1   ar
    17     7     8   ar
    18     8     9   ar
    19     9    12   ar
    20    12    11   ar
    21    11    10   ar
    22    10     7   ar
