@<TRIPOS>MOLECULE
outputs/IAG933/test6/raw/output_4651_IAG933_linker_design_.xyz
 40 44 0 0 0
SMALL
GASTEIGER

@<TRIPOS>ATOM
      1 C         -24.8550   -1.0120   30.1430 C.3     1  UNL1        0.1144
      2 C         -24.9730   -2.5050   29.7880 C.2     1  UNL1       -0.0029
      3 C         -23.9060   -3.1730   29.1460 C.2     1  UNL1       -0.0026
      4 C         -23.9890   -4.5490   28.8530 C.2     1  UNL1       -0.0003
      5 C         -25.1370   -5.2800   29.2050 C.2     1  UNL1       -0.0000
      6 C         -26.2320   -4.6110   29.7840 C.2     1  UNL1       -0.0003
      7 C         -26.1550   -3.2320   30.0650 C.2     1  UNL1       -0.0026
      8 C         -25.3870   -0.6790   31.5710 C.3     1  UNL1        0.0951
      9 C         -25.1890    0.7730   32.0280 C.3     1  UNL1        0.0209
     10 C         -25.3360    0.6840   33.5440 C.3     1  UNL1        0.0203
     11 C         -24.8290   -0.7150   33.9050 C.3     1  UNL1        0.0888
     12 N         -24.7580   -1.4810   32.6460 N.3     1  UNL1       -0.2174
     13 C         -25.6880    1.6140   26.4610 C.3     1  UNL1        0.0900
     14 C         -26.2500    2.9200   26.3950 C.2     1  UNL1        0.0586
     15 C         -25.6420    4.0930   27.1230 C.2     1  UNL1        0.2627
     16 N         -25.6140    5.2520   26.4490 N.am    1  UNL1       -0.2000
     17 C         -25.0260    6.4790   26.9630 C.3     1  UNL1        0.1388
     18 O         -25.1430    3.9660   28.2430 O.2     1  UNL1       -0.2686
     19 C         -27.4380    3.0910   25.6450 C.2     1  UNL1        0.1025
     20 N         -28.0750    2.0890   25.0030 N.2     1  UNL1       -0.2118
     21 C         -27.5430    0.8490   25.0790 C.2     1  UNL1        0.2344
     22 O         -28.1930   -0.2080   24.4770 O.2     1  UNL1       -0.4585
     23 C         -29.4600    0.0050   23.8660 C.3     1  UNL1        0.2423
     24 C         -30.0650   -1.3770   23.5730 C.3     1  UNL1        0.2292
     25 O         -30.7290   -1.8780   24.7210 O.3     1  UNL1       -0.2162
     26 C         -26.3540    0.5760   25.7770 C.3     1  UNL1        0.2437
     27 F         -25.8600   -0.6810   25.7950 F       1  UNL1       -0.2265
     28 C         -25.6963    0.3370   28.7709 C.3     1  UNL1        0.1278
     29 O         -27.9852   -0.7863   28.7080 O.3     1  UNL1       -0.2182
     30 N         -22.0823    2.2230   25.1744 N.3     1  UNL1        0.1024
     31 C         -25.1398    1.1187   27.5523 C.2     1  UNL1       -0.0115
     32 N         -24.7550   -0.1077   29.2851 N.am    1  UNL1       -0.2683
     33 O         -23.2237    1.8245   25.6253 O.3     1  UNL1       -0.2037
     34 C         -22.9192    1.4444   26.8639 C.3     1  UNL1        0.3188
     35 C         -23.8567    0.9169   27.7258 C.2     1  UNL1        0.0857
     36 O         -21.0818    2.1539   25.9878 O.3     1  UNL1       -0.0881
     37 C         -27.1715    0.3407   29.0270 C.3     1  UNL1        0.2059
     38 C         -23.5883    0.0549   28.8754 C.2     1  UNL1        0.2498
     39 O         -21.6052    1.5255   27.0159 O.3     1  UNL1       -0.1644
     40 O         -22.5019   -0.3702   29.3310 O.2     1  UNL1       -0.2701
@<TRIPOS>BOND
     1     1     2    1
     2     2     7    1
     3     3     2    2
     4     4     3    1
     5     4     5    2
     6     5     6    1
     7     6     7    2
     8     8     1    1
     9     8     9    1
    10     8    12    1
    11     9    10    1
    12    10    11    1
    13    12    11    1
    14    13    31    1
    15    14    13    1
    16    14    15    1
    17    15    18    2
    18    16    17    1
    19    16    15    1
    20    19    14    2
    21    20    21    2
    22    20    19    1
    23    21    26    1
    24    22    21    1
    25    23    22    1
    26    24    23    1
    27    24    25    1
    28    26    27    1
    29    26    13    1
    30    28    37    1
    31    28    32    1
    32    29    37    1
    33    30    33    1
    34    30    36    1
    35    31    35    2
    36    31    28    1
    37    32     1    1
    38    33    34    1
    39    34    39    1
    40    34    35    1
    41    35    38    1
    42    36    39    1
    43    38    32   am
    44    38    40    2
