@<TRIPOS>MOLECULE
No_4653-gen_results/8p0m/2024-11-27-11-27-31/
 17 17 0 0 0
SMALL
GASTEIGER

@<TRIPOS>ATOM
      1 C         -28.0162   -0.8135   28.8779 C.2     1  UNL1       -0.0290
      2 C         -27.0636   -0.1190   28.6079 C.2     1  UNL1       -0.0481
      3 C         -26.9716    0.7139   27.5060 C.3     1  UNL1        0.0223
      4 C         -25.8205    1.4909   27.1160 C.3     1  UNL1        0.0156
      5 C         -24.6562    1.4242   27.9180 C.3     1  UNL1        0.1041
      6 C         -24.6847    0.5901   29.0659 C.3     1  UNL1        0.0156
      7 C         -25.8099   -0.1266   29.3338 C.3     1  UNL1        0.0223
      8 C         -29.2185   -0.0422   29.3127 C.3     1  UNL1        0.0631
      9 C         -30.2802   -0.8075   29.8362 C.2     1  UNL1        0.0409
     10 C         -23.4679    2.2043   27.6013 C.2     1  UNL1        0.3643
     11 O         -23.2801    2.7366   26.5147 O.co2   1  UNL1       -0.2457
     12 O         -22.3467    1.9853   28.3312 O.co2   1  UNL1       -0.2457
     13 C         -30.4643   -0.8180   31.1497 C.2     1  UNL1        0.0522
     14 C         -31.7131   -1.1320   31.7095 C.3     1  UNL1        0.3414
     15 CL        -31.3401   -1.5997   28.8764 Cl      1  UNL1       -0.0867
     16 F         -32.6288   -1.0005   31.1157 F       1  UNL1       -0.1933
     17 F         -31.6387   -2.4478   32.2120 F       1  UNL1       -0.1933
@<TRIPOS>BOND
     1     1     2    2
     2     2     3    1
     3     3     4    1
     4     4     5    1
     5     5     6    1
     6     2     7    1
     7     6     7    1
     8     1     8    1
     9     8     9    1
    10     5    10    1
    11    10    11   ar
    12    10    12   ar
    13     9    13    2
    14    13    14    1
    15     9    15    1
    16    14    16    1
    17    14    17    1
