@<TRIPOS>MOLECULE
No_4655-gen_results/8p0m/2024-11-27-11-27-31/
 14 15 0 0 0
SMALL
GASTEIGER

@<TRIPOS>ATOM
      1 O         -28.1229   -1.3353   28.4874 O.2     1  UNL1       -0.2719
      2 C         -27.0637   -0.8242   28.8687 C.2     1  UNL1        0.2559
      3 C         -26.4017   -0.0623   28.6224 C.3     1  UNL1        0.1375
      4 N         -26.2652   -1.8674   29.7609 N.am    1  UNL1       -0.2043
      5 N         -26.8265    1.0749   27.9139 N.3     1  UNL1       -0.2526
      6 C         -24.9670    0.3230   29.1793 C.3     1  UNL1        0.0272
      7 C         -24.4198   -0.6102   30.0393 C.3     1  UNL1        0.0253
      8 C         -25.1015   -1.7530   30.2889 C.3     1  UNL1        0.1152
      9 C         -26.2950    1.4067   26.7219 C.3     1  UNL1        0.1513
     10 C         -28.0438    1.6413   28.1908 C.3     1  UNL1        0.0737
     11 C         -28.6894    2.3183   27.3519 C.3     1  UNL1        0.0175
     12 C         -26.8925    2.2119   25.7509 C.3     1  UNL1        0.0358
     13 C         -28.0994    2.7959   26.0953 C.3     1  UNL1        0.0044
     14 N         -25.1482    0.6936   26.4210 N.3     1  UNL1       -0.1150
@<TRIPOS>BOND
     1     1     2    2
     2     2     3    1
     3     2     4   am
     4     3     5    1
     5     3     6    1
     6     7     8    1
     7     5     9    1
     8     5    10    1
     9     9    12    1
    10    11    13    1
    11    12    13    1
    12     9    14    1
    13    11    10    1
    14     6     7    1
    15     8     4    1
