@<TRIPOS>MOLECULE
No_4656-gen_results/8p0m/2024-11-27-11-27-31/
 19 20 0 0 0
SMALL
GASTEIGER

@<TRIPOS>ATOM
      1 C         -28.0162   -0.8135   28.8779 C.ar    1  UNL1        0.0552
      2 C         -27.0636   -0.1190   28.6079 C.ar    1  UNL1        0.0046
      3 C         -26.9716    0.7139   27.5060 C.ar    1  UNL1        0.0003
      4 C         -28.1053    0.7744   26.6421 C.ar    1  UNL1        0.0046
      5 C         -29.2008    0.1044   27.0527 C.ar    1  UNL1        0.0568
      6 C         -28.0219   -1.5899   30.0879 C.2     1  UNL1        0.2651
      7 C         -29.1640   -0.6394   28.1484 C.ar    1  UNL1        0.0092
      8 N         -27.0234   -2.3569   30.3744 N.am    1  UNL1       -0.1968
      9 O         -28.8679   -1.4799   31.0055 O.2     1  UNL1       -0.2684
     10 C         -30.3732    0.2104   26.1620 C.2     1  UNL1        0.2842
     11 N         -30.3407    0.3909   24.9531 N.am    1  UNL1       -0.0837
     12 O         -31.5160   -0.0794   26.7042 O.2     1  UNL1       -0.2667
     13 C         -25.8542   -2.5161   29.5388 C.3     1  UNL1        0.1418
     14 C         -24.7772   -1.6908   29.7830 C.ar    1  UNL1       -0.0006
     15 C         -23.5877   -1.9138   28.9945 C.ar    1  UNL1       -0.0026
     16 C         -24.7346   -0.7805   30.9165 C.ar    1  UNL1       -0.0026
     17 C         -22.5031   -1.0226   29.1815 C.ar    1  UNL1       -0.0003
     18 C         -23.5498    0.0311   31.0962 C.ar    1  UNL1       -0.0003
     19 C         -22.4419   -0.1163   30.2244 C.ar    1  UNL1       -0.0000
@<TRIPOS>BOND
     1     1     6    1
     2     6     8   am
     3     6     9    2
     4     5    10    1
     5    10    11   am
     6    10    12    2
     7     8    13    1
     8    13    14    1
     9     1     2   ar
    10     2     3   ar
    11     3     4   ar
    12     4     5   ar
    13     5     7   ar
    14     7     1   ar
    15    14    15   ar
    16    15    17   ar
    17    17    19   ar
    18    19    18   ar
    19    18    16   ar
    20    16    14   ar
