@<TRIPOS>MOLECULE
outputs/IAG933/test6/raw/output_4659_IAG933_linker_design_.xyz
 42 45 0 0 0
SMALL
GASTEIGER

@<TRIPOS>ATOM
      1 C         -24.8550   -1.0120   30.1430 C.3     1  UNL1        0.1009
      2 C         -24.9730   -2.5050   29.7880 C.2     1  UNL1       -0.0063
      3 C         -23.9060   -3.1730   29.1460 C.2     1  UNL1       -0.0029
      4 C         -23.9890   -4.5490   28.8530 C.2     1  UNL1       -0.0003
      5 C         -25.1370   -5.2800   29.2050 C.2     1  UNL1       -0.0000
      6 C         -26.2320   -4.6110   29.7840 C.2     1  UNL1       -0.0003
      7 C         -26.1550   -3.2320   30.0650 C.2     1  UNL1       -0.0029
      8 C         -25.3870   -0.6790   31.5710 C.3     1  UNL1        0.0917
      9 C         -25.1890    0.7730   32.0280 C.3     1  UNL1        0.0206
     10 C         -25.3360    0.6840   33.5440 C.3     1  UNL1        0.0203
     11 C         -24.8290   -0.7150   33.9050 C.3     1  UNL1        0.0888
     12 N         -24.7580   -1.4810   32.6460 N.3     1  UNL1       -0.2178
     13 C         -25.6880    1.6140   26.4610 C.2     1  UNL1        0.0173
     14 C         -26.2500    2.9200   26.3950 C.2     1  UNL1        0.0726
     15 C         -25.6420    4.0930   27.1230 C.2     1  UNL1        0.2661
     16 N         -25.6140    5.2520   26.4490 N.am    1  UNL1       -0.1997
     17 C         -25.0260    6.4790   26.9630 C.3     1  UNL1        0.1388
     18 O         -25.1430    3.9660   28.2430 O.2     1  UNL1       -0.2683
     19 C         -27.4380    3.0910   25.6450 C.2     1  UNL1        0.1064
     20 N         -28.0750    2.0890   25.0030 N.2     1  UNL1       -0.2081
     21 C         -27.5430    0.8490   25.0790 C.2     1  UNL1        0.2530
     22 O         -28.1930   -0.2080   24.4770 O.2     1  UNL1       -0.4558
     23 C         -29.4600    0.0050   23.8660 C.3     1  UNL1        0.2426
     24 C         -30.0650   -1.3770   23.5730 C.3     1  UNL1        0.2292
     25 O         -30.7290   -1.8780   24.7210 O.3     1  UNL1       -0.2162
     26 C         -26.3540    0.5760   25.7770 C.2     1  UNL1        0.1892
     27 F         -25.8600   -0.6810   25.7950 F       1  UNL1       -0.1996
     28 C         -22.8760    0.2663   29.4112 C.3     1  UNL1        0.3342
     29 C         -20.5274   -0.0763   28.6184 C.2     1  UNL1        0.0004
     30 C         -21.7234    0.5276   28.4168 C.2     1  UNL1        0.0635
     31 F         -23.5591    3.4219   25.7402 F       1  UNL1       -0.1699
     32 N         -24.0629    0.0036   29.3793 N.3     1  UNL1       -0.2162
     33 F         -22.1329   -0.5646   30.3082 F       1  UNL1       -0.1829
     34 F         -23.6522    1.2244   29.7183 F       1  UNL1       -0.1829
     35 F         -22.1628    2.2399   24.7298 F       1  UNL1       -0.1699
     36 C         -24.6810   -0.0137   28.0783 C.3     1  UNL1        0.0823
     37 C         -22.1060    1.3234   27.3520 C.3     1  UNL1        0.1942
     38 F         -21.0569    2.1305   26.9909 F       1  UNL1       -0.2322
     39 C         -24.5215    1.0710   27.0697 C.3     1  UNL1        0.0523
     40 C         -23.3550    2.1572   25.2965 C.3     1  UNL1        0.4007
     41 C         -23.3043    1.4559   26.6427 C.3     1  UNL1        0.1372
     42 F         -24.1408    1.4612   24.6024 F       1  UNL1       -0.1699
@<TRIPOS>BOND
     1     1     2    1
     2     2     7    1
     3     3     2    2
     4     4     3    1
     5     4     5    2
     6     5     6    1
     7     6     7    2
     8     8     1    1
     9     8     9    1
    10     8    12    1
    11     9    10    1
    12    10    11    1
    13    12    11    1
    14    14    13    1
    15    14    15    1
    16    15    18    2
    17    16    17    1
    18    16    15    1
    19    19    14    2
    20    20    21    2
    21    20    19    1
    22    21    26    1
    23    22    21    1
    24    23    22    1
    25    24    23    1
    26    24    25    1
    27    26    27    1
    28    26    13    2
    29    28    34    1
    30    28    33    1
    31    30    29    2
    32    30    28    1
    33    32    28    1
    34    32     1    1
    35    35    40    1
    36    36    32    1
    37    37    38    1
    38    37    30    1
    39    39    13    1
    40    39    36    1
    41    40    31    1
    42    41    40    1
    43    41    39    1
    44    41    37    1
    45    42    40    1
