@<TRIPOS>MOLECULE
outputs/IAG933/test6/raw/output_4662_IAG933_linker_design_.xyz
 47 50 0 0 0
SMALL
GASTEIGER

@<TRIPOS>ATOM
      1 C         -24.8550   -1.0120   30.1430 C.3     1  UNL1        0.1113
      2 C         -24.9730   -2.5050   29.7880 C.2     1  UNL1       -0.0030
      3 C         -23.9060   -3.1730   29.1460 C.2     1  UNL1       -0.0026
      4 C         -23.9890   -4.5490   28.8530 C.2     1  UNL1       -0.0003
      5 C         -25.1370   -5.2800   29.2050 C.2     1  UNL1       -0.0000
      6 C         -26.2320   -4.6110   29.7840 C.2     1  UNL1       -0.0003
      7 C         -26.1550   -3.2320   30.0650 C.2     1  UNL1       -0.0026
      8 C         -25.3870   -0.6790   31.5710 C.3     1  UNL1        0.0950
      9 C         -25.1890    0.7730   32.0280 C.3     1  UNL1        0.0209
     10 C         -25.3360    0.6840   33.5440 C.3     1  UNL1        0.0203
     11 C         -24.8290   -0.7150   33.9050 C.3     1  UNL1        0.0888
     12 N         -24.7580   -1.4810   32.6460 N.3     1  UNL1       -0.2174
     13 C         -25.6880    1.6140   26.4610 C.2     1  UNL1        0.0393
     14 C         -26.2500    2.9200   26.3950 C.2     1  UNL1        0.0766
     15 C         -25.6420    4.0930   27.1230 C.2     1  UNL1        0.2664
     16 N         -25.6140    5.2520   26.4490 N.am    1  UNL1       -0.1997
     17 C         -25.0260    6.4790   26.9630 C.3     1  UNL1        0.1388
     18 O         -25.1430    3.9660   28.2430 O.2     1  UNL1       -0.2683
     19 C         -27.4380    3.0910   25.6450 C.2     1  UNL1        0.1067
     20 N         -28.0750    2.0890   25.0030 N.2     1  UNL1       -0.2081
     21 C         -27.5430    0.8490   25.0790 C.2     1  UNL1        0.2533
     22 O         -28.1930   -0.2080   24.4770 O.2     1  UNL1       -0.4558
     23 C         -29.4600    0.0050   23.8660 C.3     1  UNL1        0.2426
     24 C         -30.0650   -1.3770   23.5730 C.3     1  UNL1        0.2292
     25 O         -30.7290   -1.8780   24.7210 O.3     1  UNL1       -0.2162
     26 C         -26.3540    0.5760   25.7770 C.2     1  UNL1        0.1931
     27 F         -25.8600   -0.6810   25.7950 F       1  UNL1       -0.1992
     28 C         -27.8210    6.2301   30.3864 C.2     1  UNL1        0.4576
     29 C         -22.6399    0.7402   28.6396 C.2     1  UNL1        0.1533
     30 N         -27.4460    7.4566   31.0471 N.pl3   1  UNL1        0.1995
     31 C         -28.5908    0.5560   27.8169 C.3     1  UNL1        0.2514
     32 O         -29.7314    0.9257   30.1351 O.2     1  UNL1       -0.2473
     33 C         -27.5290    3.6694   30.3391 C.3     1  UNL1        0.2219
     34 C         -23.2063    2.0669   26.1772 C.2     1  UNL1        0.0014
     35 C         -24.3116    1.4681   26.9877 C.2     1  UNL1        0.0181
     36 C         -27.4333    4.9341   30.8849 C.3     1  UNL1        0.1807
     37 F         -22.2218    0.1432   29.7994 F       1  UNL1       -0.2029
     38 N         -28.5973    6.2381   29.3589 N.pl3   1  UNL1        0.1995
     39 C         -21.8375    1.9871   26.6680 C.2     1  UNL1        0.0024
     40 C         -24.0466    0.7666   28.3018 C.2     1  UNL1        0.0759
     41 N         -25.1065    0.0662   29.1150 N.pl3   1  UNL1       -0.3022
     42 C         -21.5490    1.3071   27.8649 C.2     1  UNL1        0.0309
     43 C         -27.5779   -0.2850   28.6666 C.3     1  UNL1        0.0659
     44 O         -28.6463    3.2550   29.1527 O.3     1  UNL1       -0.4461
     45 O         -29.6900   -0.3463   27.5613 O.3     1  UNL1       -0.2110
     46 C         -26.4745    0.7179   29.2418 C.3     1  UNL1        0.0943
     47 C         -29.1462    1.5029   28.9098 C.2     1  UNL1        0.3478
@<TRIPOS>BOND
     1     1    41    1
     2     2     7    1
     3     2     1    1
     4     3     2    2
     5     4     3    1
     6     4     5    2
     7     5     6    1
     8     6     7    2
     9     8     1    1
    10     8     9    1
    11     8    12    1
    12     9    10    1
    13    10    11    1
    14    12    11    1
    15    13    35    1
    16    14    13    1
    17    14    15    1
    18    15    18    2
    19    16    17    1
    20    16    15    1
    21    19    14    2
    22    20    21    2
    23    20    19    1
    24    21    26    1
    25    22    21    1
    26    23    22    1
    27    24    23    1
    28    24    25    1
    29    26    27    1
    30    26    13    2
    31    28    36    1
    32    28    30    1
    33    29    37    1
    34    31    45    1
    35    31    43    1
    36    31    47    1
    37    33    36    1
    38    34    39    2
    39    34    35    1
    40    35    40    2
    41    38    28    2
    42    39    42    1
    43    40    29    1
    44    40    41    1
    45    41    46    1
    46    42    29    2
    47    43    46    1
    48    44    33    1
    49    47    44    1
    50    47    32    2
