@<TRIPOS>MOLECULE
outputs/IAG933/test6/raw/output_4664_IAG933_linker_design_.xyz
 44 48 0 0 0
SMALL
GASTEIGER

@<TRIPOS>ATOM
      1 C         -24.8550   -1.0120   30.1430 C.3     1  UNL1        0.1137
      2 C         -24.9730   -2.5050   29.7880 C.2     1  UNL1       -0.0029
      3 C         -23.9060   -3.1730   29.1460 C.2     1  UNL1       -0.0026
      4 C         -23.9890   -4.5490   28.8530 C.2     1  UNL1       -0.0003
      5 C         -25.1370   -5.2800   29.2050 C.2     1  UNL1       -0.0000
      6 C         -26.2320   -4.6110   29.7840 C.2     1  UNL1       -0.0003
      7 C         -26.1550   -3.2320   30.0650 C.2     1  UNL1       -0.0026
      8 C         -25.3870   -0.6790   31.5710 C.3     1  UNL1        0.0951
      9 C         -25.1890    0.7730   32.0280 C.3     1  UNL1        0.0209
     10 C         -25.3360    0.6840   33.5440 C.3     1  UNL1        0.0203
     11 C         -24.8290   -0.7150   33.9050 C.3     1  UNL1        0.0888
     12 N         -24.7580   -1.4810   32.6460 N.3     1  UNL1       -0.2174
     13 C         -25.6880    1.6140   26.4610 C.2     1  UNL1        0.0399
     14 C         -26.2500    2.9200   26.3950 C.2     1  UNL1        0.0766
     15 C         -25.6420    4.0930   27.1230 C.2     1  UNL1        0.2664
     16 N         -25.6140    5.2520   26.4490 N.am    1  UNL1       -0.1997
     17 C         -25.0260    6.4790   26.9630 C.3     1  UNL1        0.1388
     18 O         -25.1430    3.9660   28.2430 O.2     1  UNL1       -0.2683
     19 C         -27.4380    3.0910   25.6450 C.2     1  UNL1        0.1067
     20 N         -28.0750    2.0890   25.0030 N.2     1  UNL1       -0.2081
     21 C         -27.5430    0.8490   25.0790 C.2     1  UNL1        0.2533
     22 O         -28.1930   -0.2080   24.4770 O.2     1  UNL1       -0.4558
     23 C         -29.4600    0.0050   23.8660 C.3     1  UNL1        0.2426
     24 C         -30.0650   -1.3770   23.5730 C.3     1  UNL1        0.2292
     25 O         -30.7290   -1.8780   24.7210 O.3     1  UNL1       -0.2162
     26 C         -26.3540    0.5760   25.7770 C.2     1  UNL1        0.1931
     27 F         -25.8600   -0.6810   25.7950 F       1  UNL1       -0.1992
     28 C         -22.3210    0.9972   27.9188 C.2     1  UNL1        0.1799
     29 C         -22.8339    0.1980   28.9912 C.3     1  UNL1        0.2888
     30 O         -28.3998    0.8978   31.8480 O.3     1  UNL1       -0.3483
     31 O         -26.7313    1.6653   28.8907 O.3     1  UNL1       -0.3449
     32 C         -29.0152    0.8720   29.6050 C.3     1  UNL1        0.2108
     33 F         -21.9515   -0.4537   29.7400 F       1  UNL1       -0.2071
     34 C         -24.9129    1.0388   28.7613 C.2     1  UNL1        0.0583
     35 C         -27.5476    0.9982   29.8975 C.3     1  UNL1        0.1779
     36 C         -27.5356    1.7438   31.0187 C.3     1  UNL1        0.1743
     37 C         -29.5101    0.6000   30.9738 C.3     1  UNL1        0.1776
     38 C         -24.5785    1.3621   27.3977 C.2     1  UNL1        0.0268
     39 C         -23.2580    1.4853   27.0093 C.2     1  UNL1        0.0863
     40 N         -24.1898    0.0464   29.3161 N.pl3   1  UNL1       -0.2743
     41 F         -20.9864    1.3701   27.8285 F       1  UNL1       -0.2033
     42 CL        -22.7238    2.3036   25.5700 Cl      1  UNL1       -0.0801
     43 O         -29.1019   -0.1779   28.6212 O.3     1  UNL1       -0.2177
     44 C         -25.5125    1.8627   29.6865 C.3     1  UNL1        0.1831
@<TRIPOS>BOND
     1     1     2    1
     2     2     7    1
     3     3     2    2
     4     4     3    1
     5     4     5    2
     6     5     6    1
     7     6     7    2
     8     8     1    1
     9     8     9    1
    10     8    12    1
    11     9    10    1
    12    10    11    1
    13    12    11    1
    14    13    38    1
    15    14    13    1
    16    14    15    1
    17    15    18    2
    18    16    17    1
    19    16    15    1
    20    19    14    2
    21    20    21    2
    22    20    19    1
    23    21    26    1
    24    22    21    1
    25    23    22    1
    26    24    23    1
    27    24    25    1
    28    26    27    1
    29    26    13    2
    30    28    29    1
    31    29    40    1
    32    29    33    1
    33    31    44    1
    34    32    43    1
    35    32    35    1
    36    32    37    1
    37    34    40    1
    38    34    44    1
    39    35    31    1
    40    35    36    1
    41    36    30    1
    42    37    30    1
    43    38    34    2
    44    39    38    1
    45    39    28    2
    46    40     1    1
    47    41    28    1
    48    42    39    1
