@<TRIPOS>MOLECULE
No_4667-gen_results/8p0m/2024-11-27-11-27-31/
 17 19 0 0 0
SMALL
GASTEIGER

@<TRIPOS>ATOM
      1 C         -28.0162   -0.8135   28.8779 C.ar    1  UNL1        0.0052
      2 C         -27.0636   -0.1190   28.6079 C.ar    1  UNL1        0.0354
      3 C         -26.9716    0.7139   27.5060 C.ar    1  UNL1       -0.0131
      4 C         -28.1053    0.7744   26.6421 C.ar    1  UNL1        0.0258
      5 C         -29.2041    0.1179   27.0477 C.ar    1  UNL1        0.1398
      6 C         -29.2127   -0.6088   28.1281 C.ar    1  UNL1        0.0297
      7 C         -25.7106    1.4518   27.1380 C.3     1  UNL1        0.0448
      8 C         -24.6052    0.9253   27.6902 C.ar    1  UNL1       -0.0153
      9 C         -23.3087    1.6018   27.4923 C.ar    1  UNL1       -0.0039
     10 C         -22.1769    1.1971   28.2745 C.ar    1  UNL1       -0.0003
     11 C         -22.2182    0.0930   29.0619 C.ar    1  UNL1        0.0001
     12 C         -23.4005   -0.6727   29.1615 C.ar    1  UNL1        0.0029
     13 C         -24.5560   -0.2221   28.5396 C.ar    1  UNL1        0.0353
     14 C         -25.7306   -0.6018   29.1335 C.2     1  UNL1        0.1950
     15 O         -25.7678   -1.5463   30.0092 O.2     1  UNL1       -0.2866
     16 F         -30.3317    0.3425   26.3530 F       1  UNL1       -0.2042
     17 C         -25.7703    2.5036   26.1819 C.3     1  UNL1        0.0094
@<TRIPOS>BOND
     1     3     7    1
     2     2    14    1
     3    13    14    1
     4    14    15    2
     5     5    16    1
     6     7    17    1
     7     7     8    1
     8     1     2   ar
     9     2     3   ar
    10     3     4   ar
    11     4     5   ar
    12     5     6   ar
    13     6     1   ar
    14     8     9   ar
    15     9    10   ar
    16    10    11   ar
    17    11    12   ar
    18    12    13   ar
    19    13     8   ar
