@<TRIPOS>MOLECULE
outputs/IAG933/test6/raw/output_467_IAG933_linker_design_.xyz
 44 48 0 0 0
SMALL
GASTEIGER

@<TRIPOS>ATOM
      1 C         -24.8550   -1.0120   30.1430 C.3     1  UNL1        0.1987
      2 C         -24.9730   -2.5050   29.7880 C.2     1  UNL1        0.0213
      3 C         -23.9060   -3.1730   29.1460 C.2     1  UNL1       -0.0004
      4 C         -23.9890   -4.5490   28.8530 C.2     1  UNL1       -0.0002
      5 C         -25.1370   -5.2800   29.2050 C.2     1  UNL1       -0.0000
      6 C         -26.2320   -4.6110   29.7840 C.2     1  UNL1       -0.0002
      7 C         -26.1550   -3.2320   30.0650 C.2     1  UNL1       -0.0004
      8 C         -25.3870   -0.6790   31.5710 C.3     1  UNL1        0.1197
      9 C         -25.1890    0.7730   32.0280 C.3     1  UNL1        0.0233
     10 C         -25.3360    0.6840   33.5440 C.3     1  UNL1        0.0204
     11 C         -24.8290   -0.7150   33.9050 C.3     1  UNL1        0.0889
     12 N         -24.7580   -1.4810   32.6460 N.3     1  UNL1       -0.2150
     13 C         -25.6880    1.6140   26.4610 C.2     1  UNL1        0.0414
     14 C         -26.2500    2.9200   26.3950 C.2     1  UNL1        0.0765
     15 C         -25.6420    4.0930   27.1230 C.2     1  UNL1        0.2664
     16 N         -25.6140    5.2520   26.4490 N.am    1  UNL1       -0.1997
     17 C         -25.0260    6.4790   26.9630 C.3     1  UNL1        0.1388
     18 O         -25.1430    3.9660   28.2430 O.2     1  UNL1       -0.2683
     19 C         -27.4380    3.0910   25.6450 C.2     1  UNL1        0.1067
     20 N         -28.0750    2.0890   25.0030 N.2     1  UNL1       -0.2081
     21 C         -27.5430    0.8490   25.0790 C.2     1  UNL1        0.2533
     22 O         -28.1930   -0.2080   24.4770 O.2     1  UNL1       -0.4558
     23 C         -29.4600    0.0050   23.8660 C.3     1  UNL1        0.2426
     24 C         -30.0650   -1.3770   23.5730 C.3     1  UNL1        0.2292
     25 O         -30.7290   -1.8780   24.7210 O.3     1  UNL1       -0.2162
     26 C         -26.3540    0.5760   25.7770 C.2     1  UNL1        0.1930
     27 F         -25.8600   -0.6810   25.7950 F       1  UNL1       -0.1992
     28 C         -23.0311    0.7774   28.7561 C.2     1  UNL1        0.1948
     29 C         -26.8246    0.0788   28.9457 C.2     1  UNL1        0.3052
     30 F         -21.0682    1.6614   27.5811 F       1  UNL1       -0.1986
     31 N         -27.6915   -0.5307   28.1296 N.2     1  UNL1       -0.0404
     32 N         -25.3511   -0.1404   29.1200 N.pl3   1  UNL1       -0.1864
     33 C         -29.3289    2.1368   28.4394 C.2     1  UNL1       -0.0000
     34 O         -23.1796    2.3523   25.5705 O.2     1  UNL1       -0.2897
     35 C         -22.3805    1.3803   27.6841 C.2     1  UNL1        0.2052
     36 C         -24.4044    0.6072   28.3711 C.3     1  UNL1        0.2382
     37 C         -27.4129    1.0946   29.6179 C.3     1  UNL1        0.1432
     38 F         -22.1867    1.9574   24.8314 F       1  UNL1        0.0139
     39 F         -22.4461    0.4911   29.9178 F       1  UNL1       -0.2019
     40 C         -28.2226    2.1893   29.2811 C.2     1  UNL1       -0.0134
     41 C         -29.0182   -0.3230   27.6955 C.2     1  UNL1        0.2353
     42 C         -29.6548    0.9559   27.6938 C.2     1  UNL1        0.0502
     43 C         -24.5019    1.2826   27.2248 C.2     1  UNL1        0.0697
     44 C         -23.3265    1.6931   26.7388 C.2     1  UNL1        0.2183
@<TRIPOS>BOND
     1     1    32    1
     2     2     7    1
     3     2     1    1
     4     3     2    2
     5     4     3    1
     6     4     5    2
     7     5     6    1
     8     6     7    2
     9     8     1    1
    10     8     9    1
    11     8    12    1
    12     9    10    1
    13    10    11    1
    14    12    11    1
    15    13    43    1
    16    14    13    1
    17    14    15    1
    18    15    18    2
    19    16    17    1
    20    16    15    1
    21    19    14    2
    22    20    21    2
    23    20    19    1
    24    21    26    1
    25    22    21    1
    26    23    22    1
    27    24    23    1
    28    24    25    1
    29    26    27    1
    30    26    13    2
    31    28    39    1
    32    29    32    1
    33    29    37    1
    34    30    35    1
    35    31    29    2
    36    33    40    2
    37    34    44    1
    38    35    28    2
    39    36    28    1
    40    36    32    1
    41    38    34    1
    42    40    37    1
    43    41    31    1
    44    42    41    2
    45    42    33    1
    46    43    36    1
    47    44    43    2
    48    44    35    1
