@<TRIPOS>MOLECULE
No_4670-gen_results/8p0m/2024-11-27-11-27-31/
 25 28 0 0 0
SMALL
GASTEIGER

@<TRIPOS>ATOM
      1 C         -28.0162   -0.8135   28.8779 C.ar    1  UNL1        0.1401
      2 C         -27.0636   -0.1189   28.6079 C.ar    1  UNL1        0.0371
      3 C         -27.0010    0.6913   27.4910 C.ar    1  UNL1        0.0081
      4 C         -28.1373    0.7363   26.6350 C.ar    1  UNL1        0.0180
      5 C         -29.2360    0.0765   27.0690 C.ar    1  UNL1        0.0842
      6 C         -29.2177   -0.6429   28.1747 C.ar    1  UNL1        0.0517
      7 N         -30.3516    0.1564   26.2430 N.ar    1  UNL1       -0.2437
      8 C         -31.4313   -0.4312   26.5996 C.ar    1  UNL1        0.0988
      9 C         -31.5398   -1.0043   27.8472 C.ar    1  UNL1        0.0208
     10 C         -30.4352   -1.2124   28.6022 C.ar    1  UNL1        0.0061
     11 O         -27.9781   -1.5532   30.0593 O.3     1  UNL1       -0.4714
     12 C         -27.9761    1.5620   25.4091 C.ar    1  UNL1        0.0015
     13 C         -26.8580    2.0887   25.1096 C.ar    1  UNL1        0.0002
     14 C         -25.6929    2.1348   25.9160 C.ar    1  UNL1        0.0038
     15 C         -25.6920    1.3710   27.1018 C.ar    1  UNL1        0.0458
     16 C         -24.4953    1.3250   27.8836 C.2     1  UNL1        0.2182
     17 N         -23.5517    2.0351   27.7030 N.2     1  UNL1       -0.2395
     18 C         -22.3096    1.7023   28.0904 C.3     1  UNL1        0.1520
     19 C         -22.1074    0.3314   28.3143 C.2     1  UNL1        0.0056
     20 F         -24.8004    0.9132   29.0855 F       1  UNL1       -0.1836
     21 C         -20.7498   -0.0601   28.6833 C.2     1  UNL1        0.0155
     22 C         -20.7120   -1.4342   29.0618 C.2     1  UNL1        0.0930
     23 N         -21.8937   -2.0187   29.1852 N.2     1  UNL1       -0.2644
     24 C         -22.8091   -0.9001   28.8060 C.3     1  UNL1        0.1496
     25 C         -26.8593   -2.2481   30.3321 C.3     1  UNL1        0.2525
@<TRIPOS>BOND
     1     1    11    1
     2    15    16    1
     3    16    17    2
     4    17    18    1
     5    18    19    1
     6    16    20    1
     7    19    21    2
     8    21    22    1
     9    22    23    2
    10    19    24    1
    11    23    24    1
    12    11    25    1
    13     1     2   ar
    14     2     3   ar
    15     4     5   ar
    16     6     1   ar
    17     5     6   ar
    18     6    10   ar
    19    10     9   ar
    20     9     8   ar
    21     8     7   ar
    22     7     5   ar
    23     3     4   ar
    24     4    12   ar
    25    12    13   ar
    26    13    14   ar
    27    14    15   ar
    28    15     3   ar
