@<TRIPOS>MOLECULE
outputs/IAG933/test6/raw/output_4671_IAG933_linker_design_.xyz
 42 45 0 0 0
SMALL
GASTEIGER

@<TRIPOS>ATOM
      1 C         -24.8550   -1.0120   30.1430 C.3     1  UNL1        0.1125
      2 C         -24.9730   -2.5050   29.7880 C.2     1  UNL1       -0.0030
      3 C         -23.9060   -3.1730   29.1460 C.2     1  UNL1       -0.0026
      4 C         -23.9890   -4.5490   28.8530 C.2     1  UNL1       -0.0003
      5 C         -25.1370   -5.2800   29.2050 C.2     1  UNL1       -0.0000
      6 C         -26.2320   -4.6110   29.7840 C.2     1  UNL1       -0.0003
      7 C         -26.1550   -3.2320   30.0650 C.2     1  UNL1       -0.0026
      8 C         -25.3870   -0.6790   31.5710 C.3     1  UNL1        0.0951
      9 C         -25.1890    0.7730   32.0280 C.3     1  UNL1        0.0209
     10 C         -25.3360    0.6840   33.5440 C.3     1  UNL1        0.0203
     11 C         -24.8290   -0.7150   33.9050 C.3     1  UNL1        0.0888
     12 N         -24.7580   -1.4810   32.6460 N.3     1  UNL1       -0.2174
     13 C         -25.6880    1.6140   26.4610 C.2     1  UNL1        0.0439
     14 C         -26.2500    2.9200   26.3950 C.2     1  UNL1        0.0767
     15 C         -25.6420    4.0930   27.1230 C.2     1  UNL1        0.2664
     16 N         -25.6140    5.2520   26.4490 N.am    1  UNL1       -0.1997
     17 C         -25.0260    6.4790   26.9630 C.3     1  UNL1        0.1388
     18 O         -25.1430    3.9660   28.2430 O.2     1  UNL1       -0.2683
     19 C         -27.4380    3.0910   25.6450 C.2     1  UNL1        0.1067
     20 N         -28.0750    2.0890   25.0030 N.2     1  UNL1       -0.2081
     21 C         -27.5430    0.8490   25.0790 C.2     1  UNL1        0.2533
     22 O         -28.1930   -0.2080   24.4770 O.2     1  UNL1       -0.4558
     23 C         -29.4600    0.0050   23.8660 C.3     1  UNL1        0.2426
     24 C         -30.0650   -1.3770   23.5730 C.3     1  UNL1        0.2292
     25 O         -30.7290   -1.8780   24.7210 O.3     1  UNL1       -0.2162
     26 C         -26.3540    0.5760   25.7770 C.2     1  UNL1        0.1932
     27 F         -25.8600   -0.6810   25.7950 F       1  UNL1       -0.1992
     28 C         -27.9134    0.4375   28.6806 C.3     1  UNL1        0.0215
     29 C         -22.0354    0.5291   28.3241 C.ar    1  UNL1        0.0913
     30 C         -28.3485    1.1706   29.9727 C.3     1  UNL1        0.0018
     31 C         -27.9741    2.6630   29.9469 C.3     1  UNL1        0.0001
     32 C         -24.4366    0.4647   28.3058 C.ar    1  UNL1        0.1347
     33 C         -20.7963   -0.1267   28.8333 C.3     1  UNL1        0.0547
     34 C         -24.4689    1.2857   27.1627 C.ar    1  UNL1        0.0753
     35 C         -23.2115    1.8341   26.7274 C.ar    1  UNL1        0.2267
     36 C         -28.4481    3.6093   31.0267 C.3     1  UNL1        0.0000
     37 O         -23.1987    2.8262   25.8662 O.3     1  UNL1       -0.2840
     38 N         -23.2248    0.1814   28.8602 N.ar    1  UNL1       -0.2325
     39 F         -20.8080    1.7802   26.8791 F       1  UNL1       -0.1995
     40 C         -22.0143    1.3873   27.2787 C.ar    1  UNL1        0.1923
     41 N         -25.4036   -0.1841   29.0016 N.pl3   1  UNL1       -0.2897
     42 C         -26.6919   -0.3529   28.8643 C.3     1  UNL1        0.0925
@<TRIPOS>BOND
     1     1    41    1
     2     2     7    1
     3     2     1    1
     4     3     2    2
     5     4     3    1
     6     4     5    2
     7     5     6    1
     8     6     7    2
     9     8     1    1
    10     8     9    1
    11     8    12    1
    12     9    10    1
    13    10    11    1
    14    12    11    1
    15    13    34    1
    16    14    13    1
    17    14    15    1
    18    15    18    2
    19    16    17    1
    20    16    15    1
    21    19    14    2
    22    20    21    2
    23    20    19    1
    24    21    26    1
    25    22    21    1
    26    23    22    1
    27    24    23    1
    28    24    25    1
    29    26    27    1
    30    26    13    2
    31    28    42    1
    32    28    30    1
    33    29    33    1
    34    29    38   ar
    35    31    30    1
    36    31    36    1
    37    32    38   ar
    38    32    41    1
    39    34    32   ar
    40    35    34   ar
    41    35    40   ar
    42    37    35    1
    43    39    40    1
    44    40    29   ar
    45    42    41    1
