@<TRIPOS>MOLECULE
outputs/IAG933/test6/raw/output_4677_IAG933_linker_design_.xyz
 46 51 0 0 0
SMALL
GASTEIGER

@<TRIPOS>ATOM
      1 C         -24.8550   -1.0120   30.1430 C.3     1  UNL1        0.0428
      2 C         -24.9730   -2.5050   29.7880 C.2     1  UNL1       -0.0210
      3 C         -23.9060   -3.1730   29.1460 C.2     1  UNL1       -0.0042
      4 C         -23.9890   -4.5490   28.8530 C.2     1  UNL1       -0.0003
      5 C         -25.1370   -5.2800   29.2050 C.2     1  UNL1       -0.0000
      6 C         -26.2320   -4.6110   29.7840 C.2     1  UNL1       -0.0003
      7 C         -26.1550   -3.2320   30.0650 C.2     1  UNL1       -0.0042
      8 C         -25.3870   -0.6790   31.5710 C.3     1  UNL1        0.0769
      9 C         -25.1890    0.7730   32.0280 C.3     1  UNL1        0.0192
     10 C         -25.3360    0.6840   33.5440 C.3     1  UNL1        0.0202
     11 C         -24.8290   -0.7150   33.9050 C.3     1  UNL1        0.0887
     12 N         -24.7580   -1.4810   32.6460 N.3     1  UNL1       -0.2191
     13 C         -25.6880    1.6140   26.4610 C.2     1  UNL1        0.0876
     14 C         -26.2500    2.9200   26.3950 C.2     1  UNL1        0.0899
     15 C         -25.6420    4.0930   27.1230 C.2     1  UNL1        0.2676
     16 N         -25.6140    5.2520   26.4490 N.am    1  UNL1       -0.1997
     17 C         -25.0260    6.4790   26.9630 C.3     1  UNL1        0.1388
     18 O         -25.1430    3.9660   28.2430 O.2     1  UNL1       -0.2683
     19 C         -27.4380    3.0910   25.6450 C.2     1  UNL1        0.1080
     20 N         -28.0750    2.0890   25.0030 N.2     1  UNL1       -0.2080
     21 C         -27.5430    0.8490   25.0790 C.2     1  UNL1        0.2546
     22 O         -28.1930   -0.2080   24.4770 O.2     1  UNL1       -0.4558
     23 C         -29.4600    0.0050   23.8660 C.3     1  UNL1        0.2426
     24 C         -30.0650   -1.3770   23.5730 C.3     1  UNL1        0.2292
     25 O         -30.7290   -1.8780   24.7210 O.3     1  UNL1       -0.2162
     26 C         -26.3540    0.5760   25.7770 C.2     1  UNL1        0.2063
     27 F         -25.8600   -0.6810   25.7950 F       1  UNL1       -0.1979
     28 C         -25.5194   -0.0489   29.1578 C.3     1  UNL1        0.0604
     29 O         -27.4722    0.9401   28.9484 O.3     1  UNL1       -0.3562
     30 C         -31.5970   -1.0446   28.4764 C.3     1  UNL1        0.1422
     31 O         -22.5411   -0.1635   29.0660 O.2     1  UNL1       -0.2913
     32 C         -29.6377    2.2088   28.9285 C.3     1  UNL1        0.0051
     33 C         -29.2550    2.0353   29.9770 C.3     1  UNL1        0.0296
     34 N         -24.3726    1.1711   27.1056 N.pl3   1  UNL1       -0.2858
     35 C         -26.3752    1.1254   29.7725 C.3     1  UNL1        0.1444
     36 C         -29.9124    0.9966   28.2754 C.3     1  UNL1        0.0322
     37 C         -22.7776    2.3583   25.7669 C.3     1  UNL1        0.0446
     38 C         -29.2912   -0.1302   28.9003 C.3     1  UNL1        0.0321
     39 C         -23.2356    0.7310   28.5645 C.2     1  UNL1        0.1988
     40 C         -28.6211    0.7256   29.8009 C.3     1  UNL1        0.1153
     41 CL        -20.8578    1.5321   27.4022 Cl      1  UNL1       -0.0880
     42 C         -31.0099    0.8671   27.2902 C.3     1  UNL1        0.1422
     43 C         -30.2239   -1.3013   29.1519 C.3     1  UNL1        0.0346
     44 O         -31.4905   -0.4290   27.1863 O.3     1  UNL1       -0.3538
     45 C         -22.8683    1.5962   27.2836 C.3     1  UNL1        0.1789
     46 C         -24.5682    0.9407   28.5660 C.3     1  UNL1        0.1373
@<TRIPOS>BOND
     1     1    28    1
     2     2     7    1
     3     2     1    1
     4     3     2    2
     5     4     3    1
     6     4     5    2
     7     5     6    1
     8     6     7    2
     9     8     1    1
    10     8     9    1
    11     8    12    1
    12     9    10    1
    13    10    11    1
    14    12    11    1
    15    13    34    1
    16    14    13    1
    17    14    15    1
    18    15    18    2
    19    16    17    1
    20    16    15    1
    21    19    14    2
    22    20    21    2
    23    20    19    1
    24    21    26    1
    25    22    21    1
    26    23    22    1
    27    24    23    1
    28    24    25    1
    29    26    27    1
    30    26    13    2
    31    28    35    1
    32    29    35    1
    33    30    43    1
    34    32    33    1
    35    34    45    1
    36    34    46    1
    37    36    42    1
    38    36    38    1
    39    36    32    1
    40    38    43    1
    41    38    40    1
    42    39    46    1
    43    39    31    2
    44    40    29    1
    45    40    33    1
    46    44    42    1
    47    44    30    1
    48    45    37    1
    49    45    41    1
    50    45    39    1
    51    46    28    1
