@<TRIPOS>MOLECULE
No_4678-gen_results/8p0m/2024-11-27-11-27-31/
 13 13 0 0 0
SMALL
GASTEIGER

@<TRIPOS>ATOM
      1 C         -28.0162   -0.8135   28.8779 C.ar    1  UNL1        0.0007
      2 C         -28.4690   -0.7850   29.8287 C.ar    1  UNL1        0.0287
      3 C         -26.5042   -0.7777   28.8766 C.ar    1  UNL1        0.0054
      4 C         -25.8103   -0.8531   30.1028 C.ar    1  UNL1        0.1361
      5 C         -27.9906   -0.8916   31.2257 C.ar    1  UNL1        0.0050
      6 C         -26.6042   -0.8676   31.2652 C.ar    1  UNL1        0.0294
      7 F         -24.5534   -0.7870   30.1406 F       1  UNL1       -0.2045
      8 P         -30.3866   -0.8390   29.8425 P.3     1  UNL1        0.1395
      9 O         -30.8834    0.1399   30.7605 O.3     1  UNL1       -0.3542
     10 O         -30.8104   -2.1859   30.2447 O.3     1  UNL1       -0.3542
     11 O         -30.7623   -0.5587   28.4481 O.2     1  UNL1       -0.4557
     12 C         -25.6575   -0.6869   27.6696 C.3     1  UNL1        0.0286
     13 C         -24.3810   -0.1366   27.7964 C.3     1  UNL1        0.0051
@<TRIPOS>BOND
     1     4     7    1
     2     2     8    1
     3     8     9    1
     4     8    10    1
     5     8    11    2
     6     3    12    1
     7    12    13    1
     8     1     2   ar
     9     2     5   ar
    10     5     6   ar
    11     6     4   ar
    12     4     3   ar
    13     3     1   ar
