@<TRIPOS>MOLECULE
No_4681-gen_results/8p0m/2024-11-27-11-27-31/
 13 13 0 0 0
SMALL
GASTEIGER

@<TRIPOS>ATOM
      1 C         -28.0162   -0.8135   28.8779 C.ar    1  UNL1        0.0069
      2 C         -28.4690   -0.7850   29.8287 C.ar    1  UNL1        0.0555
      3 C         -26.5042   -0.7777   28.8766 C.ar    1  UNL1        0.0298
      4 C         -25.8103   -0.8531   30.1028 C.ar    1  UNL1        0.1401
      5 C         -27.9906   -0.8916   31.2257 C.ar    1  UNL1        0.0069
      6 C         -26.6042   -0.8676   31.2652 C.ar    1  UNL1        0.0298
      7 F         -24.5534   -0.7870   30.1406 F       1  UNL1       -0.2042
      8 C         -30.0954   -0.8409   29.8497 C.2     1  UNL1        0.2687
      9 O         -30.5236   -0.4692   28.9258 O.2     1  UNL1       -0.2680
     10 N         -30.7799   -1.3301   30.9281 N.am    1  UNL1       -0.1798
     11 C         -30.3477   -1.8468   32.1281 C.2     1  UNL1        0.0518
     12 C         -31.0530   -2.2247   33.1073 C.2     1  UNL1        0.0132
     13 C         -28.9318   -1.9725   32.4531 C.3     1  UNL1        0.0493
@<TRIPOS>BOND
     1     4     7    1
     2     2     8    1
     3     8     9    2
     4     8    10   am
     5    10    11    1
     6    11    12    2
     7    11    13    1
     8     1     2   ar
     9     2     5   ar
    10     5     6   ar
    11     6     4   ar
    12     4     3   ar
    13     3     1   ar
