@<TRIPOS>MOLECULE
outputs/IAG933/test6/raw/output_4683_IAG933_linker_design_.xyz
 45 50 0 0 0
SMALL
GASTEIGER

@<TRIPOS>ATOM
      1 C         -24.8550   -1.0120   30.1430 C.3     1  UNL1        0.1533
      2 C         -24.9730   -2.5050   29.7880 C.2     1  UNL1        0.0059
      3 C         -23.9060   -3.1730   29.1460 C.2     1  UNL1       -0.0019
      4 C         -23.9890   -4.5490   28.8530 C.2     1  UNL1       -0.0002
      5 C         -25.1370   -5.2800   29.2050 C.2     1  UNL1       -0.0000
      6 C         -26.2320   -4.6110   29.7840 C.2     1  UNL1       -0.0002
      7 C         -26.1550   -3.2320   30.0650 C.2     1  UNL1       -0.0019
      8 C         -25.3870   -0.6790   31.5710 C.3     1  UNL1        0.1041
      9 C         -25.1890    0.7730   32.0280 C.3     1  UNL1        0.0217
     10 C         -25.3360    0.6840   33.5440 C.3     1  UNL1        0.0203
     11 C         -24.8290   -0.7150   33.9050 C.3     1  UNL1        0.0888
     12 N         -24.7580   -1.4810   32.6460 N.3     1  UNL1       -0.2166
     13 C         -25.6880    1.6140   26.4610 C.2     1  UNL1        0.0182
     14 C         -26.2500    2.9200   26.3950 C.2     1  UNL1        0.0726
     15 C         -25.6420    4.0930   27.1230 C.2     1  UNL1        0.2661
     16 N         -25.6140    5.2520   26.4490 N.am    1  UNL1       -0.1997
     17 C         -25.0260    6.4790   26.9630 C.3     1  UNL1        0.1388
     18 O         -25.1430    3.9660   28.2430 O.2     1  UNL1       -0.2683
     19 C         -27.4380    3.0910   25.6450 C.2     1  UNL1        0.1064
     20 N         -28.0750    2.0890   25.0030 N.2     1  UNL1       -0.2081
     21 C         -27.5430    0.8490   25.0790 C.2     1  UNL1        0.2530
     22 O         -28.1930   -0.2080   24.4770 O.2     1  UNL1       -0.4558
     23 C         -29.4600    0.0050   23.8660 C.3     1  UNL1        0.2426
     24 C         -30.0650   -1.3770   23.5730 C.3     1  UNL1        0.2292
     25 O         -30.7290   -1.8780   24.7210 O.3     1  UNL1       -0.2162
     26 C         -26.3540    0.5760   25.7770 C.2     1  UNL1        0.1892
     27 F         -25.8600   -0.6810   25.7950 F       1  UNL1       -0.1996
     28 C         -22.3029    1.3933   27.5580 C.3     1  UNL1        0.1907
     29 C         -24.2919    0.4041   28.2493 C.3     1  UNL1        0.1559
     30 C         -23.2020    1.1631   28.9205 C.3     1  UNL1        0.2048
     31 O         -24.3677    4.8809   31.7747 O.3     1  UNL1       -0.3466
     32 O         -21.3148    2.0265   26.6591 O.3     1  UNL1       -0.2198
     33 C         -24.5829    1.2543   27.0854 C.3     1  UNL1        0.0602
     34 O         -25.2812   -0.1186   29.1305 O.3     1  UNL1       -0.3494
     35 O         -26.6196    4.2322   33.0172 O.3     1  UNL1       -0.3481
     36 F         -22.4849    0.2134   29.6832 F       1  UNL1       -0.2304
     37 C         -24.9825    2.7167   30.6741 C.2     1  UNL1        0.0036
     38 C         -26.5489    4.3888   31.7351 C.3     1  UNL1        0.1761
     39 C         -23.1238    2.0879   25.2236 C.3     1  UNL1        0.1851
     40 C         -25.5363    4.7586   33.7814 C.3     1  UNL1        0.1742
     41 C         -25.1714    4.1143   31.4274 C.3     1  UNL1        0.1666
     42 C         -24.6901    5.7245   32.9977 C.3     1  UNL1        0.1746
     43 C         -23.4863    1.6500   26.6628 C.3     1  UNL1        0.0731
     44 O         -21.7639    2.1433   25.2753 O.3     1  UNL1       -0.2203
     45 C         -23.8617    2.4137   29.6993 C.2     1  UNL1        0.0083
@<TRIPOS>BOND
     1     1    34    1
     2     2     7    1
     3     2     1    1
     4     3     2    2
     5     4     3    1
     6     4     5    2
     7     5     6    1
     8     6     7    2
     9     8     1    1
    10     8     9    1
    11     8    12    1
    12     9    10    1
    13    10    11    1
    14    12    11    1
    15    14    13    1
    16    14    15    1
    17    15    18    2
    18    16    17    1
    19    16    15    1
    20    19    14    2
    21    20    21    2
    22    20    19    1
    23    21    26    1
    24    22    21    1
    25    23    22    1
    26    24    23    1
    27    24    25    1
    28    26    27    1
    29    26    13    2
    30    28    32    1
    31    28    30    1
    32    29    30    1
    33    29    34    1
    34    30    36    1
    35    30    45    1
    36    31    42    1
    37    33    13    1
    38    33    29    1
    39    35    40    1
    40    38    35    1
    41    39    44    1
    42    41    37    1
    43    41    38    1
    44    41    31    1
    45    42    40    1
    46    43    39    1
    47    43    33    1
    48    43    28    1
    49    44    32    1
    50    45    37    2
