@<TRIPOS>MOLECULE
No_4688-gen_results/8p0m/2024-11-27-11-27-31/
 22 24 0 0 0
SMALL
GASTEIGER

@<TRIPOS>ATOM
      1 C         -28.0162   -0.8135   28.8779 C.ar    1  UNL1        0.0375
      2 C         -27.0636   -0.1189   28.6079 C.ar    1  UNL1        0.0031
      3 C         -26.8756    1.1325   28.9134 C.ar    1  UNL1        0.0002
      4 C         -27.9014    1.8066   29.6436 C.ar    1  UNL1        0.0031
      5 C         -29.0458   -0.2316   29.7181 C.ar    1  UNL1        0.1454
      6 C         -28.9402    1.0517   30.0597 C.ar    1  UNL1        0.0375
      7 O         -30.0593   -1.0632   30.0946 O.3     1  UNL1       -0.4504
      8 C         -25.6684    1.9362   28.4484 C.ar    1  UNL1        0.0008
      9 C         -24.8300    1.8451   27.8766 C.ar    1  UNL1        0.0114
     10 C         -23.6993    2.7703   27.5516 C.ar    1  UNL1        0.0577
     11 C         -25.7348    3.4201   29.0156 C.ar    1  UNL1        0.0001
     12 C         -24.9708    4.4364   28.4960 C.ar    1  UNL1        0.0009
     13 C         -23.8606    4.0492   27.7784 C.ar    1  UNL1        0.0114
     14 C         -30.4370   -1.0576   31.3695 C.2     1  UNL1        0.1795
     15 CL        -22.4056    2.2577   26.4801 Cl      1  UNL1       -0.0822
     16 C         -31.1245   -1.9968   31.7855 C.2     1  UNL1        0.0407
     17 C         -31.4627   -3.0561   30.9718 C.ar    1  UNL1        0.0031
     18 C         -31.9695   -4.2755   31.4217 C.ar    1  UNL1        0.0001
     19 C         -32.1459   -5.4038   30.5376 C.ar    1  UNL1        0.0000
     20 C         -31.8171   -5.2641   29.1302 C.ar    1  UNL1        0.0000
     21 C         -31.2855   -4.0443   28.7350 C.ar    1  UNL1        0.0000
     22 C         -31.0536   -3.0856   29.5821 C.ar    1  UNL1        0.0001
@<TRIPOS>BOND
     1     5     7    1
     2     3     8    1
     3     7    14    1
     4    10    15    1
     5    14    16    2
     6    16    17    1
     7    17    18   ar
     8    18    19   ar
     9    19    20   ar
    10    20    21   ar
    11    21    22   ar
    12    22    17   ar
    13     8     9   ar
    14     9    10   ar
    15    10    13   ar
    16    13    12   ar
    17    12    11   ar
    18    11     8   ar
    19     1     2   ar
    20     2     3   ar
    21     3     4   ar
    22     4     6   ar
    23     6     5   ar
    24     5     1   ar
