@<TRIPOS>MOLECULE
outputs/IAG933/test6/raw/output_4689_IAG933_linker_design_.xyz
 40 43 0 0 0
SMALL
GASTEIGER

@<TRIPOS>ATOM
      1 C         -24.8550   -1.0120   30.1430 C.3     1  UNL1        0.2535
      2 C         -24.9730   -2.5050   29.7880 C.2     1  UNL1        0.0275
      3 C         -23.9060   -3.1730   29.1460 C.2     1  UNL1       -0.0001
      4 C         -23.9890   -4.5490   28.8530 C.2     1  UNL1       -0.0002
      5 C         -25.1370   -5.2800   29.2050 C.2     1  UNL1       -0.0000
      6 C         -26.2320   -4.6110   29.7840 C.2     1  UNL1       -0.0002
      7 C         -26.1550   -3.2320   30.0650 C.2     1  UNL1       -0.0001
      8 C         -25.3870   -0.6790   31.5710 C.3     1  UNL1        0.1260
      9 C         -25.1890    0.7730   32.0280 C.3     1  UNL1        0.0237
     10 C         -25.3360    0.6840   33.5440 C.3     1  UNL1        0.0204
     11 C         -24.8290   -0.7150   33.9050 C.3     1  UNL1        0.0889
     12 N         -24.7580   -1.4810   32.6460 N.3     1  UNL1       -0.2147
     13 C         -25.6880    1.6140   26.4610 C.3     1  UNL1        0.2313
     14 C         -26.2500    2.9200   26.3950 C.2     1  UNL1        0.0973
     15 C         -25.6420    4.0930   27.1230 C.2     1  UNL1        0.2662
     16 N         -25.6140    5.2520   26.4490 N.am    1  UNL1       -0.1999
     17 C         -25.0260    6.4790   26.9630 C.3     1  UNL1        0.1388
     18 O         -25.1430    3.9660   28.2430 O.2     1  UNL1       -0.2685
     19 C         -27.4380    3.0910   25.6450 C.2     1  UNL1        0.1060
     20 N         -28.0750    2.0890   25.0030 N.2     1  UNL1       -0.2116
     21 C         -27.5430    0.8490   25.0790 C.2     1  UNL1        0.2384
     22 O         -28.1930   -0.2080   24.4770 O.2     1  UNL1       -0.4584
     23 C         -29.4600    0.0050   23.8660 C.3     1  UNL1        0.2423
     24 C         -30.0650   -1.3770   23.5730 C.3     1  UNL1        0.2292
     25 O         -30.7290   -1.8780   24.7210 O.3     1  UNL1       -0.2162
     26 C         -26.3540    0.5760   25.7770 C.3     1  UNL1        0.2824
     27 F         -25.8600   -0.6810   25.7950 F       1  UNL1       -0.2225
     28 C         -21.5023    0.8763   28.4435 C.3     1  UNL1        0.0851
     29 O         -23.1277    0.6778   29.9344 O.3     1  UNL1       -0.2181
     30 C         -23.0081    2.1786   26.5518 C.2     1  UNL1        0.3631
     31 O         -23.4669    3.0444   25.6633 O.2     1  UNL1       -0.2455
     32 C         -26.9773   -0.1516   28.5831 C.1     1  UNL1        0.1891
     33 C         -21.0821    1.3356   27.2784 C.3     1  UNL1        0.2114
     34 N         -24.9291    1.1140   27.5193 N.pl3   1  UNL1       -0.1706
     35 C         -23.6464    1.4526   27.6138 C.3     1  UNL1        0.2899
     36 N         -27.8665   -0.7344   28.7992 N.1     1  UNL1       -0.1833
     37 O         -21.7966    1.9229   26.3936 O.3     1  UNL1       -0.4456
     38 N         -24.7323   -0.0478   29.2245 N.2     1  UNL1       -0.0543
     39 C         -25.5575    0.3838   28.3710 C.2     1  UNL1        0.3901
     40 C         -22.8177    1.0519   28.6726 C.3     1  UNL1        0.2093
@<TRIPOS>BOND
     1     1    38    1
     2     2     7    1
     3     2     1    1
     4     3     2    2
     5     4     3    1
     6     4     5    2
     7     5     6    1
     8     6     7    2
     9     8     1    1
    10     8     9    1
    11     8    12    1
    12     9    10    1
    13    10    11    1
    14    12    11    1
    15    13    34    1
    16    14    13    1
    17    14    15    1
    18    15    18    2
    19    16    17    1
    20    16    15    1
    21    19    14    2
    22    20    21    2
    23    20    19    1
    24    21    26    1
    25    22    21    1
    26    23    22    1
    27    24    23    1
    28    24    25    1
    29    26    27    1
    30    26    13    1
    31    28    40    1
    32    30    35    1
    33    31    30    2
    34    32    36    3
    35    33    28    1
    36    34    39    1
    37    35    34    1
    38    35    40    1
    39    37    30    1
    40    37    33    1
    41    39    32    1
    42    39    38    2
    43    40    29    1
