@<TRIPOS>MOLECULE
outputs/IAG933/test6/raw/output_4690_IAG933_linker_design_.xyz
 44 50 0 0 0
SMALL
GASTEIGER

@<TRIPOS>ATOM
      1 C         -24.8550   -1.0120   30.1430 C.3     1  UNL1        0.0533
      2 C         -24.9730   -2.5050   29.7880 C.2     1  UNL1       -0.0198
      3 C         -23.9060   -3.1730   29.1460 C.2     1  UNL1       -0.0042
      4 C         -23.9890   -4.5490   28.8530 C.2     1  UNL1       -0.0003
      5 C         -25.1370   -5.2800   29.2050 C.2     1  UNL1       -0.0000
      6 C         -26.2320   -4.6110   29.7840 C.2     1  UNL1       -0.0003
      7 C         -26.1550   -3.2320   30.0650 C.2     1  UNL1       -0.0042
      8 C         -25.3870   -0.6790   31.5710 C.3     1  UNL1        0.0794
      9 C         -25.1890    0.7730   32.0280 C.3     1  UNL1        0.0327
     10 C         -25.3360    0.6840   33.5440 C.3     1  UNL1        0.0215
     11 C         -24.8290   -0.7150   33.9050 C.3     1  UNL1        0.0887
     12 N         -24.7580   -1.4810   32.6460 N.3     1  UNL1       -0.2190
     13 C         -25.6880    1.6140   26.4610 C.2     1  UNL1        0.0961
     14 C         -26.2500    2.9200   26.3950 C.2     1  UNL1        0.0904
     15 C         -25.6420    4.0930   27.1230 C.2     1  UNL1        0.2676
     16 N         -25.6140    5.2520   26.4490 N.am    1  UNL1       -0.1997
     17 C         -25.0260    6.4790   26.9630 C.3     1  UNL1        0.1388
     18 O         -25.1430    3.9660   28.2430 O.2     1  UNL1       -0.2683
     19 C         -27.4380    3.0910   25.6450 C.2     1  UNL1        0.1080
     20 N         -28.0750    2.0890   25.0030 N.2     1  UNL1       -0.2080
     21 C         -27.5430    0.8490   25.0790 C.2     1  UNL1        0.2546
     22 O         -28.1930   -0.2080   24.4770 O.2     1  UNL1       -0.4558
     23 C         -29.4600    0.0050   23.8660 C.3     1  UNL1        0.2426
     24 C         -30.0650   -1.3770   23.5730 C.3     1  UNL1        0.2292
     25 O         -30.7290   -1.8780   24.7210 O.3     1  UNL1       -0.2162
     26 C         -26.3540    0.5760   25.7770 C.2     1  UNL1        0.2068
     27 F         -25.8600   -0.6810   25.7950 F       1  UNL1       -0.1979
     28 C         -25.2639    5.6627   33.3872 C.3     1  UNL1        0.1448
     29 O         -25.4165    4.2740   33.6590 O.3     1  UNL1       -0.3536
     30 C         -24.6183    4.6406   31.1796 C.3     1  UNL1        0.1582
     31 O         -23.4171    1.9885   25.1630 O.2     1  UNL1       -0.2258
     32 N         -24.0431    1.4910   29.8937 N.3     1  UNL1       -0.2596
     33 C         -24.7584    3.2974   31.7101 C.3     1  UNL1        0.0748
     34 C         -24.6922    1.8622   31.2114 C.3     1  UNL1        0.0651
     35 C         -22.6853    0.5919   28.7120 C.3     1  UNL1        0.0931
     36 C         -21.5664    1.6032   28.1832 C.3     1  UNL1        0.2145
     37 C         -25.8669    3.6629   32.5291 C.3     1  UNL1        0.1460
     38 C         -23.9103    1.4272   28.4084 C.3     1  UNL1        0.1485
     39 C         -23.2286    1.6047   26.3653 C.2     1  UNL1        0.4097
     40 C         -24.3085    5.7171   32.2191 C.3     1  UNL1        0.0650
     41 O         -25.5797    4.9981   30.2658 O.3     1  UNL1       -0.2229
     42 N         -24.4396    1.2108   27.0517 N.am    1  UNL1       -0.2103
     43 O         -21.7943    1.6415   26.7567 O.3     1  UNL1       -0.4341
     44 C         -23.5117   -0.0172   29.9318 C.3     1  UNL1        0.0708
@<TRIPOS>BOND
     1     1     2    1
     2     1     8    1
     3     2     7    1
     4     3     2    2
     5     4     3    1
     6     4     5    2
     7     5     6    1
     8     6     7    2
     9     8     9    1
    10     8    12    1
    11     9    10    1
    12    10    11    1
    13    12    11    1
    14    13    42    1
    15    14    13    1
    16    14    15    1
    17    15    18    2
    18    16    17    1
    19    16    15    1
    20    19    14    2
    21    20    21    2
    22    20    19    1
    23    21    26    1
    24    22    21    1
    25    23    22    1
    26    24    23    1
    27    24    25    1
    28    26    27    1
    29    26    13    2
    30    28    29    1
    31    30    41    1
    32    30    33    1
    33    30    40    1
    34    31    39    2
    35    32    44    1
    36    32    34    1
    37    33    37    1
    38    34    33    1
    39    34     9    1
    40    35    44    1
    41    36    35    1
    42    37    29    1
    43    38    35    1
    44    38    32    1
    45    39    43    1
    46    39    42   am
    47    40    28    1
    48    42    38    1
    49    43    36    1
    50    44     1    1
