@<TRIPOS>MOLECULE
outputs/IAG933/test6/raw/output_4694_IAG933_linker_design_.xyz
 45 49 0 0 0
SMALL
GASTEIGER

@<TRIPOS>ATOM
      1 C         -24.8550   -1.0120   30.1430 C.3     1  UNL1        0.0437
      2 C         -24.9730   -2.5050   29.7880 C.2     1  UNL1       -0.0208
      3 C         -23.9060   -3.1730   29.1460 C.2     1  UNL1       -0.0042
      4 C         -23.9890   -4.5490   28.8530 C.2     1  UNL1       -0.0003
      5 C         -25.1370   -5.2800   29.2050 C.2     1  UNL1       -0.0000
      6 C         -26.2320   -4.6110   29.7840 C.2     1  UNL1       -0.0003
      7 C         -26.1550   -3.2320   30.0650 C.2     1  UNL1       -0.0042
      8 C         -25.3870   -0.6790   31.5710 C.3     1  UNL1        0.0774
      9 C         -25.1890    0.7730   32.0280 C.3     1  UNL1        0.0219
     10 C         -25.3360    0.6840   33.5440 C.3     1  UNL1        0.0205
     11 C         -24.8290   -0.7150   33.9050 C.3     1  UNL1        0.0887
     12 N         -24.7580   -1.4810   32.6460 N.3     1  UNL1       -0.2191
     13 C         -25.6880    1.6140   26.4610 C.3     1  UNL1        0.0862
     14 C         -26.2500    2.9200   26.3950 C.2     1  UNL1        0.0562
     15 C         -25.6420    4.0930   27.1230 C.2     1  UNL1        0.2625
     16 N         -25.6140    5.2520   26.4490 N.am    1  UNL1       -0.2000
     17 C         -25.0260    6.4790   26.9630 C.3     1  UNL1        0.1388
     18 O         -25.1430    3.9660   28.2430 O.2     1  UNL1       -0.2687
     19 C         -27.4380    3.0910   25.6450 C.2     1  UNL1        0.1022
     20 N         -28.0750    2.0890   25.0030 N.2     1  UNL1       -0.2119
     21 C         -27.5430    0.8490   25.0790 C.2     1  UNL1        0.2341
     22 O         -28.1930   -0.2080   24.4770 O.2     1  UNL1       -0.4585
     23 C         -29.4600    0.0050   23.8660 C.3     1  UNL1        0.2423
     24 C         -30.0650   -1.3770   23.5730 C.3     1  UNL1        0.2292
     25 O         -30.7290   -1.8780   24.7210 O.3     1  UNL1       -0.2162
     26 C         -26.3540    0.5760   25.7770 C.3     1  UNL1        0.2413
     27 F         -25.8600   -0.6810   25.7950 F       1  UNL1       -0.2268
     28 C         -21.8861    0.8878   28.7751 C.3     1  UNL1        0.0540
     29 C         -25.7832    1.6950   29.7735 C.3     1  UNL1        0.0204
     30 C         -22.2684    2.0366   27.7700 C.3     1  UNL1        0.2219
     31 F         -21.5864    1.8074   26.5958 F       1  UNL1       -0.2191
     32 C         -27.2528    3.4551   34.7652 C.2     1  UNL1        0.1206
     33 C         -27.2653    3.0521   32.3710 C.2     1  UNL1       -0.0015
     34 C         -24.3753    1.2424   28.9792 C.3     1  UNL1        0.0603
     35 O         -27.5288    2.4414   35.6318 O.2     1  UNL1       -0.4753
     36 C         -28.7945    2.2674   36.2986 C.3     1  UNL1        0.2520
     37 C         -24.2197    1.4153   26.7414 C.3     1  UNL1        0.0822
     38 C         -23.0966    0.6011   29.7002 C.3     1  UNL1        0.0204
     39 C         -27.9182    3.4480   33.5189 C.2     1  UNL1        0.0324
     40 C         -25.1847    4.6513   34.1317 C.2     1  UNL1       -0.0185
     41 C         -24.9863    3.9799   32.9066 C.2     1  UNL1       -0.0084
     42 C         -26.1709    4.2688   35.0785 C.3     1  UNL1        0.0899
     43 N         -23.6872    2.0027   27.7729 N.3     1  UNL1       -0.2474
     44 C         -25.8899    3.1117   32.2321 C.2     1  UNL1       -0.0226
     45 C         -25.5387    1.9551   31.2847 C.3     1  UNL1        0.0250
@<TRIPOS>BOND
     1     2     7    1
     2     2     1    1
     3     3     2    2
     4     4     3    1
     5     4     5    2
     6     5     6    1
     7     6     7    2
     8     8     1    1
     9     8     9    1
    10     8    12    1
    11     9    45    1
    12     9    10    1
    13    10    11    1
    14    12    11    1
    15    13    37    1
    16    14    13    1
    17    14    15    1
    18    15    18    2
    19    16    17    1
    20    16    15    1
    21    19    14    2
    22    20    21    2
    23    20    19    1
    24    21    26    1
    25    22    21    1
    26    23    22    1
    27    24    23    1
    28    24    25    1
    29    26    27    1
    30    26    13    1
    31    28    38    1
    32    30    31    1
    33    30    43    1
    34    30    28    1
    35    32    42    1
    36    32    35    1
    37    33    39    1
    38    34    38    1
    39    34    29    1
    40    35    36    1
    41    37    43    1
    42    39    32    2
    43    40    42    1
    44    41    40    2
    45    43    34    1
    46    44    33    2
    47    44    41    1
    48    45    29    1
    49    45    44    1
