@<TRIPOS>MOLECULE
outputs/IAG933/test6/raw/output_4696_IAG933_linker_design_.xyz
 43 46 0 0 0
SMALL
GASTEIGER

@<TRIPOS>ATOM
      1 C         -24.8550   -1.0120   30.1430 C.3     1  UNL1        0.1541
      2 C         -24.9730   -2.5050   29.7880 C.2     1  UNL1        0.0059
      3 C         -23.9060   -3.1730   29.1460 C.2     1  UNL1       -0.0019
      4 C         -23.9890   -4.5490   28.8530 C.2     1  UNL1       -0.0002
      5 C         -25.1370   -5.2800   29.2050 C.2     1  UNL1       -0.0000
      6 C         -26.2320   -4.6110   29.7840 C.2     1  UNL1       -0.0002
      7 C         -26.1550   -3.2320   30.0650 C.2     1  UNL1       -0.0019
      8 C         -25.3870   -0.6790   31.5710 C.3     1  UNL1        0.1128
      9 C         -25.1890    0.7730   32.0280 C.3     1  UNL1        0.1000
     10 C         -25.3360    0.6840   33.5440 C.3     1  UNL1        0.0295
     11 C         -24.8290   -0.7150   33.9050 C.3     1  UNL1        0.0893
     12 N         -24.7580   -1.4810   32.6460 N.3     1  UNL1       -0.2161
     13 C         -25.6880    1.6140   26.4610 C.3     1  UNL1        0.0777
     14 C         -26.2500    2.9200   26.3950 C.2     1  UNL1        0.0552
     15 C         -25.6420    4.0930   27.1230 C.2     1  UNL1        0.2625
     16 N         -25.6140    5.2520   26.4490 N.am    1  UNL1       -0.2000
     17 C         -25.0260    6.4790   26.9630 C.3     1  UNL1        0.1388
     18 O         -25.1430    3.9660   28.2430 O.2     1  UNL1       -0.2687
     19 C         -27.4380    3.0910   25.6450 C.2     1  UNL1        0.1022
     20 N         -28.0750    2.0890   25.0030 N.2     1  UNL1       -0.2119
     21 C         -27.5430    0.8490   25.0790 C.2     1  UNL1        0.2341
     22 O         -28.1930   -0.2080   24.4770 O.2     1  UNL1       -0.4585
     23 C         -29.4600    0.0050   23.8660 C.3     1  UNL1        0.2423
     24 C         -30.0650   -1.3770   23.5730 C.3     1  UNL1        0.2292
     25 O         -30.7290   -1.8780   24.7210 O.3     1  UNL1       -0.2162
     26 C         -26.3540    0.5760   25.7770 C.3     1  UNL1        0.2404
     27 F         -25.8600   -0.6810   25.7950 F       1  UNL1       -0.2269
     28 O         -23.5312   -0.4749   30.1814 O.3     1  UNL1       -0.3486
     29 O         -23.9244    2.7886   31.7348 O.2     1  UNL1       -0.2716
     30 O         -23.0987    2.1884   26.6009 O.3     1  UNL1       -0.3961
     31 C         -21.4003   -0.8259   29.3132 C.3     1  UNL1        0.0372
     32 C         -22.5637   -0.1600   29.3225 C.3     1  UNL1        0.1391
     33 C         -23.4273    1.4606   27.5562 C.2     1  UNL1        0.1267
     34 F         -20.4662    1.9469   27.3873 F       1  UNL1       -0.2326
     35 O         -23.4601    1.1953   24.6140 O.co2   1  UNL1       -0.1997
     36 C         -22.5392    1.6685   25.4641 C.2     1  UNL1        0.5563
     37 C         -20.5296    0.0852   28.6821 C.3     1  UNL1        0.0426
     38 C         -22.5136    0.8362   28.4253 C.2     1  UNL1        0.0449
     39 C         -21.0902    0.9373   28.1741 C.3     1  UNL1        0.1843
     40 C         -24.5751    1.9272   31.2797 C.2     1  UNL1        0.2618
     41 O         -21.3446    1.8233   25.1518 O.co2   1  UNL1       -0.1997
     42 N         -24.6849    1.9316   29.9444 N.am    1  UNL1       -0.0878
     43 C         -24.8665    1.1360   27.4830 C.3     1  UNL1        0.0721
@<TRIPOS>BOND
     1     1    28    1
     2     2     7    1
     3     2     1    1
     4     3     2    2
     5     4     3    1
     6     4     5    2
     7     5     6    1
     8     6     7    2
     9     8     1    1
    10     8     9    1
    11     8    12    1
    12     9    40    1
    13     9    10    1
    14    10    11    1
    15    12    11    1
    16    13    43    1
    17    14    13    1
    18    14    15    1
    19    15    18    2
    20    16    17    1
    21    16    15    1
    22    19    14    2
    23    20    21    2
    24    20    19    1
    25    21    26    1
    26    22    21    1
    27    23    22    1
    28    24    23    1
    29    24    25    1
    30    26    27    1
    31    26    13    1
    32    30    33    1
    33    31    32    1
    34    32    28    1
    35    33    38    2
    36    35    36   ar
    37    36    30    1
    38    37    31    1
    39    38    32    1
    40    39    34    1
    41    39    38    1
    42    39    37    1
    43    40    29    2
    44    41    36   ar
    45    42    40    1
    46    43    33    1
