@<TRIPOS>MOLECULE
outputs/IAG933/test6/raw/output_47_IAG933_linker_design_.xyz
 42 45 0 0 0
SMALL
GASTEIGER

@<TRIPOS>ATOM
      1 C         -24.8550   -1.0120   30.1430 C.3     1  UNL1        0.0438
      2 C         -24.9730   -2.5050   29.7880 C.2     1  UNL1       -0.0208
      3 C         -23.9060   -3.1730   29.1460 C.2     1  UNL1       -0.0042
      4 C         -23.9890   -4.5490   28.8530 C.2     1  UNL1       -0.0003
      5 C         -25.1370   -5.2800   29.2050 C.2     1  UNL1       -0.0000
      6 C         -26.2320   -4.6110   29.7840 C.2     1  UNL1       -0.0003
      7 C         -26.1550   -3.2320   30.0650 C.2     1  UNL1       -0.0042
      8 C         -25.3870   -0.6790   31.5710 C.3     1  UNL1        0.0785
      9 C         -25.1890    0.7730   32.0280 C.3     1  UNL1        0.0339
     10 C         -25.3360    0.6840   33.5440 C.3     1  UNL1        0.0216
     11 C         -24.8290   -0.7150   33.9050 C.3     1  UNL1        0.0887
     12 N         -24.7580   -1.4810   32.6460 N.3     1  UNL1       -0.2191
     13 C         -25.6880    1.6140   26.4610 C.2     1  UNL1        0.0303
     14 C         -26.2500    2.9200   26.3950 C.2     1  UNL1        0.0738
     15 C         -25.6420    4.0930   27.1230 C.2     1  UNL1        0.2662
     16 N         -25.6140    5.2520   26.4490 N.am    1  UNL1       -0.1997
     17 C         -25.0260    6.4790   26.9630 C.3     1  UNL1        0.1388
     18 O         -25.1430    3.9660   28.2430 O.2     1  UNL1       -0.2683
     19 C         -27.4380    3.0910   25.6450 C.2     1  UNL1        0.1065
     20 N         -28.0750    2.0890   25.0030 N.2     1  UNL1       -0.2081
     21 C         -27.5430    0.8490   25.0790 C.2     1  UNL1        0.2530
     22 O         -28.1930   -0.2080   24.4770 O.2     1  UNL1       -0.4558
     23 C         -29.4600    0.0050   23.8660 C.3     1  UNL1        0.2426
     24 C         -30.0650   -1.3770   23.5730 C.3     1  UNL1        0.2292
     25 O         -30.7290   -1.8780   24.7210 O.3     1  UNL1       -0.2162
     26 C         -26.3540    0.5760   25.7770 C.2     1  UNL1        0.1904
     27 F         -25.8600   -0.6810   25.7950 F       1  UNL1       -0.1995
     28 N         -23.8334    1.3089   28.2066 N.3     1  UNL1       -0.2702
     29 C         -26.0089    1.4502   29.5900 C.3     1  UNL1        0.0348
     30 C         -26.0693    1.7279   31.1314 C.3     1  UNL1        0.0756
     31 C         -26.3999    6.1219   33.6540 C.3     1  UNL1        0.0344
     32 C         -23.2283    1.5133   25.7943 C.3     1  UNL1        0.0206
     33 C         -25.6009    3.8738   32.6634 C.3     1  UNL1        0.1189
     34 O         -24.3709    5.9493   32.5998 O.3     1  UNL1       -0.2242
     35 C         -24.3529    1.3851   27.0023 C.3     1  UNL1        0.0826
     36 N         -25.6028    3.0959   31.3712 N.3     1  UNL1       -0.2168
     37 C         -21.5041    1.2552   27.5550 C.3     1  UNL1        0.0174
     38 C         -25.6128    5.4287   32.5421 C.3     1  UNL1        0.1428
     39 C         -21.8432    1.9963   26.3143 C.3     1  UNL1        0.0032
     40 C         -22.4327    1.1279   28.4787 C.3     1  UNL1        0.0723
     41 C         -26.2320    5.8572   31.2109 C.3     1  UNL1        0.0344
     42 C         -24.5483    1.3195   29.3816 C.3     1  UNL1        0.0738
@<TRIPOS>BOND
     1     2     7    1
     2     2     1    1
     3     3     2    2
     4     4     3    1
     5     4     5    2
     6     5     6    1
     7     6     7    2
     8     8     1    1
     9     8     9    1
    10     8    12    1
    11     9    30    1
    12     9    10    1
    13    10    11    1
    14    12    11    1
    15    14    13    1
    16    14    15    1
    17    15    18    2
    18    16    17    1
    19    16    15    1
    20    19    14    2
    21    20    21    2
    22    20    19    1
    23    21    26    1
    24    22    21    1
    25    23    22    1
    26    24    23    1
    27    24    25    1
    28    26    27    1
    29    26    13    2
    30    28    40    1
    31    28    42    1
    32    30    29    1
    33    30    36    1
    34    32    39    1
    35    32    35    1
    36    35    13    1
    37    35    28    1
    38    36    33    1
    39    37    40    1
    40    38    34    1
    41    38    33    1
    42    38    31    1
    43    39    37    1
    44    41    38    1
    45    42    29    1
