@<TRIPOS>MOLECULE
No_4702-gen_results/8p0m/2024-11-27-11-27-31/
 10 10 0 0 0
SMALL
GASTEIGER

@<TRIPOS>ATOM
      1 C         -28.0162   -0.8135   28.8779 C.3     1  UNL1        0.1211
      2 C         -27.0636   -0.1189   28.6079 C.ar    1  UNL1       -0.0059
      3 C         -27.0010    0.6913   27.4910 C.ar    1  UNL1       -0.0030
      4 C         -25.8548    1.4825   27.0830 C.ar    1  UNL1        0.0013
      5 C         -24.6901    1.4526   27.8807 C.ar    1  UNL1        0.0209
      6 C         -24.7379    0.6010   29.0416 C.ar    1  UNL1        0.0013
      7 C         -25.8234   -0.1688   29.3887 C.ar    1  UNL1       -0.0030
      8 CL        -28.8582   -0.6607   30.1382 Cl      1  UNL1       -0.1085
      9 C         -23.5123    2.2009   27.5698 C.2     1  UNL1        0.1221
     10 N         -22.7408    2.4599   28.5769 N.2     1  UNL1       -0.1464
@<TRIPOS>BOND
     1     1     2    1
     2     1     8    1
     3     5     9    1
     4     9    10    2
     5     2     3   ar
     6     3     4   ar
     7     4     5   ar
     8     5     6   ar
     9     6     7   ar
    10     7     2   ar
