@<TRIPOS>MOLECULE
outputs/IAG933/test6/raw/output_4703_IAG933_linker_design_.xyz
 44 49 0 0 0
SMALL
GASTEIGER

@<TRIPOS>ATOM
      1 C         -24.8550   -1.0120   30.1430 C.3     1  UNL1        0.0708
      2 C         -24.9730   -2.5050   29.7880 C.2     1  UNL1       -0.0184
      3 C         -23.9060   -3.1730   29.1460 C.2     1  UNL1       -0.0041
      4 C         -23.9890   -4.5490   28.8530 C.2     1  UNL1       -0.0003
      5 C         -25.1370   -5.2800   29.2050 C.2     1  UNL1       -0.0000
      6 C         -26.2320   -4.6110   29.7840 C.2     1  UNL1       -0.0003
      7 C         -26.1550   -3.2320   30.0650 C.2     1  UNL1       -0.0041
      8 C         -25.3870   -0.6790   31.5710 C.3     1  UNL1        0.0796
      9 C         -25.1890    0.7730   32.0280 C.3     1  UNL1        0.0193
     10 C         -25.3360    0.6840   33.5440 C.3     1  UNL1        0.0202
     11 C         -24.8290   -0.7150   33.9050 C.3     1  UNL1        0.0887
     12 N         -24.7580   -1.4810   32.6460 N.3     1  UNL1       -0.2190
     13 C         -25.6880    1.6140   26.4610 C.3     1  UNL1        0.0903
     14 C         -26.2500    2.9200   26.3950 C.2     1  UNL1        0.0565
     15 C         -25.6420    4.0930   27.1230 C.2     1  UNL1        0.2625
     16 N         -25.6140    5.2520   26.4490 N.am    1  UNL1       -0.2000
     17 C         -25.0260    6.4790   26.9630 C.3     1  UNL1        0.1388
     18 O         -25.1430    3.9660   28.2430 O.2     1  UNL1       -0.2687
     19 C         -27.4380    3.0910   25.6450 C.2     1  UNL1        0.1022
     20 N         -28.0750    2.0890   25.0030 N.2     1  UNL1       -0.2119
     21 C         -27.5430    0.8490   25.0790 C.2     1  UNL1        0.2341
     22 O         -28.1930   -0.2080   24.4770 O.2     1  UNL1       -0.4585
     23 C         -29.4600    0.0050   23.8660 C.3     1  UNL1        0.2423
     24 C         -30.0650   -1.3770   23.5730 C.3     1  UNL1        0.2292
     25 O         -30.7290   -1.8780   24.7210 O.3     1  UNL1       -0.2162
     26 C         -26.3540    0.5760   25.7770 C.3     1  UNL1        0.2417
     27 F         -25.8600   -0.6810   25.7950 F       1  UNL1       -0.2268
     28 C         -29.5676    1.6484   30.4950 C.3     1  UNL1        0.0015
     29 N         -25.4685    0.9656   28.6593 N.3     1  UNL1       -0.1986
     30 N         -26.5350    0.0422   28.7229 N.3     1  UNL1       -0.2004
     31 C         -24.9172    1.2530   27.4088 C.3     1  UNL1        0.1045
     32 C         -23.0973    0.0480   28.5089 C.2     1  UNL1       -0.0021
     33 C         -20.8546    0.6889   28.3057 C.2     1  UNL1        0.0008
     34 CL        -22.8221    2.7199   25.4885 Cl      1  UNL1       -0.0825
     35 C         -27.8062    0.2938   29.0958 C.3     1  UNL1        0.1071
     36 C         -28.9494   -0.5408   28.7770 C.3     1  UNL1        0.1993
     37 O         -29.4230   -0.1946   27.4194 O.3     1  UNL1       -0.2189
     38 C         -23.5233    0.9905   27.5632 C.2     1  UNL1        0.0046
     39 C         -28.3510    1.7374   29.6413 C.3     1  UNL1        0.0187
     40 C         -29.7493    2.2693   29.2320 C.3     1  UNL1        0.0015
     41 C         -21.7906   -0.0467   28.9859 C.2     1  UNL1       -0.0002
     42 C         -25.5608    0.0632   29.2406 C.3     1  UNL1        0.1506
     43 C         -21.2015    1.5035   27.2288 C.2     1  UNL1        0.0111
     44 C         -22.4994    1.6497   26.8356 C.2     1  UNL1        0.0550
@<TRIPOS>BOND
     1     1     2    1
     2     2     7    1
     3     3     2    2
     4     4     3    1
     5     4     5    2
     6     5     6    1
     7     6     7    2
     8     8     1    1
     9     8     9    1
    10     8    12    1
    11     9    10    1
    12    10    11    1
    13    12    11    1
    14    13    31    1
    15    14    13    1
    16    14    15    1
    17    15    18    2
    18    16    17    1
    19    16    15    1
    20    19    14    2
    21    20    21    2
    22    20    19    1
    23    21    26    1
    24    22    21    1
    25    23    22    1
    26    24    23    1
    27    24    25    1
    28    26    27    1
    29    26    13    1
    30    29    30    1
    31    29    42    1
    32    30    35    1
    33    30    42    1
    34    31    38    1
    35    31    29    1
    36    32    41    1
    37    33    41    2
    38    34    44    1
    39    35    36    1
    40    35    39    1
    41    37    36    1
    42    38    32    2
    43    39    28    1
    44    40    39    1
    45    40    28    1
    46    42     1    1
    47    43    33    1
    48    44    43    2
    49    44    38    1
