@<TRIPOS>MOLECULE
No_4705-gen_results/8p0m/2024-11-27-11-27-31/
 7 7 0 0 0
SMALL
GASTEIGER

@<TRIPOS>ATOM
      1 F         -28.0727   -1.2542   28.5316 F       1  UNL1       -0.2042
      2 C         -27.3591   -0.3792   28.7224 C.ar    1  UNL1        0.1401
      3 C         -27.7014    0.7608   29.1249 C.ar    1  UNL1        0.0296
      4 C         -25.9284   -0.8245   28.8472 C.ar    1  UNL1        0.0296
      5 C         -24.9162    0.2122   29.0764 C.ar    1  UNL1        0.0023
      6 C         -26.6909    1.8339   29.3709 C.ar    1  UNL1        0.0023
      7 C         -25.3428    1.5126   29.3595 C.ar    1  UNL1        0.0001
@<TRIPOS>BOND
     1     1     2    1
     2     2     3   ar
     3     3     6   ar
     4     6     7   ar
     5     7     5   ar
     6     5     4   ar
     7     4     2   ar
