@<TRIPOS>MOLECULE
outputs/IAG933/test6/raw/output_4706_IAG933_linker_design_.xyz
 44 48 0 0 0
SMALL
GASTEIGER

@<TRIPOS>ATOM
      1 C         -24.8550   -1.0120   30.1430 C.3     1  UNL1        0.0981
      2 C         -24.9730   -2.5050   29.7880 C.2     1  UNL1       -0.0064
      3 C         -23.9060   -3.1730   29.1460 C.2     1  UNL1       -0.0029
      4 C         -23.9890   -4.5490   28.8530 C.2     1  UNL1       -0.0003
      5 C         -25.1370   -5.2800   29.2050 C.2     1  UNL1       -0.0000
      6 C         -26.2320   -4.6110   29.7840 C.2     1  UNL1       -0.0003
      7 C         -26.1550   -3.2320   30.0650 C.2     1  UNL1       -0.0029
      8 C         -25.3870   -0.6790   31.5710 C.3     1  UNL1        0.0916
      9 C         -25.1890    0.7730   32.0280 C.3     1  UNL1        0.0206
     10 C         -25.3360    0.6840   33.5440 C.3     1  UNL1        0.0203
     11 C         -24.8290   -0.7150   33.9050 C.3     1  UNL1        0.0888
     12 N         -24.7580   -1.4810   32.6460 N.3     1  UNL1       -0.2178
     13 C         -25.6880    1.6140   26.4610 C.2     1  UNL1        0.0194
     14 C         -26.2500    2.9200   26.3950 C.2     1  UNL1        0.0727
     15 C         -25.6420    4.0930   27.1230 C.2     1  UNL1        0.2661
     16 N         -25.6140    5.2520   26.4490 N.am    1  UNL1       -0.1997
     17 C         -25.0260    6.4790   26.9630 C.3     1  UNL1        0.1388
     18 O         -25.1430    3.9660   28.2430 O.2     1  UNL1       -0.2683
     19 C         -27.4380    3.0910   25.6450 C.2     1  UNL1        0.1064
     20 N         -28.0750    2.0890   25.0030 N.2     1  UNL1       -0.2081
     21 C         -27.5430    0.8490   25.0790 C.2     1  UNL1        0.2530
     22 O         -28.1930   -0.2080   24.4770 O.2     1  UNL1       -0.4558
     23 C         -29.4600    0.0050   23.8660 C.3     1  UNL1        0.2426
     24 C         -30.0650   -1.3770   23.5730 C.3     1  UNL1        0.2292
     25 O         -30.7290   -1.8780   24.7210 O.3     1  UNL1       -0.2162
     26 C         -26.3540    0.5760   25.7770 C.2     1  UNL1        0.1892
     27 F         -25.8600   -0.6810   25.7950 F       1  UNL1       -0.1996
     28 C         -23.2716    1.4822   26.8480 C.3     1  UNL1        0.1631
     29 C         -27.0692    0.3215   29.1733 C.3     1  UNL1        0.1767
     30 C         -29.3850   -0.2157   29.0213 C.3     1  UNL1        0.1757
     31 C         -22.7251    3.0767   25.0513 C.3     1  UNL1        0.1742
     32 O         -22.1151    0.3199   29.9341 O.3     1  UNL1       -0.3484
     33 C         -24.6029    0.6504   28.5217 C.3     1  UNL1        0.0961
     34 C         -22.4847    0.0785   28.4286 C.3     1  UNL1        0.1858
     35 C         -22.0031    1.4003   27.7904 C.3     1  UNL1        0.2258
     36 N         -25.6164   -0.1701   29.1947 N.3     1  UNL1       -0.2456
     37 C         -20.1744    0.3288   28.3157 C.2     1  UNL1        0.4182
     38 C         -23.1954    0.8116   29.4128 C.3     1  UNL1        0.1610
     39 O         -28.0375   -0.6803   28.9075 O.3     1  UNL1       -0.3382
     40 O         -22.9561    1.8818   25.5919 O.3     1  UNL1       -0.3494
     41 C         -24.5508    1.2642   27.3080 C.3     1  UNL1        0.0729
     42 O         -20.6626    1.4926   27.8100 O.3     1  UNL1       -0.4395
     43 O         -20.6707   -0.4947   28.2597 O.2     1  UNL1       -0.2375
     44 C         -27.3617    1.7878   29.6213 C.3     1  UNL1        0.0508
@<TRIPOS>BOND
     1     1    36    1
     2     2     7    1
     3     2     1    1
     4     3     2    2
     5     4     3    1
     6     4     5    2
     7     5     6    1
     8     6     7    2
     9     8     1    1
    10     8     9    1
    11     8    12    1
    12     9    10    1
    13    10    11    1
    14    12    11    1
    15    14    13    1
    16    14    15    1
    17    15    18    2
    18    16    17    1
    19    16    15    1
    20    19    14    2
    21    20    21    2
    22    20    19    1
    23    21    26    1
    24    22    21    1
    25    23    22    1
    26    24    23    1
    27    24    25    1
    28    26    27    1
    29    26    13    2
    30    28    40    1
    31    28    41    1
    32    28    35    1
    33    29    36    1
    34    29    44    1
    35    31    40    1
    36    33    36    1
    37    33    38    1
    38    34    38    1
    39    34    32    1
    40    35    42    1
    41    35    34    1
    42    38    32    1
    43    39    30    1
    44    39    29    1
    45    41    13    1
    46    41    33    1
    47    42    37    1
    48    43    37    2
