@<TRIPOS>MOLECULE
outputs/IAG933/test6/raw/output_4708_IAG933_linker_design_.xyz
 46 50 0 0 0
SMALL
GASTEIGER

@<TRIPOS>ATOM
      1 C         -24.8550   -1.0120   30.1430 C.3     1  UNL1        0.0966
      2 C         -24.9730   -2.5050   29.7880 C.2     1  UNL1       -0.0064
      3 C         -23.9060   -3.1730   29.1460 C.2     1  UNL1       -0.0029
      4 C         -23.9890   -4.5490   28.8530 C.2     1  UNL1       -0.0003
      5 C         -25.1370   -5.2800   29.2050 C.2     1  UNL1       -0.0000
      6 C         -26.2320   -4.6110   29.7840 C.2     1  UNL1       -0.0003
      7 C         -26.1550   -3.2320   30.0650 C.2     1  UNL1       -0.0029
      8 C         -25.3870   -0.6790   31.5710 C.3     1  UNL1        0.0919
      9 C         -25.1890    0.7730   32.0280 C.3     1  UNL1        0.0265
     10 C         -25.3360    0.6840   33.5440 C.3     1  UNL1        0.0207
     11 C         -24.8290   -0.7150   33.9050 C.3     1  UNL1        0.0888
     12 N         -24.7580   -1.4810   32.6460 N.3     1  UNL1       -0.2177
     13 C         -25.6880    1.6140   26.4610 C.2     1  UNL1        0.0175
     14 C         -26.2500    2.9200   26.3950 C.2     1  UNL1        0.0726
     15 C         -25.6420    4.0930   27.1230 C.2     1  UNL1        0.2661
     16 N         -25.6140    5.2520   26.4490 N.am    1  UNL1       -0.1997
     17 C         -25.0260    6.4790   26.9630 C.3     1  UNL1        0.1388
     18 O         -25.1430    3.9660   28.2430 O.2     1  UNL1       -0.2683
     19 C         -27.4380    3.0910   25.6450 C.2     1  UNL1        0.1064
     20 N         -28.0750    2.0890   25.0030 N.2     1  UNL1       -0.2081
     21 C         -27.5430    0.8490   25.0790 C.2     1  UNL1        0.2530
     22 O         -28.1930   -0.2080   24.4770 O.2     1  UNL1       -0.4558
     23 C         -29.4600    0.0050   23.8660 C.3     1  UNL1        0.2426
     24 C         -30.0650   -1.3770   23.5730 C.3     1  UNL1        0.2292
     25 O         -30.7290   -1.8780   24.7210 O.3     1  UNL1       -0.2162
     26 C         -26.3540    0.5760   25.7770 C.2     1  UNL1        0.1892
     27 F         -25.8600   -0.6810   25.7950 F       1  UNL1       -0.1996
     28 C         -24.6046    0.8541   28.6709 C.3     1  UNL1        0.0845
     29 C         -23.2340    0.3997   29.1815 C.3     1  UNL1        0.1310
     30 C         -23.0545    1.8558   25.2623 C.2     1  UNL1        0.3647
     31 O         -18.9272    2.3523   28.2027 O.3     1  UNL1       -0.2204
     32 C         -22.0570   -0.3856   29.2601 C.2     1  UNL1        0.1664
     33 O         -24.4543    4.4283   31.9649 O.2     1  UNL1       -0.2960
     34 O         -22.1328   -1.1517   30.1036 O.2     1  UNL1       -0.2946
     35 C         -20.7889    0.0078   28.5606 C.3     1  UNL1        0.0686
     36 C         -24.5234    1.3803   27.2467 C.3     1  UNL1        0.0520
     37 C         -26.2117    3.6494   33.2363 C.3     1  UNL1        0.0722
     38 O         -22.1575    2.6092   24.8038 O.co2   1  UNL1       -0.2457
     39 C         -23.3090    1.7554   26.6788 C.3     1  UNL1        0.1089
     40 C         -19.6140    1.6345   27.2462 C.3     1  UNL1        0.1825
     41 C         -25.0996    3.4477   32.1637 C.2     1  UNL1        0.1511
     42 C         -20.9016    1.0542   27.5332 C.3     1  UNL1        0.0409
     43 C         -24.8561    2.1915   31.4477 C.3     1  UNL1        0.0660
     44 C         -22.0163    2.0664   27.5386 C.3     1  UNL1        0.0147
     45 N         -24.3076   -0.1593   29.3791 N.3     1  UNL1       -0.2626
     46 O         -23.7078    1.1174   24.4462 O.co2   1  UNL1       -0.2457
@<TRIPOS>BOND
     1     1     2    1
     2     2     7    1
     3     3     2    2
     4     4     3    1
     5     4     5    2
     6     5     6    1
     7     6     7    2
     8     8     1    1
     9     8     9    1
    10     8    12    1
    11     9    43    1
    12     9    10    1
    13    10    11    1
    14    12    11    1
    15    14    13    1
    16    14    15    1
    17    15    18    2
    18    16    17    1
    19    16    15    1
    20    19    14    2
    21    20    21    2
    22    20    19    1
    23    21    26    1
    24    22    21    1
    25    23    22    1
    26    24    23    1
    27    24    25    1
    28    26    27    1
    29    26    13    2
    30    28    29    1
    31    28    45    1
    32    29    32    1
    33    29    45    1
    34    32    34    2
    35    33    41    2
    36    35    32    1
    37    36    13    1
    38    36    28    1
    39    38    30   ar
    40    39    30    1
    41    39    36    1
    42    39    44    1
    43    40    31    1
    44    41    37    1
    45    42    40    1
    46    42    44    1
    47    42    35    1
    48    43    41    1
    49    45     1    1
    50    46    30   ar
