@<TRIPOS>MOLECULE
No_4709-gen_results/8p0m/2024-11-27-11-27-31/
 35 38 0 0 0
SMALL
GASTEIGER

@<TRIPOS>ATOM
      1 C         -28.0162   -0.8135   28.8779 C.ar    1  UNL1        0.0176
      2 C         -28.4690   -0.7850   29.8287 C.ar    1  UNL1        0.0127
      3 C         -26.5455   -0.8762   28.8500 C.ar    1  UNL1        0.0781
      4 C         -25.8041   -1.0324   30.0571 C.ar    1  UNL1        0.0552
      5 C         -24.3697   -1.0998   30.0718 C.2     1  UNL1        0.1970
      6 C         -27.9902   -1.0051   31.2092 C.ar    1  UNL1        0.0579
      7 C         -26.5616   -1.1368   31.2600 C.ar    1  UNL1        0.0159
      8 C         -23.7014    0.1528   29.9480 C.ar    1  UNL1        0.0434
      9 C         -24.0085    1.2300   30.6175 C.ar    1  UNL1        0.0240
     10 C         -22.5966    0.2809   28.9979 C.ar    1  UNL1        0.0408
     11 C         -22.1240    1.4483   28.4812 C.ar    1  UNL1        0.1698
     12 C         -23.6086    2.5613   30.1675 C.ar    1  UNL1        0.1005
     13 N         -22.6101    2.5956   29.1859 N.ar    1  UNL1       -0.2259
     14 N         -25.7820   -0.7438   27.6910 N.am    1  UNL1       -0.1608
     15 C         -25.7028    0.3836   26.8257 C.2     1  UNL1        0.3450
     16 O         -26.2328    1.4052   27.2373 O.2     1  UNL1       -0.2488
     17 N         -24.9570    0.3226   25.7909 N.am    1  UNL1       -0.1662
     18 N         -21.2626    1.6542   27.5761 N.pl3   1  UNL1       -0.1072
     19 CL        -28.8672   -1.1479   32.6326 Cl      1  UNL1       -0.0822
     20 C         -24.6904    1.4861   24.9267 C.3     1  UNL1        0.1924
     21 O         -23.7869   -2.1750   30.1961 O.2     1  UNL1       -0.2865
     22 C         -23.2111    1.6147   24.8995 C.2     1  UNL1        0.0101
     23 C         -22.7443    2.8720   25.5183 C.2     1  UNL1       -0.0061
     24 C         -23.9411    3.4704   26.0918 C.3     1  UNL1        0.1188
     25 C         -24.1917    4.6270   26.5663 C.ar    1  UNL1       -0.0023
     26 C         -25.4317    5.0499   27.2122 C.ar    1  UNL1       -0.0027
     27 N         -25.1377    2.7409   25.7128 N.3     1  UNL1       -0.1872
     28 C         -25.6334    6.2535   27.8375 C.ar    1  UNL1        0.0036
     29 C         -24.7243    7.2455   27.5546 C.ar    1  UNL1        0.0714
     30 C         -23.6589    7.0783   26.6964 C.ar    1  UNL1        0.0036
     31 C         -23.4574    5.8604   26.2588 C.ar    1  UNL1       -0.0027
     32 C         -25.0127    8.6650   28.1196 C.3     1  UNL1        0.4186
     33 F         -24.0784    9.3027   28.3326 F       1  UNL1       -0.1659
     34 F         -25.6406    8.4182   29.3667 F       1  UNL1       -0.1659
     35 F         -25.8353    9.2910   27.2966 F       1  UNL1       -0.1659
@<TRIPOS>BOND
     1     4     5    1
     2     5     8    1
     3     3    14    1
     4    14    15   am
     5    15    16    2
     6    15    17   am
     7    11    18    1
     8     6    19    1
     9    17    20    1
    10     5    21    2
    11    20    22    1
    12    22    23    2
    13    23    24    1
    14    24    25    1
    15    20    27    1
    16    24    27    1
    17    29    32    1
    18    32    33    1
    19    32    34    1
    20    32    35    1
    21     1     2   ar
    22     2     6   ar
    23     6     7   ar
    24     7     4   ar
    25     4     3   ar
    26     3     1   ar
    27    25    26   ar
    28    26    28   ar
    29    28    29   ar
    30    29    30   ar
    31    30    31   ar
    32    31    25   ar
    33     8     9   ar
    34     9    12   ar
    35    12    13   ar
    36    13    11   ar
    37    11    10   ar
    38    10     8   ar
