@<TRIPOS>MOLECULE
outputs/IAG933/test6/raw/output_4710_IAG933_linker_design_.xyz
 44 48 0 0 0
SMALL
GASTEIGER

@<TRIPOS>ATOM
      1 C         -24.8550   -1.0120   30.1430 C.3     1  UNL1        0.0661
      2 C         -24.9730   -2.5050   29.7880 C.2     1  UNL1       -0.0167
      3 C         -23.9060   -3.1730   29.1460 C.2     1  UNL1       -0.0039
      4 C         -23.9890   -4.5490   28.8530 C.2     1  UNL1       -0.0003
      5 C         -25.1370   -5.2800   29.2050 C.2     1  UNL1       -0.0000
      6 C         -26.2320   -4.6110   29.7840 C.2     1  UNL1       -0.0003
      7 C         -26.1550   -3.2320   30.0650 C.2     1  UNL1       -0.0039
      8 C         -25.3870   -0.6790   31.5710 C.3     1  UNL1        0.0812
      9 C         -25.1890    0.7730   32.0280 C.3     1  UNL1        0.0195
     10 C         -25.3360    0.6840   33.5440 C.3     1  UNL1        0.0203
     11 C         -24.8290   -0.7150   33.9050 C.3     1  UNL1        0.0887
     12 N         -24.7580   -1.4810   32.6460 N.3     1  UNL1       -0.2188
     13 C         -25.6880    1.6140   26.4610 C.2     1  UNL1        0.0907
     14 C         -26.2500    2.9200   26.3950 C.2     1  UNL1        0.0902
     15 C         -25.6420    4.0930   27.1230 C.2     1  UNL1        0.2676
     16 N         -25.6140    5.2520   26.4490 N.am    1  UNL1       -0.1997
     17 C         -25.0260    6.4790   26.9630 C.3     1  UNL1        0.1388
     18 O         -25.1430    3.9660   28.2430 O.2     1  UNL1       -0.2683
     19 C         -27.4380    3.0910   25.6450 C.2     1  UNL1        0.1080
     20 N         -28.0750    2.0890   25.0030 N.2     1  UNL1       -0.2080
     21 C         -27.5430    0.8490   25.0790 C.2     1  UNL1        0.2546
     22 O         -28.1930   -0.2080   24.4770 O.2     1  UNL1       -0.4558
     23 C         -29.4600    0.0050   23.8660 C.3     1  UNL1        0.2426
     24 C         -30.0650   -1.3770   23.5730 C.3     1  UNL1        0.2292
     25 O         -30.7290   -1.8780   24.7210 O.3     1  UNL1       -0.2162
     26 C         -26.3540    0.5760   25.7770 C.2     1  UNL1        0.2066
     27 F         -25.8600   -0.6810   25.7950 F       1  UNL1       -0.1979
     28 C         -30.6641    1.0288   32.7926 C.3     1  UNL1        0.0721
     29 C         -28.8308   -0.3988   33.6547 C.3     1  UNL1        0.0721
     30 C         -29.2979    1.8638   34.6765 C.3     1  UNL1        0.0896
     31 N         -24.5392    1.3531   27.1740 N.pl3   1  UNL1       -0.2761
     32 C         -24.4705    0.6342   28.3666 C.3     1  UNL1        0.1555
     33 C         -22.9952    2.4997   25.4167 C.3     1  UNL1        0.0480
     34 C         -29.3963   -1.0199   32.3034 C.3     1  UNL1        0.0177
     35 C         -28.3416   -0.7537   29.0212 C.2     1  UNL1        0.0146
     36 S         -22.8149    0.5731   28.9137 S.3     1  UNL1       -0.0878
     37 C         -25.5122   -0.1015   29.1200 C.2     1  UNL1        0.0236
     38 C         -23.2325    1.7568   26.7344 C.2     1  UNL1        0.0364
     39 C         -29.1782    0.1509   31.2745 C.3     1  UNL1        0.0077
     40 C         -29.3156    0.1145   29.7223 C.3     1  UNL1        0.0345
     41 C         -29.7140    1.5104   31.7251 C.3     1  UNL1        0.0177
     42 C         -22.1864    1.3820   27.6031 C.2     1  UNL1        0.0432
     43 N         -29.8562    0.6477   33.9801 N.3     1  UNL1       -0.2715
     44 C         -26.9983   -0.4743   28.9559 C.1     1  UNL1       -0.1116
@<TRIPOS>BOND
     1     1    37    1
     2     2     7    1
     3     2     1    1
     4     3     2    2
     5     4     3    1
     6     4     5    2
     7     5     6    1
     8     6     7    2
     9     8     1    1
    10     8     9    1
    11     8    12    1
    12     9    10    1
    13    10    11    1
    14    12    11    1
    15    13    31    1
    16    14    13    1
    17    14    15    1
    18    15    18    2
    19    16    17    1
    20    16    15    1
    21    19    14    2
    22    20    21    2
    23    20    19    1
    24    21    26    1
    25    22    21    1
    26    23    22    1
    27    24    23    1
    28    24    25    1
    29    26    27    1
    30    26    13    2
    31    28    43    1
    32    29    43    1
    33    31    32    1
    34    32    36    1
    35    32    37    1
    36    33    38    1
    37    34    29    1
    38    35    40    1
    39    38    31    1
    40    38    42    2
    41    39    41    1
    42    39    34    1
    43    40    39    1
    44    41    28    1
    45    42    36    1
    46    43    30    1
    47    44    35    2
    48    44    37    2
