@<TRIPOS>MOLECULE
No_4712-gen_results/8p0m/2024-11-27-11-27-31/
 24 25 0 0 0
SMALL
GASTEIGER

@<TRIPOS>ATOM
      1 C         -28.0162   -0.8135   28.8779 C.ar    1  UNL1        0.0084
      2 C         -27.0636   -0.1189   28.6079 C.ar    1  UNL1        0.0716
      3 C         -25.7923   -0.4302   29.0761 C.ar    1  UNL1        0.0039
      4 C         -25.5756   -1.5654   29.9363 C.ar    1  UNL1        0.0001
      5 C         -26.7354   -2.3004   30.2173 C.ar    1  UNL1        0.0045
      6 C         -27.9184   -1.9537   29.7629 C.ar    1  UNL1        0.0539
      7 C         -27.1057    1.1023   27.7593 C.3     1  UNL1        0.4186
      8 F         -28.1026    1.2424   27.1566 F       1  UNL1       -0.1659
      9 F         -26.0037    1.0662   26.8436 F       1  UNL1       -0.1659
     10 F         -26.8832    2.2591   28.4883 F       1  UNL1       -0.1659
     11 C         -29.0694   -2.7537   30.2054 C.2     1  UNL1        0.2528
     12 N         -29.4861   -2.5584   31.2925 N.am    1  UNL1       -0.2534
     13 C         -30.3062   -3.3211   31.9681 C.3     1  UNL1        0.1203
     14 O         -29.1421   -3.8796   29.7026 O.2     1  UNL1       -0.2696
     15 C         -29.4257   -1.1507   31.9368 C.ar    1  UNL1        0.0539
     16 C         -30.3277   -0.5437   32.1331 C.ar    1  UNL1        0.0149
     17 C         -30.1962    0.8133   32.6611 C.ar    1  UNL1        0.0010
     18 C         -28.9338    1.3887   32.7574 C.ar    1  UNL1       -0.0039
     19 C         -28.0792   -0.4952   32.0454 C.ar    1  UNL1        0.0110
     20 C         -27.8795    0.6102   32.6449 C.ar    1  UNL1       -0.0172
     21 C         -26.5048    1.2261   32.7633 C.3     1  UNL1        0.0443
     22 C         -25.4127    0.5350   32.9608 C.3     1  UNL1        0.0094
     23 C         -26.3954    2.6935   32.5483 C.2     1  UNL1       -0.0221
     24 C         -26.9215    3.5276   33.2642 C.2     1  UNL1       -0.0046
@<TRIPOS>BOND
     1     2     7    1
     2     7     8    1
     3     7     9    1
     4     7    10    1
     5     6    11    1
     6    11    12   am
     7    12    13    1
     8    11    14    2
     9    12    15    1
    10    20    21    1
    11    21    22    1
    12    21    23    1
    13    23    24    2
    14    15    16   ar
    15    16    17   ar
    16    17    18   ar
    17    18    20   ar
    18    20    19   ar
    19    19    15   ar
    20     1     2   ar
    21     2     3   ar
    22     3     4   ar
    23     4     5   ar
    24     5     6   ar
    25     6     1   ar
