@<TRIPOS>MOLECULE
outputs/IAG933/test6/raw/output_4713_IAG933_linker_design_.xyz
 45 49 0 0 0
SMALL
GASTEIGER

@<TRIPOS>ATOM
      1 C         -24.8550   -1.0120   30.1430 C.3     1  UNL1        0.0422
      2 C         -24.9730   -2.5050   29.7880 C.2     1  UNL1       -0.0208
      3 C         -23.9060   -3.1730   29.1460 C.2     1  UNL1       -0.0042
      4 C         -23.9890   -4.5490   28.8530 C.2     1  UNL1       -0.0003
      5 C         -25.1370   -5.2800   29.2050 C.2     1  UNL1       -0.0000
      6 C         -26.2320   -4.6110   29.7840 C.2     1  UNL1       -0.0003
      7 C         -26.1550   -3.2320   30.0650 C.2     1  UNL1       -0.0042
      8 C         -25.3870   -0.6790   31.5710 C.3     1  UNL1        0.0771
      9 C         -25.1890    0.7730   32.0280 C.3     1  UNL1        0.0192
     10 C         -25.3360    0.6840   33.5440 C.3     1  UNL1        0.0202
     11 C         -24.8290   -0.7150   33.9050 C.3     1  UNL1        0.0887
     12 N         -24.7580   -1.4810   32.6460 N.3     1  UNL1       -0.2191
     13 C         -25.6880    1.6140   26.4610 C.2     1  UNL1        0.1832
     14 C         -26.2500    2.9200   26.3950 C.2     1  UNL1        0.1111
     15 C         -25.6420    4.0930   27.1230 C.2     1  UNL1        0.2694
     16 N         -25.6140    5.2520   26.4490 N.am    1  UNL1       -0.1996
     17 C         -25.0260    6.4790   26.9630 C.3     1  UNL1        0.1388
     18 O         -25.1430    3.9660   28.2430 O.2     1  UNL1       -0.2682
     19 C         -27.4380    3.0910   25.6450 C.2     1  UNL1        0.1098
     20 N         -28.0750    2.0890   25.0030 N.2     1  UNL1       -0.2079
     21 C         -27.5430    0.8490   25.0790 C.2     1  UNL1        0.2564
     22 O         -28.1930   -0.2080   24.4770 O.2     1  UNL1       -0.4558
     23 C         -29.4600    0.0050   23.8660 C.3     1  UNL1        0.2426
     24 C         -30.0650   -1.3770   23.5730 C.3     1  UNL1        0.2292
     25 O         -30.7290   -1.8780   24.7210 O.3     1  UNL1       -0.2162
     26 C         -26.3540    0.5760   25.7770 C.2     1  UNL1        0.2273
     27 F         -25.8600   -0.6810   25.7950 F       1  UNL1       -0.1960
     28 C         -21.2557    0.4873   28.7742 C.2     1  UNL1       -0.0215
     29 C         -23.0405    1.6276   26.6296 C.2     1  UNL1        0.2224
     30 N         -27.9804    2.2470   29.2392 N.3     1  UNL1       -0.2727
     31 O         -23.2792    1.7950   25.3072 O.2     1  UNL1       -0.2888
     32 C         -28.5477    3.5794   29.6136 C.3     1  UNL1        0.0721
     33 C         -23.7165    0.4633   28.5602 C.2     1  UNL1       -0.0021
     34 O         -24.6554    1.4268   27.0760 O.2     1  UNL1       -0.4483
     35 C         -22.5339    0.1585   29.1890 C.3     1  UNL1        0.0511
     36 C         -26.4458    0.4922   29.0474 C.3     1  UNL1        0.0216
     37 C         -27.8582   -0.0361   29.0091 C.3     1  UNL1        0.0190
     38 C         -30.0751    3.4282   29.6485 C.3     1  UNL1        0.0188
     39 C         -20.8943    1.2195   27.6776 C.2     1  UNL1       -0.0009
     40 C         -23.8411    1.1874   27.4479 C.2     1  UNL1        0.1757
     41 C         -25.0209    0.0061   29.1242 C.3     1  UNL1        0.0285
     42 C         -21.7180    1.8659   26.9234 C.2     1  UNL1        0.0441
     43 F         -22.7147    3.0133   25.1747 F       1  UNL1        0.0139
     44 C         -28.5306    1.3269   28.6126 C.3     1  UNL1        0.0721
     45 C         -26.8941    1.8370   29.5704 C.3     1  UNL1        0.0724
@<TRIPOS>BOND
     1     1    41    1
     2     2     7    1
     3     2     1    1
     4     3     2    2
     5     4     3    1
     6     4     5    2
     7     5     6    1
     8     6     7    2
     9     8     1    1
    10     8     9    1
    11     8    12    1
    12     9    10    1
    13    10    11    1
    14    12    11    1
    15    13    34    1
    16    14    13    1
    17    14    15    1
    18    15    18    2
    19    16    17    1
    20    16    15    1
    21    19    14    2
    22    20    21    2
    23    20    19    1
    24    21    26    1
    25    22    21    1
    26    23    22    1
    27    24    23    1
    28    24    25    1
    29    26    27    1
    30    26    13    2
    31    28    35    1
    32    29    42    2
    33    29    40    1
    34    30    45    1
    35    30    32    1
    36    31    29    1
    37    32    38    1
    38    33    35    1
    39    34    40    1
    40    36    41    1
    41    36    45    1
    42    37    36    1
    43    39    28    2
    44    40    33    2
    45    41    33    1
    46    42    39    1
    47    43    31    1
    48    44    37    1
    49    44    30    1
