@<TRIPOS>MOLECULE
outputs/IAG933/test6/raw/output_4715_IAG933_linker_design_.xyz
 42 46 0 0 0
SMALL
GASTEIGER

@<TRIPOS>ATOM
      1 C         -24.8550   -1.0120   30.1430 C.3     1  UNL1        0.0438
      2 C         -24.9730   -2.5050   29.7880 C.2     1  UNL1       -0.0208
      3 C         -23.9060   -3.1730   29.1460 C.2     1  UNL1       -0.0042
      4 C         -23.9890   -4.5490   28.8530 C.2     1  UNL1       -0.0003
      5 C         -25.1370   -5.2800   29.2050 C.2     1  UNL1       -0.0000
      6 C         -26.2320   -4.6110   29.7840 C.2     1  UNL1       -0.0003
      7 C         -26.1550   -3.2320   30.0650 C.2     1  UNL1       -0.0042
      8 C         -25.3870   -0.6790   31.5710 C.3     1  UNL1        0.0811
      9 C         -25.1890    0.7730   32.0280 C.3     1  UNL1        0.0650
     10 C         -25.3360    0.6840   33.5440 C.3     1  UNL1        0.0243
     11 C         -24.8290   -0.7150   33.9050 C.3     1  UNL1        0.0888
     12 N         -24.7580   -1.4810   32.6460 N.3     1  UNL1       -0.2190
     13 C         -25.6880    1.6140   26.4610 C.3     1  UNL1        0.1358
     14 C         -26.2500    2.9200   26.3950 C.2     1  UNL1        0.0627
     15 C         -25.6420    4.0930   27.1230 C.2     1  UNL1        0.2629
     16 N         -25.6140    5.2520   26.4490 N.am    1  UNL1       -0.2000
     17 C         -25.0260    6.4790   26.9630 C.3     1  UNL1        0.1388
     18 O         -25.1430    3.9660   28.2430 O.2     1  UNL1       -0.2686
     19 C         -27.4380    3.0910   25.6450 C.2     1  UNL1        0.1026
     20 N         -28.0750    2.0890   25.0030 N.2     1  UNL1       -0.2118
     21 C         -27.5430    0.8490   25.0790 C.2     1  UNL1        0.2346
     22 O         -28.1930   -0.2080   24.4770 O.2     1  UNL1       -0.4585
     23 C         -29.4600    0.0050   23.8660 C.3     1  UNL1        0.2423
     24 C         -30.0650   -1.3770   23.5730 C.3     1  UNL1        0.2292
     25 O         -30.7290   -1.8780   24.7210 O.3     1  UNL1       -0.2162
     26 C         -26.3540    0.5760   25.7770 C.3     1  UNL1        0.2478
     27 F         -25.8600   -0.6810   25.7950 F       1  UNL1       -0.2264
     28 C         -26.7696    4.1453   31.9893 C.2     1  UNL1       -0.0041
     29 C         -25.3600    3.8894   32.0538 C.2     1  UNL1       -0.0180
     30 C         -24.5573    4.5695   32.9797 C.2     1  UNL1       -0.0041
     31 N         -23.1654    1.7102   29.8780 N.pl3   1  UNL1       -0.0354
     32 C         -27.2663    5.2862   32.6338 C.2     1  UNL1       -0.0003
     33 C         -23.0407    1.5080   28.4875 C.2     1  UNL1        0.3608
     34 C         -23.1754    1.8108   25.7600 C.2     1  UNL1        0.0427
     35 C         -21.9215    1.9054   26.3767 C.2     1  UNL1        0.0112
     36 C         -24.9985    5.8318   33.4710 C.2     1  UNL1       -0.0003
     37 C         -24.2680    1.4833   26.7959 C.2     1  UNL1        0.1778
     38 N         -24.0771    1.2506   28.0149 N.2     1  UNL1       -0.0407
     39 C         -24.4078    1.8569   31.0420 C.3     1  UNL1        0.2106
     40 C         -26.3637    6.1627   33.2949 C.2     1  UNL1       -0.0000
     41 C         -24.7075    3.0228   31.1700 C.3     1  UNL1        0.0773
     42 C         -21.8433    1.7745   27.7825 C.2     1  UNL1        0.0932
@<TRIPOS>BOND
     1     2     7    1
     2     2     1    1
     3     3     2    2
     4     4     3    1
     5     4     5    2
     6     5     6    1
     7     6     7    2
     8     8     1    1
     9     8     9    1
    10     8    12    1
    11     9    39    1
    12     9    10    1
    13    10    11    1
    14    12    11    1
    15    13    37    1
    16    14    13    1
    17    14    15    1
    18    15    18    2
    19    16    17    1
    20    16    15    1
    21    19    14    2
    22    20    21    2
    23    20    19    1
    24    21    26    1
    25    22    21    1
    26    23    22    1
    27    24    23    1
    28    24    25    1
    29    26    27    1
    30    26    13    1
    31    28    29    2
    32    28    32    1
    33    29    30    1
    34    30    36    2
    35    31    39    1
    36    32    40    2
    37    33    31    1
    38    34    35    1
    39    34    37    2
    40    35    42    2
    41    37    38    1
    42    38    33    2
    43    39    41    1
    44    40    36    1
    45    41    29    1
    46    42    33    1
