@<TRIPOS>MOLECULE
No_4717-gen_results/8p0m/2024-11-27-11-27-31/
 10 10 0 0 0
SMALL
GASTEIGER

@<TRIPOS>ATOM
      1 C         -28.0162   -0.8135   28.8779 C.ar    1  UNL1       -0.0000
      2 C         -28.4690   -0.7850   29.8287 C.ar    1  UNL1       -0.0000
      3 C         -26.5455   -0.8762   28.8500 C.ar    1  UNL1       -0.0003
      4 C         -25.8041   -1.0324   30.0571 C.ar    1  UNL1       -0.0043
      5 C         -26.5373   -1.0386   31.2171 C.ar    1  UNL1       -0.0003
      6 C         -27.8843   -0.9532   31.1862 C.ar    1  UNL1       -0.0000
      7 C         -24.3555   -1.1121   30.0346 C.2     1  UNL1       -0.0261
      8 C         -23.6129   -1.1081   29.0414 C.2     1  UNL1       -0.0300
      9 C         -22.1516   -0.9907   29.0790 C.3     1  UNL1        0.0304
     10 C         -23.9462   -2.1651   31.0677 C.3     1  UNL1        0.0307
@<TRIPOS>BOND
     1     4     7    1
     2     7     8    2
     3     8     9    1
     4     7    10    1
     5     1     2   ar
     6     2     6   ar
     7     6     5   ar
     8     5     4   ar
     9     4     3   ar
    10     3     1   ar
