@<TRIPOS>MOLECULE
No_4718-gen_results/8p0m/2024-11-27-11-27-31/
 7 7 0 0 0
SMALL
GASTEIGER

@<TRIPOS>ATOM
      1 C         -28.0162   -0.8135   28.8779 C.ar    1  UNL1        0.0114
      2 C         -27.0636   -0.1189   28.6079 C.ar    1  UNL1        0.0577
      3 CL        -26.9019    0.6131   27.2384 Cl      1  UNL1       -0.0822
      4 C         -27.9860   -1.5290   30.1490 C.ar    1  UNL1        0.0009
      5 C         -26.8343   -1.4949   30.9804 C.ar    1  UNL1        0.0001
      6 C         -25.7174   -0.7925   30.5851 C.ar    1  UNL1        0.0009
      7 C         -25.7991   -0.0995   29.3645 C.ar    1  UNL1        0.0114
@<TRIPOS>BOND
     1     2     3    1
     2     1     2   ar
     3     2     7   ar
     4     7     6   ar
     5     6     5   ar
     6     5     4   ar
     7     4     1   ar
