@<TRIPOS>MOLECULE
outputs/IAG933/test6/raw/output_472_IAG933_linker_design_.xyz
 47 52 0 0 0
SMALL
GASTEIGER

@<TRIPOS>ATOM
      1 C         -24.8550   -1.0120   30.1430 C.3     1  UNL1        0.0437
      2 C         -24.9730   -2.5050   29.7880 C.2     1  UNL1       -0.0208
      3 C         -23.9060   -3.1730   29.1460 C.2     1  UNL1       -0.0042
      4 C         -23.9890   -4.5490   28.8530 C.2     1  UNL1       -0.0003
      5 C         -25.1370   -5.2800   29.2050 C.2     1  UNL1       -0.0000
      6 C         -26.2320   -4.6110   29.7840 C.2     1  UNL1       -0.0003
      7 C         -26.1550   -3.2320   30.0650 C.2     1  UNL1       -0.0042
      8 C         -25.3870   -0.6790   31.5710 C.3     1  UNL1        0.0771
      9 C         -25.1890    0.7730   32.0280 C.3     1  UNL1        0.0183
     10 C         -25.3360    0.6840   33.5440 C.3     1  UNL1        0.0202
     11 C         -24.8290   -0.7150   33.9050 C.3     1  UNL1        0.0887
     12 N         -24.7580   -1.4810   32.6460 N.3     1  UNL1       -0.2191
     13 C         -25.6880    1.6140   26.4610 C.2     1  UNL1        0.0407
     14 C         -26.2500    2.9200   26.3950 C.2     1  UNL1        0.0744
     15 C         -25.6420    4.0930   27.1230 C.2     1  UNL1        0.2219
     16 N         -25.6140    5.2520   26.4490 N.2     1  UNL1       -0.2357
     17 C         -25.0260    6.4790   26.9630 C.3     1  UNL1        0.1550
     18 O         -25.1430    3.9660   28.2430 O.2     1  UNL1       -0.4623
     19 C         -27.4380    3.0910   25.6450 C.2     1  UNL1        0.1068
     20 N         -28.0750    2.0890   25.0030 N.2     1  UNL1       -0.2081
     21 C         -27.5430    0.8490   25.0790 C.2     1  UNL1        0.2533
     22 O         -28.1930   -0.2080   24.4770 O.2     1  UNL1       -0.4558
     23 C         -29.4600    0.0050   23.8660 C.3     1  UNL1        0.2426
     24 C         -30.0650   -1.3770   23.5730 C.3     1  UNL1        0.2292
     25 O         -30.7290   -1.8780   24.7210 O.3     1  UNL1       -0.2162
     26 C         -26.3540    0.5760   25.7770 C.2     1  UNL1        0.1931
     27 F         -25.8600   -0.6810   25.7950 F       1  UNL1       -0.1992
     28 O         -21.2792    1.5130   27.2330 O.2     1  UNL1       -0.2649
     29 C         -27.8103    4.3070   31.3665 C.3     1  UNL1        0.0475
     30 C         -25.2640    2.3770   30.0551 C.3     1  UNL1        0.1014
     31 C         -28.3452    2.5796   29.6177 C.2     1  UNL1       -0.0042
     32 C         -23.9560    1.8206   29.5023 C.2     1  UNL1        0.1580
     33 C         -29.8948    3.0586   31.3412 C.2     1  UNL1       -0.0042
     34 C         -29.2988    1.8436   28.9151 C.2     1  UNL1       -0.0003
     35 N         -26.9365    5.8245   29.8905 N.3     1  UNL1       -0.1303
     36 C         -30.8557    2.3735   30.6708 C.2     1  UNL1       -0.0003
     37 C         -28.6981    3.3012   30.7418 C.2     1  UNL1       -0.0207
     38 C         -24.9946    2.2698   31.5511 C.3     1  UNL1        0.0122
     39 C         -25.5598    3.3380   32.4944 C.3     1  UNL1        0.0022
     40 C         -22.2106    1.4770   28.2237 C.2     1  UNL1        0.3051
     41 O         -23.2241    0.8011   30.0147 O.2     1  UNL1       -0.3644
     42 N         -22.1954    0.6551   29.2594 N.am    1  UNL1       -0.0043
     43 C         -25.7324    3.7472   29.5607 C.3     1  UNL1        0.1908
     44 C         -26.4958    4.6629   30.6262 C.3     1  UNL1        0.1180
     45 C         -23.2867    2.3092   28.4234 C.2     1  UNL1        0.0982
     46 C         -25.5214    4.7425   31.8627 C.3     1  UNL1        0.0216
     47 C         -30.5872    1.7742   29.4562 C.2     1  UNL1       -0.0000
@<TRIPOS>BOND
     1     2     7    1
     2     2     1    1
     3     3     2    2
     4     4     3    1
     5     4     5    2
     6     5     6    1
     7     6     7    2
     8     8     1    1
     9     8     9    1
    10     8    12    1
    11     9    10    1
    12    10    11    1
    13    12    11    1
    14    14    13    1
    15    14    15    1
    16    15    18    1
    17    16    17    1
    18    16    15    2
    19    19    14    2
    20    20    21    2
    21    20    19    1
    22    21    26    1
    23    22    21    1
    24    23    22    1
    25    24    23    1
    26    24    25    1
    27    26    27    1
    28    26    13    2
    29    28    40    2
    30    30    32    1
    31    30    38    1
    32    31    37    1
    33    32    41    1
    34    34    47    1
    35    34    31    2
    36    36    33    1
    37    37    33    2
    38    37    29    1
    39    38     9    1
    40    38    39    1
    41    40    45    1
    42    40    42    1
    43    42    41    1
    44    43    18    1
    45    43    30    1
    46    43    44    1
    47    44    35    1
    48    44    29    1
    49    44    46    1
    50    45    32    2
    51    46    39    1
    52    47    36    2
