@<TRIPOS>MOLECULE
outputs/IAG933/test6/raw/output_4722_IAG933_linker_design_.xyz
 41 44 0 0 0
SMALL
GASTEIGER

@<TRIPOS>ATOM
      1 C         -24.8550   -1.0120   30.1430 C.3     1  UNL1        0.1163
      2 C         -24.9730   -2.5050   29.7880 C.2     1  UNL1       -0.0125
      3 C         -23.9060   -3.1730   29.1460 C.2     1  UNL1       -0.0038
      4 C         -23.9890   -4.5490   28.8530 C.2     1  UNL1       -0.0003
      5 C         -25.1370   -5.2800   29.2050 C.2     1  UNL1       -0.0000
      6 C         -26.2320   -4.6110   29.7840 C.2     1  UNL1       -0.0003
      7 C         -26.1550   -3.2320   30.0650 C.2     1  UNL1       -0.0038
      8 C         -25.3870   -0.6790   31.5710 C.3     1  UNL1        0.0855
      9 C         -25.1890    0.7730   32.0280 C.3     1  UNL1        0.0197
     10 C         -25.3360    0.6840   33.5440 C.3     1  UNL1        0.0203
     11 C         -24.8290   -0.7150   33.9050 C.3     1  UNL1        0.0887
     12 N         -24.7580   -1.4810   32.6460 N.3     1  UNL1       -0.2186
     13 C         -25.6880    1.6140   26.4610 C.3     1  UNL1        0.0744
     14 C         -26.2500    2.9200   26.3950 C.2     1  UNL1        0.0549
     15 C         -25.6420    4.0930   27.1230 C.2     1  UNL1        0.2624
     16 N         -25.6140    5.2520   26.4490 N.am    1  UNL1       -0.2000
     17 C         -25.0260    6.4790   26.9630 C.3     1  UNL1        0.1388
     18 O         -25.1430    3.9660   28.2430 O.2     1  UNL1       -0.2687
     19 C         -27.4380    3.0910   25.6450 C.2     1  UNL1        0.1021
     20 N         -28.0750    2.0890   25.0030 N.2     1  UNL1       -0.2119
     21 C         -27.5430    0.8490   25.0790 C.2     1  UNL1        0.2341
     22 O         -28.1930   -0.2080   24.4770 O.2     1  UNL1       -0.4585
     23 C         -29.4600    0.0050   23.8660 C.3     1  UNL1        0.2423
     24 C         -30.0650   -1.3770   23.5730 C.3     1  UNL1        0.2292
     25 O         -30.7290   -1.8780   24.7210 O.3     1  UNL1       -0.2162
     26 C         -26.3540    0.5760   25.7770 C.3     1  UNL1        0.2401
     27 F         -25.8600   -0.6810   25.7950 F       1  UNL1       -0.2269
     28 C         -21.9457    1.9128   26.3434 C.3     1  UNL1        0.2258
     29 O         -23.6931    3.0644   25.3360 O.3     1  UNL1       -0.2200
     30 C         -24.3933    1.4528   26.7724 C.3     1  UNL1        0.0632
     31 O         -22.3817   -0.7604   28.7126 O.3     1  UNL1       -0.3489
     32 O         -26.7576   -0.0076   29.2112 O.2     1  UNL1       -0.2730
     33 N         -24.8566   -0.2765   28.0043 N.am    1  UNL1       -0.2042
     34 C         -25.6187   -0.3740   29.0689 C.2     1  UNL1        0.2464
     35 F         -20.4106    1.2397   27.9305 F       1  UNL1       -0.2316
     36 C         -23.3921    2.0754   26.1781 C.3     1  UNL1        0.1892
     37 C         -22.6473    0.4351   28.1994 C.3     1  UNL1        0.1704
     38 F         -21.2174    2.3271   25.3450 F       1  UNL1       -0.2315
     39 C         -21.1784   -1.1126   29.1406 C.3     1  UNL1        0.1742
     40 C         -24.0800    0.8483   28.1017 C.3     1  UNL1        0.1281
     41 C         -21.6348    1.1887   27.5127 C.3     1  UNL1        0.2243
@<TRIPOS>BOND
     1     1    34    1
     2     2     7    1
     3     2     1    1
     4     3     2    2
     5     4     3    1
     6     4     5    2
     7     5     6    1
     8     6     7    2
     9     8     1    1
    10     8     9    1
    11     8    12    1
    12     9    10    1
    13    10    11    1
    14    12    11    1
    15    13    14    1
    16    14    15    1
    17    15    18    2
    18    16    17    1
    19    16    15    1
    20    19    14    2
    21    20    21    2
    22    20    19    1
    23    21    26    1
    24    22    21    1
    25    23    22    1
    26    24    23    1
    27    24    25    1
    28    26    27    1
    29    26    13    1
    30    28    38    1
    31    28    41    1
    32    30    13    1
    33    30    40    1
    34    31    39    1
    35    33    34    1
    36    34    32    2
    37    36    29    1
    38    36    28    1
    39    36    30    1
    40    37    31    1
    41    40    33    1
    42    40    37    1
    43    41    35    1
    44    41    37    1
