@<TRIPOS>MOLECULE
No_4723-gen_results/8p0m/2024-11-27-11-27-31/
 16 18 0 0 0
SMALL
GASTEIGER

@<TRIPOS>ATOM
      1 C         -28.0162   -0.8135   28.8779 C.ar    1  UNL1        0.0306
      2 C         -28.4690   -0.7850   29.8287 C.ar    1  UNL1        0.0592
      3 C         -26.5455   -0.8762   28.8500 C.ar    1  UNL1        0.0854
      4 C         -25.8041   -1.0324   30.0571 C.ar    1  UNL1        0.0180
      5 C         -26.5373   -1.0386   31.2171 C.ar    1  UNL1        0.0024
      6 C         -27.8843   -0.9532   31.1862 C.ar    1  UNL1        0.0115
      7 C         -24.3555   -1.1121   30.0346 C.ar    1  UNL1        0.0061
      8 C         -23.7079   -1.1920   30.8827 C.ar    1  UNL1        0.0002
      9 C         -22.6450   -0.4491   31.2271 C.ar    1  UNL1        0.0000
     10 C         -21.8538   -0.0815   30.0700 C.ar    1  UNL1        0.0002
     11 C         -22.4909   -0.1096   28.7924 C.ar    1  UNL1        0.0048
     12 C         -23.8260   -0.5982   28.7370 C.ar    1  UNL1        0.0579
     13 N         -25.8051   -0.8050   27.7170 N.ar    1  UNL1       -0.2078
     14 C         -24.6221   -0.4698   27.6528 C.ar    1  UNL1        0.2791
     15 CL        -30.2922   -0.7822   29.9514 Cl      1  UNL1       -0.0822
     16 O         -24.1229    0.0208   26.5697 O.2     1  UNL1       -0.2652
@<TRIPOS>BOND
     1     4     7   ar
     2    12    14   ar
     3    13    14   ar
     4     2    15    1
     5    14    16    2
     6     3    13   ar
     7     1     2   ar
     8     2     6   ar
     9     6     5   ar
    10     5     4   ar
    11     4     3   ar
    12     3     1   ar
    13     7     8   ar
    14     8     9   ar
    15     9    10   ar
    16    10    11   ar
    17    11    12   ar
    18    12     7   ar
