@<TRIPOS>MOLECULE
No_4724-gen_results/8p0m/2024-11-27-11-27-31/
 15 16 0 0 0
SMALL
GASTEIGER

@<TRIPOS>ATOM
      1 C         -28.0162   -0.8135   28.8779 C.ar    1  UNL1        0.0066
      2 C         -28.4690   -0.7850   29.8287 C.ar    1  UNL1        0.0798
      3 C         -26.5455   -0.8762   28.8500 C.ar    1  UNL1        0.0002
      4 C         -25.8974   -0.8267   29.8894 C.ar    1  UNL1        0.0000
      5 C         -30.0003   -0.7688   29.9284 C.2     1  UNL1        0.3878
      6 C         -26.5207   -0.8182   31.1574 C.ar    1  UNL1        0.0002
      7 C         -27.9055   -0.8072   31.1602 C.ar    1  UNL1        0.0066
      8 O         -30.5872    0.0088   30.7550 O.co2   1  UNL1       -0.2406
      9 O         -30.6310   -1.5297   29.1242 O.co2   1  UNL1       -0.2406
     10 C         -24.3598   -0.8572   29.9378 C.ar    1  UNL1        0.0000
     11 C         -23.6459   -1.5326   30.3341 C.ar    1  UNL1        0.0000
     12 C         -23.7741    0.3254   29.1588 C.ar    1  UNL1        0.0000
     13 C         -22.3807    0.3852   29.0356 C.ar    1  UNL1        0.0000
     14 C         -22.1956   -1.5901   30.3898 C.ar    1  UNL1        0.0000
     15 C         -21.6017   -0.5483   29.6669 C.ar    1  UNL1        0.0000
@<TRIPOS>BOND
     1     2     5    1
     2     5     8   ar
     3     5     9   ar
     4     4    10    1
     5    10    11   ar
     6    11    14   ar
     7    14    15   ar
     8    15    13   ar
     9    13    12   ar
    10    12    10   ar
    11     1     2   ar
    12     2     7   ar
    13     7     6   ar
    14     6     4   ar
    15     4     3   ar
    16     3     1   ar
