@<TRIPOS>MOLECULE
No_4727-gen_results/8p0m/2024-11-27-11-27-31/
 17 17 0 0 0
SMALL
GASTEIGER

@<TRIPOS>ATOM
      1 C         -28.0162   -0.8135   28.8779 C.2     1  UNL1        0.2690
      2 C         -27.0636   -0.1189   28.6079 C.ar    1  UNL1        0.0554
      3 C         -27.0010    0.6913   27.4910 C.ar    1  UNL1        0.0048
      4 C         -25.8548    1.4825   27.0830 C.ar    1  UNL1        0.0067
      5 C         -24.6901    1.4526   27.8807 C.ar    1  UNL1        0.0798
      6 C         -24.7379    0.6010   29.0416 C.ar    1  UNL1        0.0067
      7 C         -25.8234   -0.1688   29.3887 C.ar    1  UNL1        0.0048
      8 N         -27.9524   -1.6294   30.0643 N.am    1  UNL1       -0.1702
      9 C         -29.0363   -2.3695   30.4865 C.2     1  UNL1        0.1642
     10 C         -28.7283   -3.6343   31.2329 C.3     1  UNL1        0.4339
     11 F         -29.6144   -4.5682   30.6479 F       1  UNL1       -0.1645
     12 F         -27.5018   -4.0597   30.8577 F       1  UNL1       -0.1645
     13 F         -28.8911   -3.5276   32.4635 F       1  UNL1       -0.1645
     14 C         -23.5168    2.2046   27.5748 C.2     1  UNL1        0.3878
     15 O         -22.4090    1.9867   28.1275 O.co2   1  UNL1       -0.2406
     16 O         -23.4306    2.7522   26.3216 O.co2   1  UNL1       -0.2406
     17 O         -29.1408   -0.7044   28.4379 O.2     1  UNL1       -0.2680
@<TRIPOS>BOND
     1     1     2    1
     2     1     8    1
     3     8     9    2
     4     9    10    1
     5    10    11    1
     6    10    12    1
     7    10    13    1
     8     5    14    1
     9    14    15   ar
    10    14    16   ar
    11     1    17    2
    12     2     3   ar
    13     3     4   ar
    14     4     5   ar
    15     5     6   ar
    16     6     7   ar
    17     7     2   ar
