@<TRIPOS>MOLECULE
outputs/IAG933/test6/raw/output_4729_IAG933_linker_design_.xyz
 50 54 0 0 0
SMALL
GASTEIGER

@<TRIPOS>ATOM
      1 C         -24.8550   -1.0120   30.1430 C.3     1  UNL1        0.0589
      2 C         -24.9730   -2.5050   29.7880 C.2     1  UNL1       -0.0195
      3 C         -23.9060   -3.1730   29.1460 C.2     1  UNL1       -0.0042
      4 C         -23.9890   -4.5490   28.8530 C.2     1  UNL1       -0.0003
      5 C         -25.1370   -5.2800   29.2050 C.2     1  UNL1       -0.0000
      6 C         -26.2320   -4.6110   29.7840 C.2     1  UNL1       -0.0003
      7 C         -26.1550   -3.2320   30.0650 C.2     1  UNL1       -0.0042
      8 C         -25.3870   -0.6790   31.5710 C.3     1  UNL1        0.0785
      9 C         -25.1890    0.7730   32.0280 C.3     1  UNL1        0.0192
     10 C         -25.3360    0.6840   33.5440 C.3     1  UNL1        0.0202
     11 C         -24.8290   -0.7150   33.9050 C.3     1  UNL1        0.0887
     12 N         -24.7580   -1.4810   32.6460 N.3     1  UNL1       -0.2191
     13 C         -25.6880    1.6140   26.4610 C.2     1  UNL1        0.0354
     14 C         -26.2500    2.9200   26.3950 C.2     1  UNL1        0.0763
     15 C         -25.6420    4.0930   27.1230 C.2     1  UNL1        0.2664
     16 N         -25.6140    5.2520   26.4490 N.am    1  UNL1       -0.1997
     17 C         -25.0260    6.4790   26.9630 C.3     1  UNL1        0.1388
     18 O         -25.1430    3.9660   28.2430 O.2     1  UNL1       -0.2683
     19 C         -27.4380    3.0910   25.6450 C.2     1  UNL1        0.1067
     20 N         -28.0750    2.0890   25.0030 N.2     1  UNL1       -0.2081
     21 C         -27.5430    0.8490   25.0790 C.2     1  UNL1        0.2533
     22 O         -28.1930   -0.2080   24.4770 O.2     1  UNL1       -0.4558
     23 C         -29.4600    0.0050   23.8660 C.3     1  UNL1        0.2426
     24 C         -30.0650   -1.3770   23.5730 C.3     1  UNL1        0.2292
     25 O         -30.7290   -1.8780   24.7210 O.3     1  UNL1       -0.2162
     26 C         -26.3540    0.5760   25.7770 C.2     1  UNL1        0.1928
     27 F         -25.8600   -0.6810   25.7950 F       1  UNL1       -0.1992
     28 C         -24.4480    1.2434   27.0388 C.2     1  UNL1       -0.0014
     29 C         -23.2509    1.3984   26.4254 C.2     1  UNL1        0.0812
     30 O         -27.8190    1.7544   30.6868 O.2     1  UNL1       -0.2733
     31 C         -24.1725    0.6070   28.3221 C.3     1  UNL1        0.0678
     32 N         -30.8207   -0.4056   28.5176 N.3     1  UNL1       -0.2444
     33 O         -31.6559   -2.1800   29.6490 O.3     1  UNL1       -0.2005
     34 N         -26.0781    1.2977   29.3030 N.am    1  UNL1       -0.2061
     35 C         -22.2332    1.0847   27.3131 C.2     1  UNL1        0.1464
     36 C         -27.3621    1.0022   29.8395 C.2     1  UNL1        0.2422
     37 C         -32.0089    2.8787   25.1578 C.3     1  UNL1        0.0722
     38 C         -29.3597   -0.6930   28.9700 C.3     1  UNL1        0.0690
     39 C         -32.0628    1.0694   26.9703 C.3     1  UNL1        0.0897
     40 C         -32.8585    0.5984   24.6382 C.3     1  UNL1        0.0897
     41 C         -30.7222    0.5079   27.3453 C.3     1  UNL1        0.0917
     42 C         -28.0950   -0.6347   29.5484 C.3     1  UNL1        0.0942
     43 C         -25.2545    0.0669   29.0337 C.3     1  UNL1        0.1087
     44 C         -31.7564   -0.9152   29.3585 C.3     1  UNL1        0.2590
     45 CL        -23.0586    1.7845   24.7234 Cl      1  UNL1       -0.0802
     46 F         -20.9571    1.3864   27.0377 F       1  UNL1       -0.2036
     47 N         -32.3166    1.5150   25.6159 N.3     1  UNL1       -0.2703
     48 C         -22.7708    0.5081   28.4488 C.2     1  UNL1        0.0102
     49 C         -32.4849    3.1740   23.7220 C.3     1  UNL1        0.0188
     50 C         -29.2840   -0.2638   30.2765 C.3     1  UNL1        0.0270
@<TRIPOS>BOND
     1     1    43    1
     2     2     7    1
     3     2     1    1
     4     3     2    2
     5     4     3    1
     6     4     5    2
     7     5     6    1
     8     6     7    2
     9     8     1    1
    10     8     9    1
    11     8    12    1
    12     9    10    1
    13    10    11    1
    14    12    11    1
    15    13    28    1
    16    14    13    1
    17    14    15    1
    18    15    18    2
    19    16    17    1
    20    16    15    1
    21    19    14    2
    22    20    21    2
    23    20    19    1
    24    21    26    1
    25    22    21    1
    26    23    22    1
    27    24    23    1
    28    24    25    1
    29    26    27    1
    30    26    13    2
    31    28    31    1
    32    29    28    2
    33    29    35    1
    34    31    48    1
    35    31    43    1
    36    32    44    1
    37    34    36    1
    38    35    48    2
    39    36    30    2
    40    37    47    1
    41    38    32    1
    42    38    42    1
    43    38    50    1
    44    39    41    1
    45    40    47    1
    46    41    32    1
    47    42    36    1
    48    42    50    1
    49    43    34    1
    50    44    33    1
    51    45    29    1
    52    46    35    1
    53    47    39    1
    54    49    37    1
