@<TRIPOS>MOLECULE
outputs/IAG933/test6/raw/output_4730_IAG933_linker_design_.xyz
 42 46 0 0 0
SMALL
GASTEIGER

@<TRIPOS>ATOM
      1 C         -24.8550   -1.0120   30.1430 C.3     1  UNL1        0.2035
      2 C         -24.9730   -2.5050   29.7880 C.2     1  UNL1        0.0186
      3 C         -23.9060   -3.1730   29.1460 C.2     1  UNL1       -0.0008
      4 C         -23.9890   -4.5490   28.8530 C.2     1  UNL1       -0.0002
      5 C         -25.1370   -5.2800   29.2050 C.2     1  UNL1       -0.0000
      6 C         -26.2320   -4.6110   29.7840 C.2     1  UNL1       -0.0002
      7 C         -26.1550   -3.2320   30.0650 C.2     1  UNL1       -0.0008
      8 C         -25.3870   -0.6790   31.5710 C.3     1  UNL1        0.1170
      9 C         -25.1890    0.7730   32.0280 C.3     1  UNL1        0.0229
     10 C         -25.3360    0.6840   33.5440 C.3     1  UNL1        0.0204
     11 C         -24.8290   -0.7150   33.9050 C.3     1  UNL1        0.0888
     12 N         -24.7580   -1.4810   32.6460 N.3     1  UNL1       -0.2154
     13 C         -25.6880    1.6140   26.4610 C.3     1  UNL1        0.0748
     14 C         -26.2500    2.9200   26.3950 C.2     1  UNL1        0.0551
     15 C         -25.6420    4.0930   27.1230 C.2     1  UNL1        0.2624
     16 N         -25.6140    5.2520   26.4490 N.am    1  UNL1       -0.2000
     17 C         -25.0260    6.4790   26.9630 C.3     1  UNL1        0.1388
     18 O         -25.1430    3.9660   28.2430 O.2     1  UNL1       -0.2687
     19 C         -27.4380    3.0910   25.6450 C.2     1  UNL1        0.1021
     20 N         -28.0750    2.0890   25.0030 N.2     1  UNL1       -0.2119
     21 C         -27.5430    0.8490   25.0790 C.2     1  UNL1        0.2341
     22 O         -28.1930   -0.2080   24.4770 O.2     1  UNL1       -0.4585
     23 C         -29.4600    0.0050   23.8660 C.3     1  UNL1        0.2423
     24 C         -30.0650   -1.3770   23.5730 C.3     1  UNL1        0.2292
     25 O         -30.7290   -1.8780   24.7210 O.3     1  UNL1       -0.2162
     26 C         -26.3540    0.5760   25.7770 C.3     1  UNL1        0.2403
     27 F         -25.8600   -0.6810   25.7950 F       1  UNL1       -0.2269
     28 C         -23.5884    1.0932   27.5250 C.2     1  UNL1        0.0180
     29 C         -22.3998    2.0523   25.4112 C.3     1  UNL1        0.1830
     30 C         -25.5938    1.2953   28.7711 C.3     1  UNL1        0.0909
     31 O         -23.0965    3.2301   25.3392 O.3     1  UNL1       -0.2202
     32 C         -23.0443    0.3783   28.5705 C.2     1  UNL1        0.1406
     33 C         -21.4222    1.6824   24.4250 C.3     1  UNL1        0.0385
     34 C         -27.6797    2.7455   29.7743 C.2     1  UNL1       -0.0012
     35 O         -23.6337   -0.3491   29.7450 O.2     1  UNL1       -0.4756
     36 O         -21.4210    1.0109   27.1813 O.3     1  UNL1       -0.3414
     37 C         -26.9230    1.7958   29.2841 C.2     1  UNL1        0.0201
     38 C         -22.6172    1.3781   26.6890 C.3     1  UNL1        0.1670
     39 O         -27.3835   -0.5908   28.7043 O.2     1  UNL1       -0.2913
     40 C         -24.9209    1.3763   27.5514 C.3     1  UNL1        0.0422
     41 C         -21.7628    0.5101   28.4477 C.3     1  UNL1        0.2052
     42 C         -26.7312    0.4434   28.8746 C.2     1  UNL1        0.1736
@<TRIPOS>BOND
     1     1    35    1
     2     2     7    1
     3     2     1    1
     4     3     2    2
     5     4     3    1
     6     4     5    2
     7     5     6    1
     8     6     7    2
     9     8     1    1
    10     8     9    1
    11     8    12    1
    12     9    10    1
    13    10    11    1
    14    12    11    1
    15    13    40    1
    16    14    13    1
    17    14    15    1
    18    15    18    2
    19    16    17    1
    20    16    15    1
    21    19    14    2
    22    20    21    2
    23    20    19    1
    24    21    26    1
    25    22    21    1
    26    23    22    1
    27    24    23    1
    28    24    25    1
    29    26    27    1
    30    26    13    1
    31    28    32    2
    32    29    33    1
    33    30    40    1
    34    30    42    1
    35    30    37    1
    36    31    29    1
    37    32    35    1
    38    36    41    1
    39    37    34    2
    40    38    29    1
    41    38    36    1
    42    38    28    1
    43    39    42    2
    44    40    28    1
    45    41    32    1
    46    42    37    1
