@<TRIPOS>MOLECULE
No_4731-gen_results/8p0m/2024-11-27-11-27-31/
 16 18 0 0 0
SMALL
GASTEIGER

@<TRIPOS>ATOM
      1 C         -28.0162   -0.8135   28.8779 C.ar    1  UNL1       -0.0042
      2 C         -28.4690   -0.7850   29.8287 C.ar    1  UNL1       -0.0003
      3 C         -27.0871    0.2903   28.6377 C.ar    1  UNL1       -0.0201
      4 C         -26.2516    0.4114   27.4223 C.3     1  UNL1        0.0498
      5 C         -28.3913    0.1041   30.9805 C.ar    1  UNL1       -0.0000
      6 C         -27.5332    1.1666   30.7866 C.ar    1  UNL1       -0.0003
      7 C         -26.8281    1.2557   29.6454 C.ar    1  UNL1       -0.0042
      8 C         -25.7329    1.6893   27.1546 C.3     1  UNL1        0.0792
      9 C         -24.6744    1.7805   26.3311 C.3     1  UNL1        0.0365
     10 C         -23.8933    0.7474   25.9464 C.3     1  UNL1        0.0902
     11 C         -25.0867   -0.5647   27.3328 C.3     1  UNL1        0.0940
     12 N         -24.1213   -0.3875   26.4526 N.3     1  UNL1       -0.2176
     13 C         -27.0783    0.2250   26.1589 C.3     1  UNL1        0.0083
     14 C         -27.6271    1.3322   25.5928 C.3     1  UNL1        0.0192
     15 N         -26.6961    2.6703   26.8959 N.3     1  UNL1       -0.2190
     16 C         -27.4951    2.5486   25.8255 C.3     1  UNL1        0.0887
@<TRIPOS>BOND
     1     3     4    1
     2     4     8    1
     3     9    10    1
     4     4    11    1
     5    10    12    1
     6     4    13    1
     7    13    14    1
     8     8    15    1
     9    14    16    1
    10     8     9    1
    11    12    11    1
    12    15    16    1
    13     1     2   ar
    14     2     5   ar
    15     5     6   ar
    16     6     7   ar
    17     7     3   ar
    18     3     1   ar
