@<TRIPOS>MOLECULE
No_4732-gen_results/8p0m/2024-11-27-11-27-31/
 28 31 0 0 0
SMALL
GASTEIGER

@<TRIPOS>ATOM
      1 C         -28.0162   -0.8135   28.8779 C.ar    1  UNL1        0.1557
      2 C         -27.0636   -0.1190   28.6079 C.ar    1  UNL1        0.0384
      3 C         -25.7647   -0.3897   29.0360 C.ar    1  UNL1        0.0029
      4 C         -25.5296   -1.5303   29.9014 C.ar    1  UNL1        0.0011
      5 C         -26.6888   -2.2893   30.1810 C.ar    1  UNL1        0.0145
      6 C         -27.8727   -1.9508   29.7373 C.ar    1  UNL1        0.0921
      7 C         -24.5491    0.4100   28.7341 C.ar    1  UNL1       -0.0009
      8 C         -24.4789    1.1871   27.6843 C.ar    1  UNL1        0.0151
      9 C         -23.2716    1.8973   27.3731 C.ar    1  UNL1        0.1346
     10 C         -22.1063    1.7032   28.0412 C.ar    1  UNL1        0.0366
     11 C         -23.3188    0.1792   29.4669 C.ar    1  UNL1       -0.0001
     12 C         -22.1165    0.8402   29.1011 C.ar    1  UNL1        0.0031
     13 CL        -29.2295   -2.8994   30.2078 Cl      1  UNL1       -0.0791
     14 O         -23.3244    2.7691   26.3084 O.3     1  UNL1       -0.4754
     15 C         -24.4469    2.5502   25.5434 C.3     1  UNL1        0.2097
     16 C         -25.1254    1.5352   26.4513 C.3     1  UNL1        0.0690
     17 O         -29.2958   -0.5537   28.4805 O.3     1  UNL1       -0.4526
     18 C         -29.4761    0.4351   27.5385 C.ar    1  UNL1        0.1453
     19 C         -29.8684    1.6008   28.1251 C.ar    1  UNL1        0.0376
     20 C         -30.5733    2.3122   27.7544 C.ar    1  UNL1        0.0077
     21 C         -29.5172    0.2025   26.2156 C.ar    1  UNL1        0.0376
     22 C         -30.1341    1.1598   25.4245 C.ar    1  UNL1        0.0077
     23 C         -30.7110    2.3225   26.1221 C.ar    1  UNL1        0.0569
     24 C         -26.4408    0.9748   26.0423 C.3     1  UNL1        0.0082
     25 C         -26.3092    0.2307   24.7816 C.3     1  UNL1        0.0005
     26 C         -31.3959    3.3554   25.3490 C.2     1  UNL1        0.2842
     27 N         -31.1879    4.5296   25.5780 N.am    1  UNL1       -0.0837
     28 O         -32.4014    3.0023   24.7260 O.2     1  UNL1       -0.2667
@<TRIPOS>BOND
     1     3     7    1
     2     6    13    1
     3     9    14    1
     4    14    15    1
     5     8    16    1
     6    15    16    1
     7     1    17    1
     8    17    18    1
     9    16    24    1
    10    24    25    1
    11    23    26    1
    12    26    27   am
    13    26    28    2
    14     7     8   ar
    15     8     9   ar
    16     9    10   ar
    17    10    12   ar
    18    12    11   ar
    19    11     7   ar
    20     1     2   ar
    21     2     3   ar
    22     3     4   ar
    23     4     5   ar
    24     5     6   ar
    25     6     1   ar
    26    18    19   ar
    27    19    20   ar
    28    20    23   ar
    29    23    22   ar
    30    22    21   ar
    31    21    18   ar
