@<TRIPOS>MOLECULE
outputs/IAG933/test6/raw/output_4733_IAG933_linker_design_.xyz
 43 48 0 0 0
SMALL
GASTEIGER

@<TRIPOS>ATOM
      1 C         -24.8550   -1.0120   30.1430 C.3     1  UNL1        0.0982
      2 C         -24.9730   -2.5050   29.7880 C.2     1  UNL1       -0.0064
      3 C         -23.9060   -3.1730   29.1460 C.2     1  UNL1       -0.0029
      4 C         -23.9890   -4.5490   28.8530 C.2     1  UNL1       -0.0003
      5 C         -25.1370   -5.2800   29.2050 C.2     1  UNL1       -0.0000
      6 C         -26.2320   -4.6110   29.7840 C.2     1  UNL1       -0.0003
      7 C         -26.1550   -3.2320   30.0650 C.2     1  UNL1       -0.0029
      8 C         -25.3870   -0.6790   31.5710 C.3     1  UNL1        0.0916
      9 C         -25.1890    0.7730   32.0280 C.3     1  UNL1        0.0206
     10 C         -25.3360    0.6840   33.5440 C.3     1  UNL1        0.0203
     11 C         -24.8290   -0.7150   33.9050 C.3     1  UNL1        0.0888
     12 N         -24.7580   -1.4810   32.6460 N.3     1  UNL1       -0.2178
     13 C         -25.6880    1.6140   26.4610 C.2     1  UNL1        0.0169
     14 C         -26.2500    2.9200   26.3950 C.2     1  UNL1        0.0726
     15 C         -25.6420    4.0930   27.1230 C.2     1  UNL1        0.2661
     16 N         -25.6140    5.2520   26.4490 N.am    1  UNL1       -0.1997
     17 C         -25.0260    6.4790   26.9630 C.3     1  UNL1        0.1388
     18 O         -25.1430    3.9660   28.2430 O.2     1  UNL1       -0.2683
     19 C         -27.4380    3.0910   25.6450 C.2     1  UNL1        0.1064
     20 N         -28.0750    2.0890   25.0030 N.2     1  UNL1       -0.2081
     21 C         -27.5430    0.8490   25.0790 C.2     1  UNL1        0.2530
     22 O         -28.1930   -0.2080   24.4770 O.2     1  UNL1       -0.4558
     23 C         -29.4600    0.0050   23.8660 C.3     1  UNL1        0.2426
     24 C         -30.0650   -1.3770   23.5730 C.3     1  UNL1        0.2292
     25 O         -30.7290   -1.8780   24.7210 O.3     1  UNL1       -0.2162
     26 C         -26.3540    0.5760   25.7770 C.2     1  UNL1        0.1891
     27 F         -25.8600   -0.6810   25.7950 F       1  UNL1       -0.1996
     28 F         -21.6338    2.2007   25.7025 F       1  UNL1       -0.2373
     29 C         -26.0179    1.3617   29.3798 C.3     1  UNL1        0.0238
     30 C         -22.3770    0.7640   29.1097 C.3     1  UNL1        0.0553
     31 C         -27.0890    2.2868   29.7847 C.3     1  UNL1        0.0274
     32 C         -20.3714    0.1863   28.3263 C.3     1  UNL1        0.0029
     33 C         -22.9383   -0.0507   29.2269 C.3     1  UNL1        0.2221
     34 C         -23.5702    2.0106   26.9805 C.3     1  UNL1        0.0410
     35 C         -25.3471    0.4837   28.5573 C.3     1  UNL1        0.0561
     36 C         -24.6731    1.2276   27.2635 C.3     1  UNL1        0.0414
     37 N         -24.3949   -0.0773   29.3115 N.3     1  UNL1       -0.2446
     38 C         -21.4385    1.1324   27.8036 C.3     1  UNL1        0.0368
     39 C         -28.1996    1.5058   29.6075 C.2     1  UNL1       -0.0306
     40 F         -22.1423   -0.1142   29.9024 F       1  UNL1       -0.2191
     41 C         -27.9802    0.2282   29.2234 C.2     1  UNL1       -0.0297
     42 C         -22.2656    1.7732   26.7725 C.3     1  UNL1        0.1614
     43 C         -26.5980    0.1197   29.1651 C.3     1  UNL1        0.0371
@<TRIPOS>BOND
     1     1     2    1
     2     2     7    1
     3     3     2    2
     4     4     3    1
     5     4     5    2
     6     5     6    1
     7     6     7    2
     8     8     1    1
     9     8     9    1
    10     8    12    1
    11     9    10    1
    12    10    11    1
    13    12    11    1
    14    14    13    1
    15    14    15    1
    16    15    18    2
    17    16    17    1
    18    16    15    1
    19    19    14    2
    20    20    21    2
    21    20    19    1
    22    21    26    1
    23    22    21    1
    24    23    22    1
    25    24    23    1
    26    24    25    1
    27    26    27    1
    28    26    13    2
    29    29    31    1
    30    30    33    1
    31    33    37    1
    32    33    40    1
    33    34    36    1
    34    35    43    1
    35    35    37    1
    36    35    29    1
    37    36    13    1
    38    36    35    1
    39    37     1    1
    40    38    32    1
    41    38    30    1
    42    39    31    1
    43    41    39    2
    44    42    28    1
    45    42    34    1
    46    42    38    1
    47    43    41    1
    48    43    29    1
