@<TRIPOS>MOLECULE
outputs/IAG933/test6/raw/output_4734_IAG933_linker_design_.xyz
 41 44 0 0 0
SMALL
GASTEIGER

@<TRIPOS>ATOM
      1 C         -24.8550   -1.0120   30.1430 C.3     1  UNL1        0.0965
      2 C         -24.9730   -2.5050   29.7880 C.2     1  UNL1       -0.0064
      3 C         -23.9060   -3.1730   29.1460 C.2     1  UNL1       -0.0029
      4 C         -23.9890   -4.5490   28.8530 C.2     1  UNL1       -0.0003
      5 C         -25.1370   -5.2800   29.2050 C.2     1  UNL1       -0.0000
      6 C         -26.2320   -4.6110   29.7840 C.2     1  UNL1       -0.0003
      7 C         -26.1550   -3.2320   30.0650 C.2     1  UNL1       -0.0029
      8 C         -25.3870   -0.6790   31.5710 C.3     1  UNL1        0.0916
      9 C         -25.1890    0.7730   32.0280 C.3     1  UNL1        0.0206
     10 C         -25.3360    0.6840   33.5440 C.3     1  UNL1        0.0203
     11 C         -24.8290   -0.7150   33.9050 C.3     1  UNL1        0.0888
     12 N         -24.7580   -1.4810   32.6460 N.3     1  UNL1       -0.2178
     13 C         -25.6880    1.6140   26.4610 C.3     1  UNL1        0.0922
     14 C         -26.2500    2.9200   26.3950 C.2     1  UNL1        0.0589
     15 C         -25.6420    4.0930   27.1230 C.2     1  UNL1        0.2628
     16 N         -25.6140    5.2520   26.4490 N.am    1  UNL1       -0.2000
     17 C         -25.0260    6.4790   26.9630 C.3     1  UNL1        0.1388
     18 O         -25.1430    3.9660   28.2430 O.2     1  UNL1       -0.2686
     19 C         -27.4380    3.0910   25.6450 C.2     1  UNL1        0.1025
     20 N         -28.0750    2.0890   25.0030 N.2     1  UNL1       -0.2118
     21 C         -27.5430    0.8490   25.0790 C.2     1  UNL1        0.2344
     22 O         -28.1930   -0.2080   24.4770 O.2     1  UNL1       -0.4585
     23 C         -29.4600    0.0050   23.8660 C.3     1  UNL1        0.2423
     24 C         -30.0650   -1.3770   23.5730 C.3     1  UNL1        0.2292
     25 O         -30.7290   -1.8780   24.7210 O.3     1  UNL1       -0.2162
     26 C         -26.3540    0.5760   25.7770 C.3     1  UNL1        0.2440
     27 F         -25.8600   -0.6810   25.7950 F       1  UNL1       -0.2265
     28 C         -27.7236    1.5627   28.7955 C.3     1  UNL1        0.1313
     29 C         -28.7393    2.2334   29.4846 C.2     1  UNL1        0.3663
     30 C         -27.2552    0.0764   28.8664 C.3     1  UNL1        0.0845
     31 O         -28.8347    3.5373   29.7796 O.co2   1  UNL1       -0.2456
     32 C         -22.6065    0.7201   28.3799 C.2     1  UNL1        0.1927
     33 C         -24.3161    1.3154   26.8360 C.2     1  UNL1       -0.0146
     34 C         -24.9141   -0.1132   28.1472 C.3     1  UNL1        0.1023
     35 C         -21.6467    1.4339   27.6808 C.2     1  UNL1        0.0417
     36 C         -23.8416    0.6667   27.7535 C.2     1  UNL1        0.0293
     37 C         -23.3121    2.0115   26.0286 C.2     1  UNL1       -0.0039
     38 O         -29.4872    1.7322   29.8577 O.co2   1  UNL1       -0.2456
     39 N         -25.7606   -0.1190   29.2523 N.3     1  UNL1       -0.2648
     40 C         -22.0198    2.0548   26.5080 C.2     1  UNL1        0.0030
     41 O         -22.2642    0.1298   29.5451 O.2     1  UNL1       -0.2869
@<TRIPOS>BOND
     1     1    39    1
     2     2     7    1
     3     2     1    1
     4     3     2    2
     5     4     3    1
     6     4     5    2
     7     5     6    1
     8     6     7    2
     9     8     1    1
    10     8     9    1
    11     8    12    1
    12     9    10    1
    13    10    11    1
    14    12    11    1
    15    13    33    1
    16    14    13    1
    17    14    15    1
    18    15    18    2
    19    16    17    1
    20    16    15    1
    21    19    14    2
    22    20    21    2
    23    20    19    1
    24    21    26    1
    25    22    21    1
    26    23    22    1
    27    24    23    1
    28    24    25    1
    29    26    27    1
    30    26    13    1
    31    28    30    1
    32    28    29    1
    33    29    31   ar
    34    29    38   ar
    35    30    39    1
    36    32    41    1
    37    33    36    2
    38    34    39    1
    39    35    32    2
    40    36    34    1
    41    36    32    1
    42    37    40    2
    43    37    33    1
    44    40    35    1
