@<TRIPOS>MOLECULE
outputs/IAG933/test6/raw/output_4735_IAG933_linker_design_.xyz
 47 52 0 0 0
SMALL
GASTEIGER

@<TRIPOS>ATOM
      1 C         -24.8550   -1.0120   30.1430 C.3     1  UNL1        0.0610
      2 C         -24.9730   -2.5050   29.7880 C.2     1  UNL1       -0.0170
      3 C         -23.9060   -3.1730   29.1460 C.2     1  UNL1       -0.0039
      4 C         -23.9890   -4.5490   28.8530 C.2     1  UNL1       -0.0003
      5 C         -25.1370   -5.2800   29.2050 C.2     1  UNL1       -0.0000
      6 C         -26.2320   -4.6110   29.7840 C.2     1  UNL1       -0.0003
      7 C         -26.1550   -3.2320   30.0650 C.2     1  UNL1       -0.0039
      8 C         -25.3870   -0.6790   31.5710 C.3     1  UNL1        0.0809
      9 C         -25.1890    0.7730   32.0280 C.3     1  UNL1        0.0195
     10 C         -25.3360    0.6840   33.5440 C.3     1  UNL1        0.0203
     11 C         -24.8290   -0.7150   33.9050 C.3     1  UNL1        0.0887
     12 N         -24.7580   -1.4810   32.6460 N.3     1  UNL1       -0.2188
     13 C         -25.6880    1.6140   26.4610 C.3     1  UNL1        0.0929
     14 C         -26.2500    2.9200   26.3950 C.2     1  UNL1        0.0589
     15 C         -25.6420    4.0930   27.1230 C.2     1  UNL1        0.2628
     16 N         -25.6140    5.2520   26.4490 N.am    1  UNL1       -0.2000
     17 C         -25.0260    6.4790   26.9630 C.3     1  UNL1        0.1388
     18 O         -25.1430    3.9660   28.2430 O.2     1  UNL1       -0.2686
     19 C         -27.4380    3.0910   25.6450 C.2     1  UNL1        0.1025
     20 N         -28.0750    2.0890   25.0030 N.2     1  UNL1       -0.2118
     21 C         -27.5430    0.8490   25.0790 C.2     1  UNL1        0.2344
     22 O         -28.1930   -0.2080   24.4770 O.2     1  UNL1       -0.4585
     23 C         -29.4600    0.0050   23.8660 C.3     1  UNL1        0.2423
     24 C         -30.0650   -1.3770   23.5730 C.3     1  UNL1        0.2292
     25 O         -30.7290   -1.8780   24.7210 O.3     1  UNL1       -0.2162
     26 C         -26.3540    0.5760   25.7770 C.3     1  UNL1        0.2440
     27 F         -25.8600   -0.6810   25.7950 F       1  UNL1       -0.2265
     28 S         -27.1370    0.1439   28.6958 S.3     1  UNL1       -0.1139
     29 C         -21.1204    1.3998   27.6318 C.2     1  UNL1        0.1796
     30 C         -22.8878    1.6899   26.2002 C.2     1  UNL1        0.1793
     31 C         -23.6196    1.1563   27.3103 C.2     1  UNL1        0.0344
     32 O         -21.5931    1.8855   26.4671 O.2     1  UNL1       -0.4473
     33 O         -29.8680    3.6824   28.3527 O.2     1  UNL1       -0.2872
     34 C         -21.8119    0.6859   28.6109 C.2     1  UNL1        0.0405
     35 C         -25.4753    0.5300   28.6008 C.2     1  UNL1        0.0181
     36 C         -28.5349    1.0697   28.5828 C.3     1  UNL1        0.0669
     37 C         -31.7113    2.3085   31.7463 C.2     1  UNL1       -0.0004
     38 C         -23.2250    0.5304   28.6140 C.2     1  UNL1        0.0027
     39 C         -30.7274    1.5859   31.1143 C.2     1  UNL1       -0.0011
     40 C         -24.7760    1.0891   27.4461 C.2     1  UNL1       -0.0066
     41 C         -30.4314    3.2829   29.5357 C.2     1  UNL1        0.1877
     42 C         -29.9653    2.2426   30.1534 C.2     1  UNL1        0.0173
     43 C         -24.3838    0.0468   29.4164 C.2     1  UNL1       -0.0115
     44 C         -31.8736    5.3248   29.4392 C.3     1  UNL1        0.0344
     45 C         -31.4355    4.0503   30.1077 C.2     1  UNL1        0.0167
     46 C         -28.5845    2.0968   29.7409 C.3     1  UNL1        0.0416
     47 C         -31.9799    3.6061   31.3020 C.2     1  UNL1       -0.0011
@<TRIPOS>BOND
     1     1    43    1
     2     2     7    1
     3     2     1    1
     4     3     2    2
     5     4     3    1
     6     4     5    2
     7     5     6    1
     8     6     7    2
     9     8     1    1
    10     8     9    1
    11     8    12    1
    12     9    10    1
    13    10    11    1
    14    12    11    1
    15    13    40    1
    16    14    13    1
    17    14    15    1
    18    15    18    2
    19    16    17    1
    20    16    15    1
    21    19    14    2
    22    20    21    2
    23    20    19    1
    24    21    26    1
    25    22    21    1
    26    23    22    1
    27    24    23    1
    28    24    25    1
    29    26    27    1
    30    26    13    1
    31    29    34    2
    32    30    32    1
    33    30    31    2
    34    31    40    1
    35    31    38    1
    36    32    29    1
    37    33    41    1
    38    34    38    1
    39    35    28    1
    40    35    43    1
    41    36    28    1
    42    36    46    1
    43    38    43    2
    44    39    37    2
    45    40    35    2
    46    41    45    1
    47    41    42    2
    48    42    39    1
    49    44    45    1
    50    45    47    2
    51    46    42    1
    52    47    37    1
