@<TRIPOS>MOLECULE
No_4737-gen_results/8p0m/2024-11-27-11-27-31/
 14 15 0 0 0
SMALL
GASTEIGER

@<TRIPOS>ATOM
      1 C         -28.0162   -0.8135   28.8779 C.ar    1  UNL1       -0.0000
      2 C         -27.0636   -0.1189   28.6079 C.ar    1  UNL1       -0.0000
      3 C         -26.8756    1.1325   28.9134 C.ar    1  UNL1       -0.0001
      4 C         -25.6883    1.9515   28.5672 C.ar    1  UNL1        0.0039
      5 C         -24.6394    1.2834   27.8753 C.ar    1  UNL1        0.0714
      6 C         -24.8068   -0.0513   27.6040 C.ar    1  UNL1        0.0039
      7 C         -25.9019   -0.7670   27.9511 C.ar    1  UNL1       -0.0001
      8 C         -29.2125   -0.1153   29.1222 C.ar    1  UNL1       -0.0000
      9 C         -29.1930    1.2206   29.4151 C.ar    1  UNL1       -0.0000
     10 C         -28.0327    1.9256   29.1788 C.ar    1  UNL1       -0.0000
     11 C         -23.3540    1.8898   27.5892 C.3     1  UNL1        0.4186
     12 F         -22.4090    1.3802   27.6101 F       1  UNL1       -0.1659
     13 F         -23.2509    3.0521   28.5096 F       1  UNL1       -0.1659
     14 F         -23.5292    2.6406   26.3923 F       1  UNL1       -0.1659
@<TRIPOS>BOND
     1     5    11    1
     2    11    12    1
     3    11    13    1
     4    11    14    1
     5     3     4   ar
     6     4     5   ar
     7     5     6   ar
     8     6     7   ar
     9     7     2   ar
    10     1     2   ar
    11     2     3   ar
    12     3    10   ar
    13    10     9   ar
    14     9     8   ar
    15     8     1   ar
