@<TRIPOS>MOLECULE
No_4739-gen_results/8p0m/2024-11-27-11-27-31/
 18 18 0 0 0
SMALL
GASTEIGER

@<TRIPOS>ATOM
      1 C         -28.0162   -0.8135   28.8779 C.3     1  UNL1        0.0497
      2 C         -27.0636   -0.1189   28.6079 C.ar    1  UNL1       -0.0204
      3 C         -25.7647   -0.3897   29.0360 C.ar    1  UNL1       -0.0040
      4 C         -24.5517    0.4058   28.7646 C.ar    1  UNL1        0.0063
      5 C         -24.6957    1.4480   27.7988 C.ar    1  UNL1        0.0798
      6 C         -25.9755    1.7250   27.3077 C.ar    1  UNL1        0.0063
      7 C         -27.0718    1.0134   27.6535 C.ar    1  UNL1       -0.0040
      8 C         -29.2261   -0.0677   29.3149 C.3     1  UNL1        0.1169
      9 N         -30.4169   -0.7017   29.1423 N.pl3   1  UNL1       -0.2360
     10 C         -23.4870    2.1874   27.4849 C.2     1  UNL1        0.3878
     11 O         -22.3410    1.8525   27.8473 O.co2   1  UNL1       -0.2406
     12 O         -23.5968    3.0890   26.4936 O.co2   1  UNL1       -0.2406
     13 C         -31.2125   -0.3062   28.0657 C.2     1  UNL1        0.0801
     14 C         -30.7601    0.4750   27.1645 C.2     1  UNL1        0.0174
     15 C         -30.6726    0.1625   25.8860 C.2     1  UNL1        0.0014
     16 C         -29.9310    0.8674   24.8683 C.2     1  UNL1        0.0000
     17 C         -29.5335    2.1892   25.1627 C.2     1  UNL1        0.0000
     18 C         -29.8879    2.7192   26.4586 C.2     1  UNL1        0.0000
@<TRIPOS>BOND
     1     1     8    1
     2     8     9    1
     3     5    10    1
     4    10    11   ar
     5    10    12   ar
     6     9    13    1
     7    13    14    2
     8    14    15    1
     9    15    16    2
    10    16    17    1
    11    17    18    2
    12     1     2    1
    13     2     3   ar
    14     3     4   ar
    15     4     5   ar
    16     5     6   ar
    17     6     7   ar
    18     7     2   ar
