@<TRIPOS>MOLECULE
No_474-gen_results/8p0m/2024-11-27-11-27-31/
 25 26 0 0 0
SMALL
GASTEIGER

@<TRIPOS>ATOM
      1 C         -28.0162   -0.8135   28.8779 C.3     1  UNL1        0.0479
      2 C         -27.0636   -0.1190   28.6079 C.ar    1  UNL1       -0.0177
      3 C         -25.7647   -0.3897   29.0360 C.ar    1  UNL1       -0.0219
      4 C         -24.5516    0.4058   28.7646 C.ar    1  UNL1        0.0004
      5 C         -24.6957    1.4480   27.7988 C.ar    1  UNL1        0.0565
      6 C         -25.9755    1.7250   27.3077 C.ar    1  UNL1        0.0109
      7 C         -27.0718    1.0134   27.6535 C.ar    1  UNL1        0.0757
      8 C         -28.6178   -0.4695   30.2207 C.3     1  UNL1        0.0996
      9 N         -28.3380    0.4496   30.8246 N.am    1  UNL1       -0.2068
     10 C         -29.6619   -1.5209   30.7129 C.3     1  UNL1        0.0225
     11 C         -23.4869    2.2141   27.5012 C.2     1  UNL1        0.2842
     12 N         -23.5846    3.1479   26.6300 N.am    1  UNL1       -0.0837
     13 O         -22.3251    1.8993   27.9042 O.2     1  UNL1       -0.2667
     14 C         -28.8822    0.8192   32.1268 C.2     1  UNL1        0.2413
     15 C         -30.2528   -1.1775   31.9781 C.3     1  UNL1        0.0114
     16 C         -29.8446   -0.0175   32.6755 C.3     1  UNL1        0.0869
     17 O         -28.5068    1.8686   32.7277 O.2     1  UNL1       -0.2733
     18 C         -25.4596   -1.4334   30.0747 C.3     1  UNL1        0.0454
     19 C         -24.9866   -1.3335   30.9839 C.3     1  UNL1        0.0094
     20 C         -25.3173   -2.7892   29.3769 C.2     1  UNL1       -0.0027
     21 C         -28.3481    1.4119   27.0302 C.2     1  UNL1        0.3874
     22 O         -28.4693    1.8298   26.0146 O.co2   1  UNL1       -0.2406
     23 O         -29.3606    1.2098   27.7910 O.co2   1  UNL1       -0.2406
     24 C         -24.1538   -3.2976   28.9100 C.2     1  UNL1        0.1015
     25 N         -24.1124   -4.5146   28.4690 N.pl3   1  UNL1       -0.1270
@<TRIPOS>BOND
     1     1     8    1
     2     8    10    1
     3     5    11    1
     4    11    12   am
     5    11    13    2
     6     9    14   am
     7    14    16    1
     8    15    16    1
     9    14    17    2
    10     3    18    1
    11    18    19    1
    12    18    20    1
    13     7    21    1
    14    21    22   ar
    15    21    23   ar
    16    20    24    2
    17    24    25    1
    18     1     2    1
    19     9     8    1
    20    10    15    1
    21     2     3   ar
    22     3     4   ar
    23     4     5   ar
    24     5     6   ar
    25     6     7   ar
    26     7     2   ar
