@<TRIPOS>MOLECULE
outputs/IAG933/test6/raw/output_4740_IAG933_linker_design_.xyz
 46 50 0 0 0
SMALL
GASTEIGER

@<TRIPOS>ATOM
      1 C         -24.8550   -1.0120   30.1430 C.3     1  UNL1        0.0969
      2 C         -24.9730   -2.5050   29.7880 C.2     1  UNL1       -0.0064
      3 C         -23.9060   -3.1730   29.1460 C.2     1  UNL1       -0.0029
      4 C         -23.9890   -4.5490   28.8530 C.2     1  UNL1       -0.0003
      5 C         -25.1370   -5.2800   29.2050 C.2     1  UNL1       -0.0000
      6 C         -26.2320   -4.6110   29.7840 C.2     1  UNL1       -0.0003
      7 C         -26.1550   -3.2320   30.0650 C.2     1  UNL1       -0.0029
      8 C         -25.3870   -0.6790   31.5710 C.3     1  UNL1        0.0916
      9 C         -25.1890    0.7730   32.0280 C.3     1  UNL1        0.0206
     10 C         -25.3360    0.6840   33.5440 C.3     1  UNL1        0.0203
     11 C         -24.8290   -0.7150   33.9050 C.3     1  UNL1        0.0888
     12 N         -24.7580   -1.4810   32.6460 N.3     1  UNL1       -0.2178
     13 C         -25.6880    1.6140   26.4610 C.3     1  UNL1        0.0924
     14 C         -26.2500    2.9200   26.3950 C.2     1  UNL1        0.0566
     15 C         -25.6420    4.0930   27.1230 C.2     1  UNL1        0.2625
     16 N         -25.6140    5.2520   26.4490 N.am    1  UNL1       -0.2000
     17 C         -25.0260    6.4790   26.9630 C.3     1  UNL1        0.1388
     18 O         -25.1430    3.9660   28.2430 O.2     1  UNL1       -0.2687
     19 C         -27.4380    3.0910   25.6450 C.2     1  UNL1        0.1022
     20 N         -28.0750    2.0890   25.0030 N.2     1  UNL1       -0.2119
     21 C         -27.5430    0.8490   25.0790 C.2     1  UNL1        0.2341
     22 O         -28.1930   -0.2080   24.4770 O.2     1  UNL1       -0.4585
     23 C         -29.4600    0.0050   23.8660 C.3     1  UNL1        0.2423
     24 C         -30.0650   -1.3770   23.5730 C.3     1  UNL1        0.2292
     25 O         -30.7290   -1.8780   24.7210 O.3     1  UNL1       -0.2162
     26 C         -26.3540    0.5760   25.7770 C.3     1  UNL1        0.2417
     27 F         -25.8600   -0.6810   25.7950 F       1  UNL1       -0.2268
     28 C         -27.1588    0.7862   28.9755 C.2     1  UNL1        0.2615
     29 C         -26.9092    4.6642   30.7460 C.2     1  UNL1        0.0010
     30 C         -23.3387    1.3678   27.1423 C.2     1  UNL1        0.2222
     31 C         -22.2655    0.8894   27.9607 C.2     1  UNL1        0.2092
     32 C         -27.9335    6.3585   28.7490 C.2     1  UNL1        0.0000
     33 O         -23.0294    1.9723   26.0362 O.2     1  UNL1       -0.2869
     34 C         -25.7075    0.8657   28.8363 C.3     1  UNL1        0.1584
     35 C         -26.4566    5.9893   30.6374 C.2     1  UNL1        0.0000
     36 C         -28.3659    2.7809   29.8888 C.2     1  UNL1        0.0514
     37 C         -26.9792    6.8586   29.6454 C.2     1  UNL1        0.0000
     38 N         -24.7090   -0.1321   28.9020 N.3     1  UNL1       -0.2558
     39 O         -27.8941   -0.1852   28.7666 O.2     1  UNL1       -0.2715
     40 O         -22.3376    0.1666   29.1068 O.2     1  UNL1       -0.2882
     41 N         -27.4359    1.9572   29.4059 N.am    1  UNL1       -0.1824
     42 C         -27.9004    4.1783   29.8758 C.2     1  UNL1        0.0113
     43 C         -24.7458    1.1350   27.5859 C.3     1  UNL1        0.1336
     44 C         -28.3858    5.0451   28.8917 C.2     1  UNL1        0.0010
     45 C         -20.9297    1.3013   27.6524 C.3     1  UNL1        0.0805
     46 C         -29.6242    2.3036   30.3413 C.3     1  UNL1        0.0493
@<TRIPOS>BOND
     1     1     2    1
     2     2     7    1
     3     3     2    2
     4     4     3    1
     5     4     5    2
     6     5     6    1
     7     6     7    2
     8     8     1    1
     9     8     9    1
    10     8    12    1
    11     9    10    1
    12    10    11    1
    13    12    11    1
    14    13    14    1
    15    13    43    1
    16    14    15    1
    17    15    18    2
    18    16    17    1
    19    16    15    1
    20    19    14    2
    21    20    21    2
    22    20    19    1
    23    21    26    1
    24    22    21    1
    25    23    22    1
    26    24    23    1
    27    24    25    1
    28    26    27    1
    29    26    13    1
    30    28    41    1
    31    30    31    2
    32    31    40    1
    33    32    44    2
    34    32    37    1
    35    33    30    1
    36    34    38    1
    37    34    28    1
    38    35    29    1
    39    36    46    1
    40    37    35    2
    41    38     1    1
    42    39    28    2
    43    41    36    2
    44    42    36    1
    45    42    29    2
    46    43    30    1
    47    43    34    1
    48    43    38    1
    49    44    42    1
    50    45    31    1
