@<TRIPOS>MOLECULE
outputs/IAG933/test6/raw/output_4743_IAG933_linker_design_.xyz
 43 46 0 0 0
SMALL
GASTEIGER

@<TRIPOS>ATOM
      1 C         -24.8550   -1.0120   30.1430 C.3     1  UNL1        0.1552
      2 C         -24.9730   -2.5050   29.7880 C.2     1  UNL1        0.0060
      3 C         -23.9060   -3.1730   29.1460 C.2     1  UNL1       -0.0019
      4 C         -23.9890   -4.5490   28.8530 C.2     1  UNL1       -0.0002
      5 C         -25.1370   -5.2800   29.2050 C.2     1  UNL1       -0.0000
      6 C         -26.2320   -4.6110   29.7840 C.2     1  UNL1       -0.0002
      7 C         -26.1550   -3.2320   30.0650 C.2     1  UNL1       -0.0019
      8 C         -25.3870   -0.6790   31.5710 C.3     1  UNL1        0.1042
      9 C         -25.1890    0.7730   32.0280 C.3     1  UNL1        0.0217
     10 C         -25.3360    0.6840   33.5440 C.3     1  UNL1        0.0203
     11 C         -24.8290   -0.7150   33.9050 C.3     1  UNL1        0.0888
     12 N         -24.7580   -1.4810   32.6460 N.3     1  UNL1       -0.2166
     13 C         -25.6880    1.6140   26.4610 C.2     1  UNL1        0.0183
     14 C         -26.2500    2.9200   26.3950 C.2     1  UNL1        0.0726
     15 C         -25.6420    4.0930   27.1230 C.2     1  UNL1        0.2661
     16 N         -25.6140    5.2520   26.4490 N.am    1  UNL1       -0.1997
     17 C         -25.0260    6.4790   26.9630 C.3     1  UNL1        0.1388
     18 O         -25.1430    3.9660   28.2430 O.2     1  UNL1       -0.2683
     19 C         -27.4380    3.0910   25.6450 C.2     1  UNL1        0.1064
     20 N         -28.0750    2.0890   25.0030 N.2     1  UNL1       -0.2081
     21 C         -27.5430    0.8490   25.0790 C.2     1  UNL1        0.2530
     22 O         -28.1930   -0.2080   24.4770 O.2     1  UNL1       -0.4558
     23 C         -29.4600    0.0050   23.8660 C.3     1  UNL1        0.2426
     24 C         -30.0650   -1.3770   23.5730 C.3     1  UNL1        0.2292
     25 O         -30.7290   -1.8780   24.7210 O.3     1  UNL1       -0.2162
     26 C         -26.3540    0.5760   25.7770 C.2     1  UNL1        0.1892
     27 F         -25.8600   -0.6810   25.7950 F       1  UNL1       -0.1996
     28 N         -25.7072    2.2156   30.2656 N.am    1  UNL1       -0.1756
     29 F         -21.0673    2.3838   26.6623 F       1  UNL1       -0.2346
     30 O         -25.6770    5.3968   31.9039 O.3     1  UNL1       -0.2132
     31 C         -24.4096    1.4042   27.0529 C.3     1  UNL1        0.0622
     32 C         -26.2920    4.4218   31.0520 C.3     1  UNL1        0.2292
     33 C         -22.1184    1.6511   27.0374 C.3     1  UNL1        0.1914
     34 C         -25.4732    1.1152   29.2626 C.3     1  UNL1        0.2116
     35 C         -23.0288    0.5794   28.8638 C.3     1  UNL1        0.0075
     36 C         -21.8971    0.9269   28.1802 C.3     1  UNL1        0.0381
     37 C         -25.2804    3.1794   30.9902 C.2     1  UNL1        0.2739
     38 O         -23.2998    1.9041   24.9274 O.3     1  UNL1       -0.2199
     39 O         -25.7576   -0.3176   29.2676 O.3     1  UNL1       -0.3329
     40 C         -27.6212    3.7376   31.4454 C.3     1  UNL1        0.0456
     41 O         -24.2021    3.2604   31.4994 O.2     1  UNL1       -0.2705
     42 C         -23.2888    1.7007   26.3210 C.3     1  UNL1        0.1884
     43 C         -24.2778    1.0625   28.3974 C.3     1  UNL1        0.0552
@<TRIPOS>BOND
     1     1    39    1
     2     2     7    1
     3     2     1    1
     4     3     2    2
     5     4     3    1
     6     4     5    2
     7     5     6    1
     8     6     7    2
     9     8     1    1
    10     8     9    1
    11     8    12    1
    12     9    10    1
    13    10    11    1
    14    12    11    1
    15    14    13    1
    16    14    15    1
    17    15    18    2
    18    16    17    1
    19    16    15    1
    20    19    14    2
    21    20    21    2
    22    20    19    1
    23    21    26    1
    24    22    21    1
    25    23    22    1
    26    24    23    1
    27    24    25    1
    28    26    27    1
    29    26    13    2
    30    28    37    1
    31    31    13    1
    32    31    43    1
    33    32    40    1
    34    32    30    1
    35    33    29    1
    36    33    36    1
    37    34    39    1
    38    34    28    1
    39    36    35    1
    40    37    32    1
    41    37    41    2
    42    42    38    1
    43    42    33    1
    44    42    31    1
    45    43    35    1
    46    43    34    1
