@<TRIPOS>MOLECULE
outputs/IAG933/test6/raw/output_4744_IAG933_linker_design_.xyz
 45 50 0 0 0
SMALL
GASTEIGER

@<TRIPOS>ATOM
      1 C         -24.8550   -1.0120   30.1430 C.3     1  UNL1        0.0599
      2 C         -24.9730   -2.5050   29.7880 C.2     1  UNL1       -0.0171
      3 C         -23.9060   -3.1730   29.1460 C.2     1  UNL1       -0.0039
      4 C         -23.9890   -4.5490   28.8530 C.2     1  UNL1       -0.0003
      5 C         -25.1370   -5.2800   29.2050 C.2     1  UNL1       -0.0000
      6 C         -26.2320   -4.6110   29.7840 C.2     1  UNL1       -0.0003
      7 C         -26.1550   -3.2320   30.0650 C.2     1  UNL1       -0.0039
      8 C         -25.3870   -0.6790   31.5710 C.3     1  UNL1        0.0808
      9 C         -25.1890    0.7730   32.0280 C.3     1  UNL1        0.0195
     10 C         -25.3360    0.6840   33.5440 C.3     1  UNL1        0.0203
     11 C         -24.8290   -0.7150   33.9050 C.3     1  UNL1        0.0887
     12 N         -24.7580   -1.4810   32.6460 N.3     1  UNL1       -0.2188
     13 C         -25.6880    1.6140   26.4610 C.3     1  UNL1        0.0921
     14 C         -26.2500    2.9200   26.3950 C.2     1  UNL1        0.0589
     15 C         -25.6420    4.0930   27.1230 C.2     1  UNL1        0.2628
     16 N         -25.6140    5.2520   26.4490 N.am    1  UNL1       -0.2000
     17 C         -25.0260    6.4790   26.9630 C.3     1  UNL1        0.1388
     18 O         -25.1430    3.9660   28.2430 O.2     1  UNL1       -0.2686
     19 C         -27.4380    3.0910   25.6450 C.2     1  UNL1        0.1025
     20 N         -28.0750    2.0890   25.0030 N.2     1  UNL1       -0.2118
     21 C         -27.5430    0.8490   25.0790 C.2     1  UNL1        0.2344
     22 O         -28.1930   -0.2080   24.4770 O.2     1  UNL1       -0.4585
     23 C         -29.4600    0.0050   23.8660 C.3     1  UNL1        0.2423
     24 C         -30.0650   -1.3770   23.5730 C.3     1  UNL1        0.2292
     25 O         -30.7290   -1.8780   24.7210 O.3     1  UNL1       -0.2162
     26 C         -26.3540    0.5760   25.7770 C.3     1  UNL1        0.2440
     27 F         -25.8600   -0.6810   25.7950 F       1  UNL1       -0.2265
     28 C         -29.0627    1.5488   28.3891 C.3     1  UNL1        0.0054
     29 C         -20.8676    0.0544   28.5128 C.2     1  UNL1       -0.0183
     30 C         -25.5689    0.7998   28.8701 C.2     1  UNL1       -0.0295
     31 C         -23.2468    0.1328   28.6837 C.2     1  UNL1       -0.0191
     32 C         -23.2162    2.4580   25.1370 C.3     1  UNL1        0.2525
     33 C         -30.4443    1.0757   27.8519 C.3     1  UNL1        0.0322
     34 C         -24.6007   -0.0813   29.3154 C.2     1  UNL1       -0.0248
     35 C         -22.1504    1.4127   27.0239 C.2     1  UNL1        0.1377
     36 O         -22.0167    2.2502   25.9152 O.2     1  UNL1       -0.4715
     37 C         -27.0164    0.6848   29.4487 C.3     1  UNL1        0.0282
     38 C         -24.9009    1.2333   27.5912 C.2     1  UNL1       -0.0167
     39 C         -23.4096    0.9907   27.6636 C.2     1  UNL1        0.0262
     40 C         -31.0321   -0.0162   28.7570 C.3     1  UNL1        0.1422
     41 C         -28.2025    0.2494   28.5402 C.3     1  UNL1        0.0341
     42 C         -22.0512   -0.4629   29.0536 C.3     1  UNL1        0.0522
     43 C         -29.0041   -0.9881   29.3196 C.3     1  UNL1        0.1424
     44 C         -20.9441    1.0392   27.5039 C.2     1  UNL1        0.0326
     45 O         -30.2527   -1.1867   28.7953 O.3     1  UNL1       -0.3538
@<TRIPOS>BOND
     1     1    34    1
     2     2     7    1
     3     2     1    1
     4     3     2    2
     5     4     3    1
     6     4     5    2
     7     5     6    1
     8     6     7    2
     9     8     1    1
    10     8     9    1
    11     8    12    1
    12     9    10    1
    13    10    11    1
    14    12    11    1
    15    13    38    1
    16    14    13    1
    17    14    15    1
    18    15    18    2
    19    16    17    1
    20    16    15    1
    21    19    14    2
    22    20    21    2
    23    20    19    1
    24    21    26    1
    25    22    21    1
    26    23    22    1
    27    24    23    1
    28    24    25    1
    29    26    27    1
    30    26    13    1
    31    28    41    1
    32    29    42    1
    33    30    34    1
    34    30    37    1
    35    31    42    1
    36    31    34    2
    37    32    36    1
    38    33    28    1
    39    33    40    1
    40    35    44    1
    41    35    39    2
    42    36    35    1
    43    38    39    1
    44    38    30    2
    45    39    31    1
    46    40    45    1
    47    41    43    1
    48    41    37    1
    49    44    29    2
    50    45    43    1
