@<TRIPOS>MOLECULE
outputs/IAG933/test6/raw/output_4745_IAG933_linker_design_.xyz
 45 48 0 0 0
SMALL
GASTEIGER

@<TRIPOS>ATOM
      1 C         -24.8550   -1.0120   30.1430 C.3     1  UNL1        0.0618
      2 C         -24.9730   -2.5050   29.7880 C.2     1  UNL1       -0.0170
      3 C         -23.9060   -3.1730   29.1460 C.2     1  UNL1       -0.0039
      4 C         -23.9890   -4.5490   28.8530 C.2     1  UNL1       -0.0003
      5 C         -25.1370   -5.2800   29.2050 C.2     1  UNL1       -0.0000
      6 C         -26.2320   -4.6110   29.7840 C.2     1  UNL1       -0.0003
      7 C         -26.1550   -3.2320   30.0650 C.2     1  UNL1       -0.0039
      8 C         -25.3870   -0.6790   31.5710 C.3     1  UNL1        0.0809
      9 C         -25.1890    0.7730   32.0280 C.3     1  UNL1        0.0195
     10 C         -25.3360    0.6840   33.5440 C.3     1  UNL1        0.0203
     11 C         -24.8290   -0.7150   33.9050 C.3     1  UNL1        0.0887
     12 N         -24.7580   -1.4810   32.6460 N.3     1  UNL1       -0.2188
     13 C         -25.6880    1.6140   26.4610 C.2     1  UNL1        0.0422
     14 C         -26.2500    2.9200   26.3950 C.2     1  UNL1        0.0767
     15 C         -25.6420    4.0930   27.1230 C.2     1  UNL1        0.2664
     16 N         -25.6140    5.2520   26.4490 N.am    1  UNL1       -0.1997
     17 C         -25.0260    6.4790   26.9630 C.3     1  UNL1        0.1388
     18 O         -25.1430    3.9660   28.2430 O.2     1  UNL1       -0.2683
     19 C         -27.4380    3.0910   25.6450 C.2     1  UNL1        0.1067
     20 N         -28.0750    2.0890   25.0030 N.2     1  UNL1       -0.2081
     21 C         -27.5430    0.8490   25.0790 C.2     1  UNL1        0.2533
     22 O         -28.1930   -0.2080   24.4770 O.2     1  UNL1       -0.4558
     23 C         -29.4600    0.0050   23.8660 C.3     1  UNL1        0.2426
     24 C         -30.0650   -1.3770   23.5730 C.3     1  UNL1        0.2292
     25 O         -30.7290   -1.8780   24.7210 O.3     1  UNL1       -0.2162
     26 C         -26.3540    0.5760   25.7770 C.2     1  UNL1        0.1932
     27 F         -25.8600   -0.6810   25.7950 F       1  UNL1       -0.1992
     28 C         -24.4987    1.2945   27.4380 C.2     1  UNL1        0.0510
     29 C         -22.1774    0.9190   28.3451 C.2     1  UNL1        0.0367
     30 N         -30.6342   -1.0591   30.3479 N.3     1  UNL1       -0.2180
     31 C         -31.5999   -0.5282   29.7475 C.3     1  UNL1        0.0887
     32 C         -32.8498   -1.2580   29.3965 C.3     1  UNL1        0.0203
     33 C         -29.3120   -1.3365   30.3519 C.3     1  UNL1        0.0888
     34 C         -22.8819    2.0792   25.0838 C.3     1  UNL1        0.2525
     35 C         -25.0042    0.8072   28.6130 C.2     1  UNL1        0.0646
     36 C         -24.1801   -0.0117   29.3770 C.2     1  UNL1       -0.0020
     37 N         -26.2690    1.3359   29.0123 N.pl3   1  UNL1       -0.2386
     38 C         -28.2880    0.2389   27.9303 C.3     1  UNL1        0.0901
     39 C         -27.3747    0.3903   29.0964 C.3     1  UNL1        0.1041
     40 C         -22.7592    0.1111   29.3303 C.2     1  UNL1        0.0005
     41 C         -29.0861   -0.3066   30.9813 C.3     1  UNL1        0.0206
     42 C         -28.1943    0.9304   30.3339 C.3     1  UNL1        0.0240
     43 O         -22.4297    2.3269   26.4697 O.2     1  UNL1       -0.4714
     44 C         -23.0526    1.4970   27.3985 C.2     1  UNL1        0.1399
     45 S         -29.8765   -0.3271   27.9167 S.3     1  UNL1       -0.0803
@<TRIPOS>BOND
     1     1    36    1
     2     2     7    1
     3     2     1    1
     4     3     2    2
     5     4     3    1
     6     4     5    2
     7     5     6    1
     8     6     7    2
     9     8     1    1
    10     8     9    1
    11     8    12    1
    12     9    10    1
    13    10    11    1
    14    12    11    1
    15    13    28    1
    16    14    13    1
    17    14    15    1
    18    15    18    2
    19    16    17    1
    20    16    15    1
    21    19    14    2
    22    20    21    2
    23    20    19    1
    24    21    26    1
    25    22    21    1
    26    23    22    1
    27    24    23    1
    28    24    25    1
    29    26    27    1
    30    26    13    2
    31    28    35    1
    32    29    40    2
    33    30    33    1
    34    31    30    1
    35    32    31    1
    36    33    41    1
    37    34    43    1
    38    35    37    1
    39    35    36    2
    40    37    39    1
    41    39    38    1
    42    39    42    1
    43    40    36    1
    44    42    41    1
    45    43    44    1
    46    44    28    2
    47    44    29    1
    48    45    38    1
