@<TRIPOS>MOLECULE
outputs/IAG933/test6/raw/output_4747_IAG933_linker_design_.xyz
 42 45 0 0 0
SMALL
GASTEIGER

@<TRIPOS>ATOM
      1 C         -24.8550   -1.0120   30.1430 C.3     1  UNL1        0.0654
      2 C         -24.9730   -2.5050   29.7880 C.2     1  UNL1       -0.0190
      3 C         -23.9060   -3.1730   29.1460 C.2     1  UNL1       -0.0042
      4 C         -23.9890   -4.5490   28.8530 C.2     1  UNL1       -0.0003
      5 C         -25.1370   -5.2800   29.2050 C.2     1  UNL1       -0.0000
      6 C         -26.2320   -4.6110   29.7840 C.2     1  UNL1       -0.0003
      7 C         -26.1550   -3.2320   30.0650 C.2     1  UNL1       -0.0042
      8 C         -25.3870   -0.6790   31.5710 C.3     1  UNL1        0.0789
      9 C         -25.1890    0.7730   32.0280 C.3     1  UNL1        0.0193
     10 C         -25.3360    0.6840   33.5440 C.3     1  UNL1        0.0202
     11 C         -24.8290   -0.7150   33.9050 C.3     1  UNL1        0.0887
     12 N         -24.7580   -1.4810   32.6460 N.3     1  UNL1       -0.2191
     13 C         -25.6880    1.6140   26.4610 C.3     1  UNL1        0.0735
     14 C         -26.2500    2.9200   26.3950 C.2     1  UNL1        0.0549
     15 C         -25.6420    4.0930   27.1230 C.2     1  UNL1        0.2624
     16 N         -25.6140    5.2520   26.4490 N.am    1  UNL1       -0.2000
     17 C         -25.0260    6.4790   26.9630 C.3     1  UNL1        0.1388
     18 O         -25.1430    3.9660   28.2430 O.2     1  UNL1       -0.2687
     19 C         -27.4380    3.0910   25.6450 C.2     1  UNL1        0.1021
     20 N         -28.0750    2.0890   25.0030 N.2     1  UNL1       -0.2119
     21 C         -27.5430    0.8490   25.0790 C.2     1  UNL1        0.2341
     22 O         -28.1930   -0.2080   24.4770 O.2     1  UNL1       -0.4585
     23 C         -29.4600    0.0050   23.8660 C.3     1  UNL1        0.2423
     24 C         -30.0650   -1.3770   23.5730 C.3     1  UNL1        0.2292
     25 O         -30.7290   -1.8780   24.7210 O.3     1  UNL1       -0.2162
     26 C         -26.3540    0.5760   25.7770 C.3     1  UNL1        0.2401
     27 F         -25.8600   -0.6810   25.7950 F       1  UNL1       -0.2269
     28 O         -22.2802    0.3453   29.6948 O.2     1  UNL1       -0.2938
     29 C         -26.9343    1.0141   29.2530 C.2     1  UNL1        0.2422
     30 F         -20.7919    1.5590   28.0221 F       1  UNL1       -0.2050
     31 C         -23.0494    1.2147   27.5422 C.3     1  UNL1        0.1157
     32 C         -24.0823    1.4077   26.4945 C.3     1  UNL1        0.0550
     33 O         -27.6124    0.0627   28.8828 O.2     1  UNL1       -0.2733
     34 C         -23.5456    1.5283   25.3065 C.3     1  UNL1        0.1967
     35 O         -22.3488    2.4680   25.0110 O.2     1  UNL1       -0.3282
     36 N         -25.6257    1.0980   29.0844 N.am    1  UNL1       -0.1992
     37 C         -24.4963    0.1785   29.1793 C.3     1  UNL1        0.1579
     38 C         -23.2164    0.5320   28.9068 C.2     1  UNL1        0.1767
     39 C         -21.8087    1.7263   27.1898 C.2     1  UNL1        0.1651
     40 C         -21.5143    2.4363   26.0377 C.2     1  UNL1        0.2455
     41 C         -27.5088    2.1934   29.9587 C.3     1  UNL1        0.0964
     42 O         -23.1976    1.6383   24.3434 O.3     1  UNL1       -0.1725
@<TRIPOS>BOND
     1     1    37    1
     2     2     7    1
     3     2     1    1
     4     3     2    2
     5     4     3    1
     6     4     5    2
     7     5     6    1
     8     6     7    2
     9     8     1    1
    10     8     9    1
    11     8    12    1
    12     9    10    1
    13    10    11    1
    14    12    11    1
    15    13    14    1
    16    13    32    1
    17    14    15    1
    18    15    18    2
    19    16    17    1
    20    16    15    1
    21    19    14    2
    22    20    21    2
    23    20    19    1
    24    21    26    1
    25    22    21    1
    26    23    22    1
    27    24    23    1
    28    24    25    1
    29    26    27    1
    30    26    13    1
    31    29    41    1
    32    31    38    1
    33    32    34    1
    34    32    31    1
    35    33    29    2
    36    35    40    1
    37    36    37    1
    38    36    29    1
    39    37    38    1
    40    38    28    2
    41    39    31    1
    42    39    30    1
    43    40    39    2
    44    42    35    1
    45    42    34    1
