@<TRIPOS>MOLECULE
outputs/IAG933/test6/raw/output_4750_IAG933_linker_design_.xyz
 43 46 0 0 0
SMALL
GASTEIGER

@<TRIPOS>ATOM
      1 C         -24.8550   -1.0120   30.1430 C.3     1  UNL1        0.1989
      2 C         -24.9730   -2.5050   29.7880 C.2     1  UNL1        0.0213
      3 C         -23.9060   -3.1730   29.1460 C.2     1  UNL1       -0.0004
      4 C         -23.9890   -4.5490   28.8530 C.2     1  UNL1       -0.0002
      5 C         -25.1370   -5.2800   29.2050 C.2     1  UNL1       -0.0000
      6 C         -26.2320   -4.6110   29.7840 C.2     1  UNL1       -0.0002
      7 C         -26.1550   -3.2320   30.0650 C.2     1  UNL1       -0.0004
      8 C         -25.3870   -0.6790   31.5710 C.3     1  UNL1        0.1197
      9 C         -25.1890    0.7730   32.0280 C.3     1  UNL1        0.0233
     10 C         -25.3360    0.6840   33.5440 C.3     1  UNL1        0.0204
     11 C         -24.8290   -0.7150   33.9050 C.3     1  UNL1        0.0889
     12 N         -24.7580   -1.4810   32.6460 N.3     1  UNL1       -0.2150
     13 C         -25.6880    1.6140   26.4610 C.2     1  UNL1        0.0413
     14 C         -26.2500    2.9200   26.3950 C.2     1  UNL1        0.0765
     15 C         -25.6420    4.0930   27.1230 C.2     1  UNL1        0.2664
     16 N         -25.6140    5.2520   26.4490 N.am    1  UNL1       -0.1997
     17 C         -25.0260    6.4790   26.9630 C.3     1  UNL1        0.1388
     18 O         -25.1430    3.9660   28.2430 O.2     1  UNL1       -0.2683
     19 C         -27.4380    3.0910   25.6450 C.2     1  UNL1        0.1067
     20 N         -28.0750    2.0890   25.0030 N.2     1  UNL1       -0.2081
     21 C         -27.5430    0.8490   25.0790 C.2     1  UNL1        0.2533
     22 O         -28.1930   -0.2080   24.4770 O.2     1  UNL1       -0.4558
     23 C         -29.4600    0.0050   23.8660 C.3     1  UNL1        0.2426
     24 C         -30.0650   -1.3770   23.5730 C.3     1  UNL1        0.2292
     25 O         -30.7290   -1.8780   24.7210 O.3     1  UNL1       -0.2162
     26 C         -26.3540    0.5760   25.7770 C.2     1  UNL1        0.1930
     27 F         -25.8600   -0.6810   25.7950 F       1  UNL1       -0.1992
     28 C         -26.9805    4.8251   31.7562 C.3     1  UNL1        0.1825
     29 O         -27.0518    5.2061   30.3996 O.3     1  UNL1       -0.2204
     30 C         -25.2101    0.7870   28.5971 C.3     1  UNL1        0.2162
     31 C         -24.6925    1.4259   27.4248 C.2     1  UNL1        0.0674
     32 C         -22.4632    0.9581   28.2233 C.2     1  UNL1        0.1804
     33 N         -22.2444   -0.4297   30.1975 N.pl3   1  UNL1        0.2107
     34 C         -29.1133    3.5571   31.2711 C.3     1  UNL1        0.0371
     35 CL        -20.7762    1.2209   28.0798 Cl      1  UNL1       -0.0712
     36 C         -27.7347    1.7859   29.5387 C.1     1  UNL1       -0.1055
     37 C         -23.0189    0.1448   29.2733 C.2     1  UNL1        0.3787
     38 C         -28.8256    2.7730   29.8700 C.2     1  UNL1        0.0151
     39 N         -24.3601    0.0230   29.3478 N.pl3   1  UNL1       -0.1820
     40 C         -26.6426    0.9942   29.1007 C.2     1  UNL1        0.0656
     41 C         -23.2669    1.5469   27.2521 C.2     1  UNL1        0.2135
     42 O         -22.7033    2.2405   26.2377 O.2     1  UNL1       -0.2856
     43 C         -27.8689    3.6711   32.2009 C.3     1  UNL1        0.0409
@<TRIPOS>BOND
     1     1     2    1
     2     2     7    1
     3     3     2    2
     4     4     3    1
     5     4     5    2
     6     5     6    1
     7     6     7    2
     8     8     1    1
     9     8     9    1
    10     8    12    1
    11     9    10    1
    12    10    11    1
    13    12    11    1
    14    13    31    1
    15    14    13    1
    16    14    15    1
    17    15    18    2
    18    16    17    1
    19    16    15    1
    20    19    14    2
    21    20    21    2
    22    20    19    1
    23    21    26    1
    24    22    21    1
    25    23    22    1
    26    24    23    1
    27    24    25    1
    28    26    27    1
    29    26    13    2
    30    28    43    1
    31    29    28    1
    32    30    40    1
    33    30    39    1
    34    31    30    1
    35    32    37    2
    36    34    43    1
    37    35    32    1
    38    36    38    2
    39    37    39    1
    40    37    33    1
    41    38    34    1
    42    39     1    1
    43    40    36    2
    44    41    31    2
    45    41    32    1
    46    42    41    1
