@<TRIPOS>MOLECULE
No_4751-gen_results/8p0m/2024-11-27-11-27-31/
 19 20 0 0 0
SMALL
GASTEIGER

@<TRIPOS>ATOM
      1 C         -28.0162   -0.8135   28.8779 C.ar    1  UNL1        0.0259
      2 C         -27.0636   -0.1189   28.6079 C.ar    1  UNL1        0.0527
      3 C         -25.7647   -0.3897   29.0360 C.ar    1  UNL1        0.0848
      4 C         -25.5296   -1.5302   29.9014 C.ar    1  UNL1        0.0060
      5 C         -26.6888   -2.2893   30.1810 C.ar    1  UNL1        0.0114
      6 C         -27.8727   -1.9508   29.7373 C.ar    1  UNL1        0.0589
      7 CL        -29.1941   -2.9228   30.2191 Cl      1  UNL1       -0.0822
      8 C         -24.5326    0.4193   28.7249 C.3     1  UNL1        0.4197
      9 F         -24.5743    0.9362   27.5795 F       1  UNL1       -0.1658
     10 F         -23.3791   -0.3777   28.7110 F       1  UNL1       -0.1658
     11 F         -24.3113    1.3444   29.6438 F       1  UNL1       -0.1658
     12 N         -27.3933    0.9215   27.7848 N.pl3   1  UNL1       -0.3054
     13 C         -27.7517    1.9649   28.2483 C.3     1  UNL1        0.0910
     14 C         -27.2550    0.7267   26.3302 C.3     1  UNL1        0.0950
     15 C         -27.9803    3.0981   27.5031 C.3     1  UNL1        0.0215
     16 C         -26.9032   -0.3283   25.6914 C.2     1  UNL1       -0.0068
     17 C         -27.5148    1.8853   25.5408 C.3     1  UNL1        0.0243
     18 C         -27.8758    3.1102   26.1328 C.3     1  UNL1        0.0038
     19 C         -26.3212   -0.2224   24.5302 C.2     1  UNL1       -0.0032
@<TRIPOS>BOND
     1     6     7    1
     2     3     8    1
     3     8     9    1
     4     8    10    1
     5     8    11    1
     6     2    12    1
     7    12    13    1
     8    12    14    1
     9    14    16    1
    10    14    17    1
    11    15    18    1
    12    16    19    2
    13    13    15    1
    14    18    17    1
    15     1     2   ar
    16     2     3   ar
    17     3     4   ar
    18     4     5   ar
    19     5     6   ar
    20     6     1   ar
