@<TRIPOS>MOLECULE
No_4752-gen_results/8p0m/2024-11-27-11-27-31/
 19 20 0 0 0
SMALL
GASTEIGER

@<TRIPOS>ATOM
      1 C         -28.0162   -0.8135   28.8779 C.ar    1  UNL1        0.0259
      2 C         -28.4690   -0.7850   29.8287 C.ar    1  UNL1        0.0596
      3 C         -27.0871    0.2903   28.6377 C.ar    1  UNL1        0.0938
      4 C         -26.7676    1.0274   29.4716 C.ar    1  UNL1        0.1663
      5 C         -28.2764    0.0268   31.0145 C.ar    1  UNL1        0.0259
      6 C         -27.3287    1.0538   30.7535 C.ar    1  UNL1        0.0938
      7 CL        -26.2914    0.2875   27.0609 Cl      1  UNL1       -0.0790
      8 CL        -29.6076   -2.1903   30.0922 Cl      1  UNL1       -0.0822
      9 O         -25.8271    2.1129   29.2372 O.3     1  UNL1       -0.4487
     10 C         -24.5556    1.8215   29.1193 C.ar    1  UNL1        0.1792
     11 C         -23.7971    1.3001   30.0665 C.ar    1  UNL1        0.0429
     12 C         -22.5155    0.8457   29.8855 C.ar    1  UNL1        0.0330
     13 C         -21.9633    0.8547   28.5992 C.ar    1  UNL1        0.1434
     14 C         -22.7020    1.5154   27.5660 C.ar    1  UNL1        0.0697
     15 C         -24.0184    1.9792   27.8037 C.ar    1  UNL1        0.1752
     16 F         -20.7928    0.4295   28.3975 F       1  UNL1       -0.2041
     17 O         -24.6481    2.5627   26.8238 O.3     1  UNL1       -0.4683
     18 C         -24.0609    3.7712   26.3253 C.3     1  UNL1        0.2526
     19 CL        -26.9901    2.1713   32.0385 Cl      1  UNL1       -0.0790
@<TRIPOS>BOND
     1     3     7    1
     2     2     8    1
     3     4     9    1
     4     9    10    1
     5    13    16    1
     6    15    17    1
     7    17    18    1
     8     6    19    1
     9     1     2   ar
    10     2     5   ar
    11     5     6   ar
    12     6     4   ar
    13     4     3   ar
    14     3     1   ar
    15    10    11   ar
    16    11    12   ar
    17    12    13   ar
    18    13    14   ar
    19    14    15   ar
    20    15    10   ar
