@<TRIPOS>MOLECULE
No_4754-gen_results/8p0m/2024-11-27-11-27-31/
 16 17 0 0 0
SMALL
GASTEIGER

@<TRIPOS>ATOM
      1 C         -28.0162   -0.8135   28.8779 C.ar    1  UNL1       -0.0023
      2 C         -27.0636   -0.1190   28.6079 C.ar    1  UNL1       -0.0003
      3 C         -25.7923   -0.4302   29.0761 C.ar    1  UNL1       -0.0000
      4 C         -25.5756   -1.5654   29.9363 C.ar    1  UNL1       -0.0003
      5 C         -26.7354   -2.3004   30.2173 C.ar    1  UNL1       -0.0023
      6 C         -27.9184   -1.9537   29.7629 C.ar    1  UNL1        0.0020
      7 C         -27.1057    1.1023   27.7593 C.ar    1  UNL1       -0.0000
      8 C         -26.7157    2.2350   27.9945 C.ar    1  UNL1       -0.0000
      9 C         -26.6929    3.3459   27.0337 C.ar    1  UNL1       -0.0000
     10 C         -27.1962    3.0779   25.7437 C.ar    1  UNL1        0.0000
     11 C         -27.5814    0.8882   26.3714 C.ar    1  UNL1       -0.0000
     12 C         -27.6131    1.8443   25.4645 C.ar    1  UNL1       -0.0000
     13 C         -29.0590   -2.7811   30.2183 C.3     1  UNL1        0.1515
     14 N         -29.4912   -2.5704   31.2392 N.2     1  UNL1       -0.2687
     15 C         -30.5606   -2.2895   31.6941 C.2     1  UNL1        0.0675
     16 C         -30.9155   -2.0883   33.1108 C.3     1  UNL1        0.0529
@<TRIPOS>BOND
     1     2     7    1
     2     6    13    1
     3    13    14    1
     4    14    15    2
     5    15    16    1
     6     7     8   ar
     7     8     9   ar
     8     9    10   ar
     9    10    12   ar
    10    12    11   ar
    11    11     7   ar
    12     1     2   ar
    13     2     3   ar
    14     3     4   ar
    15     4     5   ar
    16     5     6   ar
    17     6     1   ar
