@<TRIPOS>MOLECULE
No_4755-gen_results/8p0m/2024-11-27-11-27-31/
 18 18 0 0 0
SMALL
GASTEIGER

@<TRIPOS>ATOM
      1 C         -28.0162   -0.8135   28.8779 C.ar    1  UNL1        0.0111
      2 C         -28.4690   -0.7850   29.8287 C.ar    1  UNL1        0.0008
      3 C         -26.5455   -0.8762   28.8500 C.ar    1  UNL1        0.0537
      4 C         -25.8041   -1.0324   30.0571 C.ar    1  UNL1       -0.0116
      5 C         -24.3697   -1.0998   30.0718 C.3     1  UNL1        0.0272
      6 C         -27.9902   -1.0051   31.2092 C.ar    1  UNL1       -0.0003
      7 C         -26.5616   -1.1368   31.2600 C.ar    1  UNL1       -0.0034
      8 C         -23.7274    0.1713   30.0259 C.3     1  UNL1        0.0050
      9 C         -23.2449    0.7308   28.8689 C.3     1  UNL1        0.0050
     10 C         -23.6630    1.9630   28.3780 C.3     1  UNL1        0.0260
     11 C         -24.7937    2.4935   28.8829 C.2     1  UNL1       -0.0261
     12 C         -25.3422    3.6703   28.3055 C.2     1  UNL1       -0.0046
     13 C         -26.3990    4.3343   28.9485 C.2     1  UNL1       -0.0003
     14 C         -27.0099    5.3669   28.4802 C.2     1  UNL1       -0.0003
     15 CL        -25.6171   -0.7416   27.4176 Cl      1  UNL1       -0.0826
     16 C         -28.0644    6.0446   29.1616 C.2     1  UNL1       -0.0046
     17 C         -28.5621    5.4247   30.2997 C.2     1  UNL1       -0.0258
     18 C         -27.9825    4.3051   30.8303 C.3     1  UNL1        0.0307
@<TRIPOS>BOND
     1     4     5    1
     2     5     8    1
     3     8     9    1
     4     9    10    1
     5    10    11    1
     6    11    12    2
     7    12    13    1
     8    13    14    2
     9     3    15    1
    10    14    16    1
    11    16    17    2
    12    17    18    1
    13     1     2   ar
    14     2     6   ar
    15     6     7   ar
    16     7     4   ar
    17     4     3   ar
    18     3     1   ar
