@<TRIPOS>MOLECULE
No_4756-gen_results/8p0m/2024-11-27-11-27-31/
 25 28 0 0 0
SMALL
GASTEIGER

@<TRIPOS>ATOM
      1 C         -28.0162   -0.8135   28.8779 C.3     1  UNL1        0.0001
      2 C         -28.4690   -0.7850   29.8287 C.3     1  UNL1        0.0000
      3 C         -27.1356    0.2359   28.5352 C.3     1  UNL1        0.0016
      4 C         -26.3351    0.2900   27.2835 C.3     1  UNL1        0.0042
      5 C         -28.3692    0.1957   30.9236 C.3     1  UNL1        0.0000
      6 C         -27.5158    1.2655   30.6540 C.3     1  UNL1        0.0000
      7 C         -26.8411    1.2942   29.4761 C.3     1  UNL1        0.0001
      8 C         -25.6775    1.5199   26.9774 C.3     1  UNL1        0.0003
      9 C         -24.6512    1.5543   26.2096 C.3     1  UNL1        0.0000
     10 C         -23.8549    0.5222   25.7619 C.3     1  UNL1        0.0000
     11 C         -25.2253   -0.7227   27.1781 C.3     1  UNL1        0.0004
     12 C         -24.2036   -0.6336   26.2739 C.3     1  UNL1        0.0000
     13 C         -27.2959    0.0853   26.0385 C.3     1  UNL1        0.0286
     14 C         -28.4811    0.8173   26.1758 C.ar    1  UNL1        0.0053
     15 C         -28.9802    1.1122   25.2199 C.ar    1  UNL1       -0.0020
     16 C         -30.1933    1.9813   25.2022 C.ar    1  UNL1       -0.0002
     17 C         -30.7011    2.5060   26.3852 C.ar    1  UNL1        0.0023
     18 C         -30.0247    2.1143   27.5635 C.ar    1  UNL1        0.0293
     19 C         -28.9071    1.3549   27.4896 C.ar    1  UNL1        0.1361
     20 F         -29.0570    0.6963   28.4597 F       1  UNL1       -0.2045
     21 C         -26.0684   -0.2239   29.0235 C.3     1  UNL1        0.0174
     22 C         -24.7263   -0.5958   28.6520 C.3     1  UNL1        0.0014
     23 C         -26.0138   -0.7523   30.4872 C.3     1  UNL1        0.0887
     24 N         -25.8747   -0.8362   29.7927 N.3     1  UNL1       -0.2165
     25 C         -25.8940   -2.3187   29.2769 C.3     1  UNL1        0.1075
@<TRIPOS>BOND
     1     1     3    1
     2     3     4    1
     3     2     5    1
     4     3     7    1
     5     6     7    1
     6     4     8    1
     7     9    10    1
     8     4    11    1
     9    10    12    1
    10    11    12    1
    11     4    13    1
    12    13    14    1
    13    19    20    1
    14     3    21    1
    15    11    22    1
    16    21    22    1
    17    21    23    1
    18    23    24    1
    19    24    25    1
    20     8     9    1
    21     1     2    1
    22     5     6    1
    23    14    15   ar
    24    15    16   ar
    25    16    17   ar
    26    17    18   ar
    27    18    19   ar
    28    19    14   ar
