@<TRIPOS>MOLECULE
outputs/IAG933/test6/raw/output_4757_IAG933_linker_design_.xyz
 49 53 0 0 0
SMALL
GASTEIGER

@<TRIPOS>ATOM
      1 C         -24.8550   -1.0120   30.1430 C.3     1  UNL1        0.1411
      2 C         -24.9730   -2.5050   29.7880 C.2     1  UNL1        0.0012
      3 C         -23.9060   -3.1730   29.1460 C.2     1  UNL1       -0.0024
      4 C         -23.9890   -4.5490   28.8530 C.2     1  UNL1       -0.0003
      5 C         -25.1370   -5.2800   29.2050 C.2     1  UNL1       -0.0000
      6 C         -26.2320   -4.6110   29.7840 C.2     1  UNL1       -0.0003
      7 C         -26.1550   -3.2320   30.0650 C.2     1  UNL1       -0.0024
      8 C         -25.3870   -0.6790   31.5710 C.3     1  UNL1        0.0993
      9 C         -25.1890    0.7730   32.0280 C.3     1  UNL1        0.0212
     10 C         -25.3360    0.6840   33.5440 C.3     1  UNL1        0.0203
     11 C         -24.8290   -0.7150   33.9050 C.3     1  UNL1        0.0888
     12 N         -24.7580   -1.4810   32.6460 N.3     1  UNL1       -0.2171
     13 C         -25.6880    1.6140   26.4610 C.2     1  UNL1        0.0407
     14 C         -26.2500    2.9200   26.3950 C.2     1  UNL1        0.0744
     15 C         -25.6420    4.0930   27.1230 C.2     1  UNL1        0.2219
     16 N         -25.6140    5.2520   26.4490 N.2     1  UNL1       -0.2357
     17 C         -25.0260    6.4790   26.9630 C.3     1  UNL1        0.1550
     18 O         -25.1430    3.9660   28.2430 O.2     1  UNL1       -0.4623
     19 C         -27.4380    3.0910   25.6450 C.2     1  UNL1        0.1068
     20 N         -28.0750    2.0890   25.0030 N.2     1  UNL1       -0.2081
     21 C         -27.5430    0.8490   25.0790 C.2     1  UNL1        0.2533
     22 O         -28.1930   -0.2080   24.4770 O.2     1  UNL1       -0.4558
     23 C         -29.4600    0.0050   23.8660 C.3     1  UNL1        0.2426
     24 C         -30.0650   -1.3770   23.5730 C.3     1  UNL1        0.2292
     25 O         -30.7290   -1.8780   24.7210 O.3     1  UNL1       -0.2162
     26 C         -26.3540    0.5760   25.7770 C.2     1  UNL1        0.1931
     27 F         -25.8600   -0.6810   25.7950 F       1  UNL1       -0.1992
     28 C         -27.8202    3.3770   30.5383 C.2     1  UNL1        0.3277
     29 C         -25.5380    3.7222   29.5984 C.3     1  UNL1        0.1908
     30 C         -28.6421    1.0215   30.8433 C.2     1  UNL1        0.0749
     31 C         -26.4806    5.3599   33.6991 C.3     1  UNL1        0.1637
     32 N         -27.9057    2.0942   30.7599 N.am    1  UNL1       -0.1622
     33 C         -30.0288   -0.6214   29.7614 C.2     1  UNL1        0.0013
     34 C         -21.6751    1.2116   27.7778 C.3     1  UNL1        0.1745
     35 C         -29.1109    0.6794   32.0786 C.2     1  UNL1        0.0166
     36 C         -23.8119    1.5361   29.0413 C.3     1  UNL1        0.1594
     37 C         -22.9292    0.3473   29.8360 C.2     1  UNL1        0.0965
     38 C         -24.5560    2.5636   30.0032 C.3     1  UNL1        0.0811
     39 C         -27.1193    4.1621   33.0489 C.3     1  UNL1        0.1272
     40 O         -22.9682    1.7889   27.9695 O.3     1  UNL1       -0.3475
     41 O         -25.0929    5.2453   33.5098 O.3     1  UNL1       -0.3501
     42 C         -25.8382    4.6373   30.9543 C.3     1  UNL1        0.1464
     43 C         -30.5497   -0.9210   31.0193 C.2     1  UNL1        0.0001
     44 N         -27.0413    4.1197   31.5398 N.am    1  UNL1       -0.2556
     45 C         -24.8644    5.0225   32.1126 C.3     1  UNL1        0.1656
     46 C         -30.0805   -0.2983   32.1724 C.2     1  UNL1        0.0013
     47 N         -23.4445   -0.6734   30.2248 N.2     1  UNL1       -0.2672
     48 O         -28.3265    3.9974   29.6099 O.2     1  UNL1       -0.2504
     49 C         -29.0145    0.3273   29.6795 C.2     1  UNL1        0.0166
@<TRIPOS>BOND
     1     1    47    1
     2     2     7    1
     3     2     1    1
     4     3     2    2
     5     4     3    1
     6     4     5    2
     7     5     6    1
     8     6     7    2
     9     8     1    1
    10     8     9    1
    11     8    12    1
    12     9    10    1
    13    10    11    1
    14    12    11    1
    15    14    13    1
    16    14    15    1
    17    15    18    1
    18    16    17    1
    19    16    15    2
    20    18    29    1
    21    19    14    2
    22    20    21    2
    23    20    19    1
    24    21    26    1
    25    22    21    1
    26    23    22    1
    27    24    23    1
    28    24    25    1
    29    26    27    1
    30    26    13    2
    31    28    32    1
    32    28    44   am
    33    29    38    1
    34    30    35    1
    35    32    30    1
    36    33    43    2
    37    34    40    1
    38    35    46    2
    39    36    37    1
    40    36    38    1
    41    37    47    2
    42    39    31    1
    43    40    36    1
    44    41    31    1
    45    42    29    1
    46    42    44    1
    47    42    45    1
    48    43    46    1
    49    44    39    1
    50    45    41    1
    51    48    28    2
    52    49    33    1
    53    49    30    2
