@<TRIPOS>MOLECULE
outputs/IAG933/test6/raw/output_4759_IAG933_linker_design_.xyz
 42 45 0 0 0
SMALL
GASTEIGER

@<TRIPOS>ATOM
      1 C         -24.8550   -1.0120   30.1430 C.3     1  UNL1        0.1549
      2 C         -24.9730   -2.5050   29.7880 C.2     1  UNL1        0.0060
      3 C         -23.9060   -3.1730   29.1460 C.2     1  UNL1       -0.0019
      4 C         -23.9890   -4.5490   28.8530 C.2     1  UNL1       -0.0002
      5 C         -25.1370   -5.2800   29.2050 C.2     1  UNL1       -0.0000
      6 C         -26.2320   -4.6110   29.7840 C.2     1  UNL1       -0.0002
      7 C         -26.1550   -3.2320   30.0650 C.2     1  UNL1       -0.0019
      8 C         -25.3870   -0.6790   31.5710 C.3     1  UNL1        0.1042
      9 C         -25.1890    0.7730   32.0280 C.3     1  UNL1        0.0217
     10 C         -25.3360    0.6840   33.5440 C.3     1  UNL1        0.0203
     11 C         -24.8290   -0.7150   33.9050 C.3     1  UNL1        0.0888
     12 N         -24.7580   -1.4810   32.6460 N.3     1  UNL1       -0.2166
     13 C         -25.6880    1.6140   26.4610 C.2     1  UNL1        0.0407
     14 C         -26.2500    2.9200   26.3950 C.2     1  UNL1        0.0755
     15 C         -25.6420    4.0930   27.1230 C.2     1  UNL1        0.2374
     16 N         -25.6140    5.2520   26.4490 N.2     1  UNL1       -0.2347
     17 C         -25.0260    6.4790   26.9630 C.3     1  UNL1        0.1550
     18 O         -25.1430    3.9660   28.2430 O.2     1  UNL1       -0.3863
     19 C         -27.4380    3.0910   25.6450 C.2     1  UNL1        0.1068
     20 N         -28.0750    2.0890   25.0030 N.2     1  UNL1       -0.2081
     21 C         -27.5430    0.8490   25.0790 C.2     1  UNL1        0.2533
     22 O         -28.1930   -0.2080   24.4770 O.2     1  UNL1       -0.4558
     23 C         -29.4600    0.0050   23.8660 C.3     1  UNL1        0.2426
     24 C         -30.0650   -1.3770   23.5730 C.3     1  UNL1        0.2292
     25 O         -30.7290   -1.8780   24.7210 O.3     1  UNL1       -0.2162
     26 C         -26.3540    0.5760   25.7770 C.2     1  UNL1        0.1931
     27 F         -25.8600   -0.6810   25.7950 F       1  UNL1       -0.1992
     28 C         -21.0073    1.9167   25.9075 C.2     1  UNL1        0.0140
     29 S         -25.8821    3.2513   29.4889 S.3     1  UNL1        0.1445
     30 C         -28.4831    2.7297   29.9067 C.3     1  UNL1        0.1993
     31 C         -20.7819    1.1688   27.0222 C.2     1  UNL1        0.1675
     32 O         -29.6346    2.6967   29.0579 O.3     1  UNL1       -0.2192
     33 C         -23.3817    1.8990   28.9307 C.3     1  UNL1        0.0925
     34 C         -27.5030    3.7843   29.3891 C.3     1  UNL1        0.1579
     35 O         -21.7111    0.9678   27.9260 O.2     1  UNL1       -0.4763
     36 C         -22.8229    1.5975   27.7196 C.3     1  UNL1        0.1703
     37 C         -23.1762    2.0247   26.3911 C.3     1  UNL1        0.0484
     38 N         -25.6901    1.5685   29.4711 N.3     1  UNL1       -0.0949
     39 O         -25.1912    3.6978   30.5007 O.3     1  UNL1       -0.1169
     40 C         -24.3530    1.1914   29.5703 C.3     1  UNL1        0.2071
     41 C         -22.2403    2.3773   25.4834 C.3     1  UNL1        0.0330
     42 O         -23.9817   -0.1607   29.5571 O.3     1  UNL1       -0.3352
@<TRIPOS>BOND
     1     1    42    1
     2     2     7    1
     3     2     1    1
     4     3     2    2
     5     4     3    1
     6     4     5    2
     7     5     6    1
     8     6     7    2
     9     8     1    1
    10     8     9    1
    11     8    12    1
    12     9    10    1
    13    10    11    1
    14    12    11    1
    15    14    13    1
    16    14    15    1
    17    15    18    1
    18    16    17    1
    19    16    15    2
    20    18    29    1
    21    19    14    2
    22    20    21    2
    23    20    19    1
    24    21    26    1
    25    22    21    1
    26    23    22    1
    27    24    23    1
    28    24    25    1
    29    26    27    1
    30    26    13    2
    31    28    31    2
    32    29    39    1
    33    31    35    1
    34    32    30    1
    35    34    29    1
    36    34    30    1
    37    36    35    1
    38    36    33    1
    39    37    36    1
    40    38    29    1
    41    38    40    1
    42    40    33    1
    43    41    28    1
    44    41    37    1
    45    42    40    1
