@<TRIPOS>MOLECULE
outputs/IAG933/test6/raw/output_4762_IAG933_linker_design_.xyz
 43 47 0 0 0
SMALL
GASTEIGER

@<TRIPOS>ATOM
      1 C         -24.8550   -1.0120   30.1430 C.3     1  UNL1        0.1113
      2 C         -24.9730   -2.5050   29.7880 C.2     1  UNL1       -0.0051
      3 C         -23.9060   -3.1730   29.1460 C.2     1  UNL1       -0.0029
      4 C         -23.9890   -4.5490   28.8530 C.2     1  UNL1       -0.0003
      5 C         -25.1370   -5.2800   29.2050 C.2     1  UNL1       -0.0000
      6 C         -26.2320   -4.6110   29.7840 C.2     1  UNL1       -0.0003
      7 C         -26.1550   -3.2320   30.0650 C.2     1  UNL1       -0.0029
      8 C         -25.3870   -0.6790   31.5710 C.3     1  UNL1        0.0929
      9 C         -25.1890    0.7730   32.0280 C.3     1  UNL1        0.0206
     10 C         -25.3360    0.6840   33.5440 C.3     1  UNL1        0.0203
     11 C         -24.8290   -0.7150   33.9050 C.3     1  UNL1        0.0888
     12 N         -24.7580   -1.4810   32.6460 N.3     1  UNL1       -0.2177
     13 C         -25.6880    1.6140   26.4610 C.2     1  UNL1        0.0407
     14 C         -26.2500    2.9200   26.3950 C.2     1  UNL1        0.0744
     15 C         -25.6420    4.0930   27.1230 C.2     1  UNL1        0.2222
     16 N         -25.6140    5.2520   26.4490 N.2     1  UNL1       -0.2356
     17 C         -25.0260    6.4790   26.9630 C.3     1  UNL1        0.1550
     18 O         -25.1430    3.9660   28.2430 O.2     1  UNL1       -0.4578
     19 C         -27.4380    3.0910   25.6450 C.2     1  UNL1        0.1068
     20 N         -28.0750    2.0890   25.0030 N.2     1  UNL1       -0.2081
     21 C         -27.5430    0.8490   25.0790 C.2     1  UNL1        0.2533
     22 O         -28.1930   -0.2080   24.4770 O.2     1  UNL1       -0.4558
     23 C         -29.4600    0.0050   23.8660 C.3     1  UNL1        0.2426
     24 C         -30.0650   -1.3770   23.5730 C.3     1  UNL1        0.2292
     25 O         -30.7290   -1.8780   24.7210 O.3     1  UNL1       -0.2162
     26 C         -26.3540    0.5760   25.7770 C.2     1  UNL1        0.1931
     27 F         -25.8600   -0.6810   25.7950 F       1  UNL1       -0.1992
     28 O         -22.0552    0.1728   29.7771 O.2     1  UNL1       -0.2869
     29 C         -22.7765    2.2020   26.1544 C.2     1  UNL1       -0.0001
     30 C         -24.5552    1.4506   29.4221 C.3     1  UNL1        0.1426
     31 C         -23.6477    2.1678   27.2068 C.2     1  UNL1        0.0004
     32 C         -27.6380    5.2522   32.0970 C.2     1  UNL1       -0.0000
     33 N         -25.0481    0.0413   29.1518 N.3     1  UNL1       -0.2065
     34 C         -25.3374    2.8860   29.2348 C.3     1  UNL1        0.2098
     35 C         -26.2087    3.3729   30.2215 C.2     1  UNL1        0.0190
     36 C         -21.2497    1.0531   27.6903 C.2     1  UNL1        0.0417
     37 C         -23.3830    1.5846   28.4782 C.2     1  UNL1        0.0363
     38 C         -28.3119    4.2549   31.3492 C.2     1  UNL1       -0.0002
     39 C         -26.2207    5.3473   31.9245 C.2     1  UNL1       -0.0002
     40 C         -21.5200    1.7352   26.4598 C.2     1  UNL1        0.0033
     41 C         -27.6624    3.2940   30.5312 C.2     1  UNL1       -0.0008
     42 C         -22.2547    0.9281   28.7139 C.2     1  UNL1        0.1931
     43 C         -25.5297    4.4522   31.0476 C.2     1  UNL1       -0.0008
@<TRIPOS>BOND
     1     1    33    1
     2     2     7    1
     3     2     1    1
     4     3     2    2
     5     4     3    1
     6     4     5    2
     7     5     6    1
     8     6     7    2
     9     8     1    1
    10     8     9    1
    11     8    12    1
    12     9    10    1
    13    10    11    1
    14    12    11    1
    15    14    13    1
    16    14    15    1
    17    15    18    1
    18    16    17    1
    19    16    15    2
    20    19    14    2
    21    20    21    2
    22    20    19    1
    23    21    26    1
    24    22    21    1
    25    23    22    1
    26    24    23    1
    27    24    25    1
    28    26    27    1
    29    26    13    2
    30    29    40    2
    31    29    31    1
    32    30    33    1
    33    31    37    2
    34    34    18    1
    35    34    30    1
    36    34    35    1
    37    35    41    2
    38    35    43    1
    39    36    42    2
    40    37    42    1
    41    37    30    1
    42    38    32    2
    43    39    32    1
    44    40    36    1
    45    41    38    1
    46    42    28    1
    47    43    39    2
