@<TRIPOS>MOLECULE
No_4763-gen_results/8p0m/2024-11-27-11-27-31/
 9 9 0 0 0
SMALL
GASTEIGER

@<TRIPOS>ATOM
      1 C         -28.0162   -0.8135   28.8779 C.3     1  UNL1        0.3410
      2 C         -27.0636   -0.1189   28.6079 C.ar    1  UNL1        0.0436
      3 C         -26.9716    0.7139   27.5060 C.ar    1  UNL1        0.0011
      4 C         -25.8205    1.4909   27.1160 C.ar    1  UNL1       -0.0001
      5 C         -24.6562    1.4242   27.9180 C.ar    1  UNL1       -0.0000
      6 C         -24.6847    0.5901   29.0659 C.ar    1  UNL1       -0.0001
      7 C         -25.8099   -0.1265   29.3338 C.ar    1  UNL1        0.0011
      8 F         -27.8765   -1.9963   29.2445 F       1  UNL1       -0.1933
      9 F         -28.8921   -0.8880   27.8243 F       1  UNL1       -0.1933
@<TRIPOS>BOND
     1     1     8    1
     2     1     9    1
     3     1     2    1
     4     2     3   ar
     5     3     4   ar
     6     4     5   ar
     7     5     6   ar
     8     6     7   ar
     9     7     2   ar
