@<TRIPOS>MOLECULE
outputs/IAG933/test6/raw/output_4765_IAG933_linker_design_.xyz
 42 45 0 0 0
SMALL
GASTEIGER

@<TRIPOS>ATOM
      1 C         -24.8550   -1.0120   30.1430 C.3     1  UNL1        0.1536
      2 C         -24.9730   -2.5050   29.7880 C.2     1  UNL1        0.0059
      3 C         -23.9060   -3.1730   29.1460 C.2     1  UNL1       -0.0019
      4 C         -23.9890   -4.5490   28.8530 C.2     1  UNL1       -0.0002
      5 C         -25.1370   -5.2800   29.2050 C.2     1  UNL1       -0.0000
      6 C         -26.2320   -4.6110   29.7840 C.2     1  UNL1       -0.0002
      7 C         -26.1550   -3.2320   30.0650 C.2     1  UNL1       -0.0019
      8 C         -25.3870   -0.6790   31.5710 C.3     1  UNL1        0.1041
      9 C         -25.1890    0.7730   32.0280 C.3     1  UNL1        0.0217
     10 C         -25.3360    0.6840   33.5440 C.3     1  UNL1        0.0203
     11 C         -24.8290   -0.7150   33.9050 C.3     1  UNL1        0.0888
     12 N         -24.7580   -1.4810   32.6460 N.3     1  UNL1       -0.2166
     13 C         -25.6880    1.6140   26.4610 C.3     1  UNL1        0.0952
     14 C         -26.2500    2.9200   26.3950 C.2     1  UNL1        0.0590
     15 C         -25.6420    4.0930   27.1230 C.2     1  UNL1        0.2628
     16 N         -25.6140    5.2520   26.4490 N.am    1  UNL1       -0.2000
     17 C         -25.0260    6.4790   26.9630 C.3     1  UNL1        0.1388
     18 O         -25.1430    3.9660   28.2430 O.2     1  UNL1       -0.2686
     19 C         -27.4380    3.0910   25.6450 C.2     1  UNL1        0.1025
     20 N         -28.0750    2.0890   25.0030 N.2     1  UNL1       -0.2118
     21 C         -27.5430    0.8490   25.0790 C.2     1  UNL1        0.2344
     22 O         -28.1930   -0.2080   24.4770 O.2     1  UNL1       -0.4585
     23 C         -29.4600    0.0050   23.8660 C.3     1  UNL1        0.2423
     24 C         -30.0650   -1.3770   23.5730 C.3     1  UNL1        0.2292
     25 O         -30.7290   -1.8780   24.7210 O.3     1  UNL1       -0.2162
     26 C         -26.3540    0.5760   25.7770 C.3     1  UNL1        0.2441
     27 F         -25.8600   -0.6810   25.7950 F       1  UNL1       -0.2265
     28 C         -22.6572    1.3377   28.5361 C.2     1  UNL1        0.0520
     29 O         -22.0434    2.0817   26.2742 O.2     1  UNL1       -0.4433
     30 C         -25.1156    1.1004   29.1262 C.3     1  UNL1        0.1548
     31 C         -24.0035    1.3659   28.1450 C.2     1  UNL1        0.0075
     32 O         -25.7190    3.8419   31.9116 O.co2   1  UNL1       -0.2440
     33 C         -21.7433    1.7532   27.5386 C.3     1  UNL1        0.3509
     34 F         -20.4468    1.8030   27.8441 F       1  UNL1       -0.1833
     35 C         -23.3518    1.9854   25.8618 C.2     1  UNL1        0.1715
     36 C         -26.5176    1.4690   29.7455 C.3     1  UNL1        0.1233
     37 C         -24.2987    1.6265   26.8079 C.2     1  UNL1        0.0203
     38 O         -25.4067   -0.3016   28.9475 O.3     1  UNL1       -0.3470
     39 C         -26.4461    4.4832   31.0939 C.2     1  UNL1        0.3823
     40 N         -27.3032    2.2737   30.7301 N.3     1  UNL1       -0.2037
     41 O         -26.2705    5.7061   30.8169 O.co2   1  UNL1       -0.2440
     42 C         -27.5316    3.6957   30.4249 C.3     1  UNL1        0.2029
@<TRIPOS>BOND
     1     1    38    1
     2     2     7    1
     3     2     1    1
     4     3     2    2
     5     4     3    1
     6     4     5    2
     7     5     6    1
     8     6     7    2
     9     8     1    1
    10     8     9    1
    11     8    12    1
    12     9    10    1
    13    10    11    1
    14    12    11    1
    15    13    37    1
    16    14    13    1
    17    14    15    1
    18    15    18    2
    19    16    17    1
    20    16    15    1
    21    19    14    2
    22    20    21    2
    23    20    19    1
    24    21    26    1
    25    22    21    1
    26    23    22    1
    27    24    23    1
    28    24    25    1
    29    26    27    1
    30    26    13    1
    31    29    33    1
    32    30    36    1
    33    31    28    2
    34    31    30    1
    35    33    34    1
    36    33    28    1
    37    35    29    1
    38    35    37    2
    39    36    40    1
    40    37    31    1
    41    38    30    1
    42    39    32   ar
    43    41    39   ar
    44    42    40    1
    45    42    39    1
