@<TRIPOS>MOLECULE
outputs/IAG933/test6/raw/output_4770_IAG933_linker_design_.xyz
 41 45 0 0 0
SMALL
GASTEIGER

@<TRIPOS>ATOM
      1 C         -24.8550   -1.0120   30.1430 C.3     1  UNL1        0.0572
      2 C         -24.9730   -2.5050   29.7880 C.2     1  UNL1       -0.0195
      3 C         -23.9060   -3.1730   29.1460 C.2     1  UNL1       -0.0042
      4 C         -23.9890   -4.5490   28.8530 C.2     1  UNL1       -0.0003
      5 C         -25.1370   -5.2800   29.2050 C.2     1  UNL1       -0.0000
      6 C         -26.2320   -4.6110   29.7840 C.2     1  UNL1       -0.0003
      7 C         -26.1550   -3.2320   30.0650 C.2     1  UNL1       -0.0042
      8 C         -25.3870   -0.6790   31.5710 C.3     1  UNL1        0.0784
      9 C         -25.1890    0.7730   32.0280 C.3     1  UNL1        0.0192
     10 C         -25.3360    0.6840   33.5440 C.3     1  UNL1        0.0202
     11 C         -24.8290   -0.7150   33.9050 C.3     1  UNL1        0.0887
     12 N         -24.7580   -1.4810   32.6460 N.3     1  UNL1       -0.2191
     13 C         -25.6880    1.6140   26.4610 C.2     1  UNL1        0.0377
     14 C         -26.2500    2.9200   26.3950 C.2     1  UNL1        0.0765
     15 C         -25.6420    4.0930   27.1230 C.2     1  UNL1        0.2664
     16 N         -25.6140    5.2520   26.4490 N.am    1  UNL1       -0.1997
     17 C         -25.0260    6.4790   26.9630 C.3     1  UNL1        0.1388
     18 O         -25.1430    3.9660   28.2430 O.2     1  UNL1       -0.2683
     19 C         -27.4380    3.0910   25.6450 C.2     1  UNL1        0.1067
     20 N         -28.0750    2.0890   25.0030 N.2     1  UNL1       -0.2081
     21 C         -27.5430    0.8490   25.0790 C.2     1  UNL1        0.2533
     22 O         -28.1930   -0.2080   24.4770 O.2     1  UNL1       -0.4558
     23 C         -29.4600    0.0050   23.8660 C.3     1  UNL1        0.2426
     24 C         -30.0650   -1.3770   23.5730 C.3     1  UNL1        0.2292
     25 O         -30.7290   -1.8780   24.7210 O.3     1  UNL1       -0.2162
     26 C         -26.3540    0.5760   25.7770 C.2     1  UNL1        0.1930
     27 F         -25.8600   -0.6810   25.7950 F       1  UNL1       -0.1992
     28 C         -27.9074   -0.2859   28.9349 C.3     1  UNL1        0.0723
     29 C         -29.2037    1.7455   30.4826 C.3     1  UNL1        0.0029
     30 C         -23.2637    1.6898   26.5303 C.2     1  UNL1       -0.0026
     31 CL        -20.6940    1.6242   27.5318 Cl      1  UNL1       -0.1018
     32 O         -22.3166   -0.0651   29.5267 O.2     1  UNL1       -0.2900
     33 C         -25.3501    0.0721   29.1475 C.3     1  UNL1        0.0883
     34 N         -26.6479    0.6110   29.1130 N.3     1  UNL1       -0.2699
     35 C         -26.8098    1.9714   29.4807 C.3     1  UNL1        0.0723
     36 C         -24.4021    1.2818   27.0023 C.2     1  UNL1       -0.0001
     37 C         -29.1849    0.5172   29.7187 C.3     1  UNL1        0.0174
     38 C         -23.0121    0.5525   28.5285 C.2     1  UNL1        0.1892
     39 C         -24.3137    0.5487   28.1903 C.2     1  UNL1        0.0286
     40 C         -22.3503    1.3199   27.4601 C.3     1  UNL1        0.1628
     41 C         -27.9689    2.6922   30.0554 C.3     1  UNL1        0.0174
@<TRIPOS>BOND
     1     1    33    1
     2     2     7    1
     3     2     1    1
     4     3     2    2
     5     4     3    1
     6     4     5    2
     7     5     6    1
     8     6     7    2
     9     8     1    1
    10     8     9    1
    11     8    12    1
    12     9    10    1
    13    10    11    1
    14    12    11    1
    15    13    36    1
    16    14    13    1
    17    14    15    1
    18    15    18    2
    19    16    17    1
    20    16    15    1
    21    19    14    2
    22    20    21    2
    23    20    19    1
    24    21    26    1
    25    22    21    1
    26    23    22    1
    27    24    23    1
    28    24    25    1
    29    26    27    1
    30    26    13    2
    31    28    34    1
    32    28    37    1
    33    30    36    2
    34    30    40    1
    35    33    39    1
    36    34    33    1
    37    34    35    1
    38    35    41    1
    39    36    39    1
    40    37    29    1
    41    38    32    1
    42    39    38    2
    43    40    31    1
    44    40    38    1
    45    41    29    1
