@<TRIPOS>MOLECULE
No_4772-gen_results/8p0m/2024-11-27-11-27-31/
 10 10 0 0 0
SMALL
GASTEIGER

@<TRIPOS>ATOM
      1 C         -28.0162   -0.8135   28.8779 C.ar    1  UNL1        0.0000
      2 C         -28.4690   -0.7850   29.8287 C.ar    1  UNL1        0.0000
      3 C         -27.1356    0.2359   28.5352 C.ar    1  UNL1        0.0000
      4 C         -26.8050    1.0509   29.2763 C.ar    1  UNL1        0.0000
      5 C         -28.2372    0.1503   30.9300 C.ar    1  UNL1        0.0000
      6 C         -27.3522    1.1239   30.6071 C.ar    1  UNL1        0.0000
      7 C         -26.3833    0.3863   27.1651 C.2     1  UNL1        0.0000
      8 C         -25.9668    1.1634   26.6536 C.2     1  UNL1        0.0000
      9 C         -25.3845    2.0055   26.9256 C.2     1  UNL1        0.0000
     10 C         -25.4081    2.7272   28.2632 C.2     1  UNL1        0.0000
@<TRIPOS>BOND
     1     3     7    1
     2     7     8    2
     3     8     9    1
     4     9    10    2
     5     1     2   ar
     6     2     5   ar
     7     5     6   ar
     8     6     4   ar
     9     4     3   ar
    10     3     1   ar
