@<TRIPOS>MOLECULE
outputs/IAG933/test6/raw/output_4781_IAG933_linker_design_.xyz
 43 46 0 0 0
SMALL
GASTEIGER

@<TRIPOS>ATOM
      1 C         -24.8550   -1.0120   30.1430 C.3     1  UNL1        0.1248
      2 C         -24.9730   -2.5050   29.7880 C.2     1  UNL1       -0.0041
      3 C         -23.9060   -3.1730   29.1460 C.2     1  UNL1       -0.0029
      4 C         -23.9890   -4.5490   28.8530 C.2     1  UNL1       -0.0003
      5 C         -25.1370   -5.2800   29.2050 C.2     1  UNL1       -0.0000
      6 C         -26.2320   -4.6110   29.7840 C.2     1  UNL1       -0.0003
      7 C         -26.1550   -3.2320   30.0650 C.2     1  UNL1       -0.0029
      8 C         -25.3870   -0.6790   31.5710 C.3     1  UNL1        0.0939
      9 C         -25.1890    0.7730   32.0280 C.3     1  UNL1        0.0207
     10 C         -25.3360    0.6840   33.5440 C.3     1  UNL1        0.0203
     11 C         -24.8290   -0.7150   33.9050 C.3     1  UNL1        0.0888
     12 N         -24.7580   -1.4810   32.6460 N.3     1  UNL1       -0.2177
     13 C         -25.6880    1.6140   26.4610 C.3     1  UNL1        0.1031
     14 C         -26.2500    2.9200   26.3950 C.2     1  UNL1        0.0574
     15 C         -25.6420    4.0930   27.1230 C.2     1  UNL1        0.2625
     16 N         -25.6140    5.2520   26.4490 N.am    1  UNL1       -0.2000
     17 C         -25.0260    6.4790   26.9630 C.3     1  UNL1        0.1388
     18 O         -25.1430    3.9660   28.2430 O.2     1  UNL1       -0.2687
     19 C         -27.4380    3.0910   25.6450 C.2     1  UNL1        0.1022
     20 N         -28.0750    2.0890   25.0030 N.2     1  UNL1       -0.2119
     21 C         -27.5430    0.8490   25.0790 C.2     1  UNL1        0.2342
     22 O         -28.1930   -0.2080   24.4770 O.2     1  UNL1       -0.4585
     23 C         -29.4600    0.0050   23.8660 C.3     1  UNL1        0.2423
     24 C         -30.0650   -1.3770   23.5730 C.3     1  UNL1        0.2292
     25 O         -30.7290   -1.8780   24.7210 O.3     1  UNL1       -0.2162
     26 C         -26.3540    0.5760   25.7770 C.3     1  UNL1        0.2425
     27 F         -25.8600   -0.6810   25.7950 F       1  UNL1       -0.2268
     28 O         -23.2331    2.3440   25.8316 O.3     1  UNL1       -0.2199
     29 C         -23.7973    2.9892   30.6780 C.1     1  UNL1        0.0593
     30 C         -21.1178    0.0007   28.4646 C.3     1  UNL1        0.1909
     31 F         -21.0966    1.8796   27.1232 F       1  UNL1       -0.2318
     32 C         -24.1480    1.6591   26.7000 C.3     1  UNL1        0.1911
     33 O         -19.9721    0.3763   28.3879 O.3     1  UNL1       -0.2200
     34 C         -21.7537    0.9389   27.4808 C.3     1  UNL1        0.2226
     35 O         -24.0045    5.7534   32.7833 O.3     1  UNL1       -0.2048
     36 O         -24.4589   -0.3595   28.1067 O.3     1  UNL1       -0.2768
     37 C         -23.4105    0.5242   27.4395 C.3     1  UNL1        0.2031
     38 C         -23.0960    0.6520   29.9172 C.3     1  UNL1        0.2178
     39 C         -24.1401    3.7478   31.5779 C.1     1  UNL1       -0.0258
     40 N         -24.1239   -0.1987   29.3981 N.3     1  UNL1       -0.1345
     41 C         -24.6366    4.5031   32.6723 C.3     1  UNL1        0.2597
     42 O         -23.7530    1.9887   29.7046 O.3     1  UNL1       -0.2675
     43 C         -21.8021   -0.2658   29.8205 C.3     1  UNL1        0.0861
@<TRIPOS>BOND
     1     1     2    1
     2     2     7    1
     3     3     2    2
     4     4     3    1
     5     4     5    2
     6     5     6    1
     7     6     7    2
     8     8     1    1
     9     8     9    1
    10     8    12    1
    11     9    10    1
    12    10    11    1
    13    12    11    1
    14    13    32    1
    15    14    13    1
    16    14    15    1
    17    15    18    2
    18    16    17    1
    19    16    15    1
    20    19    14    2
    21    20    21    2
    22    20    19    1
    23    21    26    1
    24    22    21    1
    25    23    22    1
    26    24    23    1
    27    24    25    1
    28    26    27    1
    29    26    13    1
    30    29    39    3
    31    30    33    1
    32    30    43    1
    33    32    28    1
    34    34    31    1
    35    34    30    1
    36    36    40    1
    37    37    32    1
    38    37    34    1
    39    37    36    1
    40    38    42    1
    41    39    41    1
    42    40    38    1
    43    40     1    1
    44    41    35    1
    45    42    29    1
    46    43    38    1
