@<TRIPOS>MOLECULE
No_4782-gen_results/8p0m/2024-11-27-11-27-31/
 12 12 0 0 0
SMALL
GASTEIGER

@<TRIPOS>ATOM
      1 P         -27.9505   -0.5786   29.0402 P.3     1  UNL1        0.5329
      2 O         -27.2401    0.0613   28.4283 O.3     1  UNL1       -0.2653
      3 O         -27.2444   -1.9817   29.3768 O.2     1  UNL1       -0.2224
      4 O         -28.1880   -0.0139   30.5262 O.3     1  UNL1       -0.1145
      5 O         -29.3990   -0.9232   28.6479 O.3     1  UNL1       -0.1145
      6 C         -27.0843    0.4867   27.2882 C.3     1  UNL1        0.1802
      7 C         -25.7616    0.7362   26.8328 C.ar    1  UNL1        0.0079
      8 C         -25.5197    1.5170   25.7651 C.ar    1  UNL1       -0.0018
      9 C         -24.6724   -0.0065   27.4319 C.ar    1  UNL1       -0.0018
     10 C         -24.0936    1.6482   25.4039 C.ar    1  UNL1       -0.0002
     11 C         -23.3241    0.3951   27.2866 C.ar    1  UNL1       -0.0002
     12 C         -23.0464    1.2908   26.2454 C.ar    1  UNL1       -0.0000
@<TRIPOS>BOND
     1     1     2    1
     2     1     3    2
     3     1     4    1
     4     1     5    1
     5     2     6    1
     6     6     7    1
     7     7     8   ar
     8     8    10   ar
     9    10    12   ar
    10    12    11   ar
    11    11     9   ar
    12     9     7   ar
