@<TRIPOS>MOLECULE
No_4783-gen_results/8p0m/2024-11-27-11-27-31/
 13 14 0 0 0
SMALL
GASTEIGER

@<TRIPOS>ATOM
      1 C         -28.0162   -0.8135   28.8779 C.ar    1  UNL1        0.0013
      2 C         -27.0636   -0.1190   28.6079 C.ar    1  UNL1       -0.0002
      3 C         -26.9716    0.7139   27.5060 C.ar    1  UNL1       -0.0030
      4 C         -28.1053    0.7744   26.6421 C.ar    1  UNL1       -0.0084
      5 C         -29.2008    0.1044   27.0527 C.ar    1  UNL1        0.0509
      6 C         -29.2096   -0.6029   28.1853 C.ar    1  UNL1        0.0146
      7 N         -30.3077    0.2215   26.2218 N.am    1  UNL1       -0.2463
      8 C         -30.2379    0.2364   24.9221 C.3     1  UNL1        0.0997
      9 C         -29.1586    1.0085   24.4065 C.3     1  UNL1        0.0266
     10 C         -27.8868    1.0003   25.1879 C.3     1  UNL1        0.0294
     11 C         -31.6141   -0.3198   26.7214 C.2     1  UNL1        0.3137
     12 CL        -32.7231    0.2190   26.1722 Cl      1  UNL1       -0.0219
     13 O         -31.5546   -1.2034   27.6636 O.2     1  UNL1       -0.2564
@<TRIPOS>BOND
     1     5     7    1
     2     7     8    1
     3     8     9    1
     4     4    10    1
     5     7    11   am
     6    11    12    1
     7    11    13    2
     8    10     9    1
     9     1     2   ar
    10     2     3   ar
    11     3     4   ar
    12     4     5   ar
    13     5     6   ar
    14     6     1   ar
