@<TRIPOS>MOLECULE
outputs/IAG933/test6/raw/output_4785_IAG933_linker_design_.xyz
 41 45 0 0 0
SMALL
GASTEIGER

@<TRIPOS>ATOM
      1 C         -24.8550   -1.0120   30.1430 C.3     1  UNL1        0.1990
      2 C         -24.9730   -2.5050   29.7880 C.2     1  UNL1        0.0213
      3 C         -23.9060   -3.1730   29.1460 C.2     1  UNL1       -0.0004
      4 C         -23.9890   -4.5490   28.8530 C.2     1  UNL1       -0.0002
      5 C         -25.1370   -5.2800   29.2050 C.2     1  UNL1       -0.0000
      6 C         -26.2320   -4.6110   29.7840 C.2     1  UNL1       -0.0002
      7 C         -26.1550   -3.2320   30.0650 C.2     1  UNL1       -0.0004
      8 C         -25.3870   -0.6790   31.5710 C.3     1  UNL1        0.1197
      9 C         -25.1890    0.7730   32.0280 C.3     1  UNL1        0.0233
     10 C         -25.3360    0.6840   33.5440 C.3     1  UNL1        0.0204
     11 C         -24.8290   -0.7150   33.9050 C.3     1  UNL1        0.0889
     12 N         -24.7580   -1.4810   32.6460 N.3     1  UNL1       -0.2150
     13 C         -25.6880    1.6140   26.4610 C.3     1  UNL1        0.0948
     14 C         -26.2500    2.9200   26.3950 C.2     1  UNL1        0.0588
     15 C         -25.6420    4.0930   27.1230 C.2     1  UNL1        0.2627
     16 N         -25.6140    5.2520   26.4490 N.am    1  UNL1       -0.2000
     17 C         -25.0260    6.4790   26.9630 C.3     1  UNL1        0.1388
     18 O         -25.1430    3.9660   28.2430 O.2     1  UNL1       -0.2686
     19 C         -27.4380    3.0910   25.6450 C.2     1  UNL1        0.1025
     20 N         -28.0750    2.0890   25.0030 N.2     1  UNL1       -0.2118
     21 C         -27.5430    0.8490   25.0790 C.2     1  UNL1        0.2344
     22 O         -28.1930   -0.2080   24.4770 O.2     1  UNL1       -0.4585
     23 C         -29.4600    0.0050   23.8660 C.3     1  UNL1        0.2423
     24 C         -30.0650   -1.3770   23.5730 C.3     1  UNL1        0.2292
     25 O         -30.7290   -1.8780   24.7210 O.3     1  UNL1       -0.2162
     26 C         -26.3540    0.5760   25.7770 C.3     1  UNL1        0.2439
     27 F         -25.8600   -0.6810   25.7950 F       1  UNL1       -0.2265
     28 C         -29.2413    0.6465   29.0937 C.2     1  UNL1        0.0013
     29 C         -22.5477    0.9391   28.1454 C.2     1  UNL1        0.2507
     30 C         -26.7317    0.5808   28.6357 C.2     1  UNL1        0.1002
     31 C         -24.7282    1.2767   27.4090 C.2     1  UNL1        0.0407
     32 C         -23.4302    1.5041   27.2685 C.2     1  UNL1        0.1713
     33 C         -28.0939   -0.1320   28.5152 C.2     1  UNL1        0.0160
     34 C         -25.2691    0.5430   28.5040 C.3     1  UNL1        0.2214
     35 N         -22.1214   -0.5505   29.9253 N.pl3   1  UNL1        0.2123
     36 C         -28.7044    1.9532   29.7288 C.3     1  UNL1        0.1514
     37 F         -23.0232    2.2730   26.2766 F       1  UNL1       -0.2020
     38 F         -21.2551    1.2866   28.0507 F       1  UNL1       -0.1940
     39 N         -27.1751    1.8661   29.3080 N.2     1  UNL1       -0.2656
     40 C         -23.0229    0.0657   29.1329 C.2     1  UNL1        0.3947
     41 N         -24.3561   -0.1485   29.1940 N.pl3   1  UNL1       -0.1803
@<TRIPOS>BOND
     1     1     2    1
     2     2     7    1
     3     3     2    2
     4     4     3    1
     5     4     5    2
     6     5     6    1
     7     6     7    2
     8     8     1    1
     9     8     9    1
    10     8    12    1
    11     9    10    1
    12    10    11    1
    13    12    11    1
    14    13    31    1
    15    14    13    1
    16    14    15    1
    17    15    18    2
    18    16    17    1
    19    16    15    1
    20    19    14    2
    21    20    21    2
    22    20    19    1
    23    21    26    1
    24    22    21    1
    25    23    22    1
    26    24    23    1
    27    24    25    1
    28    26    27    1
    29    26    13    1
    30    28    36    1
    31    29    40    2
    32    30    39    2
    33    31    34    1
    34    32    31    2
    35    32    29    1
    36    33    30    1
    37    33    28    2
    38    34    30    1
    39    34    41    1
    40    37    32    1
    41    38    29    1
    42    39    36    1
    43    40    41    1
    44    40    35    1
    45    41     1    1
