@<TRIPOS>MOLECULE
No_4787-gen_results/8p0m/2024-11-27-11-27-31/
 35 38 0 0 0
SMALL
GASTEIGER

@<TRIPOS>ATOM
      1 O         -28.1229   -1.3353   28.4874 O.2     1  UNL1       -0.2664
      2 C         -27.4806   -0.4044   28.7094 C.2     1  UNL1        0.2878
      3 C         -26.3804   -0.0867   27.9394 C.2     1  UNL1        0.2289
      4 N         -27.8993    0.6459   29.6321 N.am    1  UNL1       -0.2496
      5 C         -25.3739    0.7466   28.5670 C.3     1  UNL1        0.1011
      6 C         -25.8508    1.8817   29.3165 C.3     1  UNL1        0.2296
      7 C         -26.9703    1.5334   30.1657 C.3     1  UNL1        0.1405
      8 C         -29.0967    0.3419   30.3283 C.ar    1  UNL1        0.0543
      9 C         -29.0693   -0.3808   31.4357 C.ar    1  UNL1        0.0149
     10 C         -30.2029   -0.7312   32.1479 C.ar    1  UNL1        0.0013
     11 C         -31.4335   -0.3236   31.6968 C.ar    1  UNL1        0.0001
     12 C         -31.4666    0.4276   30.5224 C.ar    1  UNL1        0.0013
     13 C         -30.3217    0.7674   29.8522 C.ar    1  UNL1        0.0149
     14 C         -24.3024    1.2420   27.4808 C.3     1  UNL1        0.0319
     15 C         -24.5408    2.2314   26.6214 C.2     1  UNL1       -0.0265
     16 C         -25.6266    2.9706   26.5760 C.2     1  UNL1        0.0188
     17 C         -26.7132    2.7345   26.9533 C.3     1  UNL1        0.2340
     18 C         -27.7988    3.7467   26.7424 C.ar    1  UNL1        0.0236
     19 C         -24.5770   -0.0872   29.5801 C.3     1  UNL1        0.0109
     20 C         -28.4997    4.1243   27.4412 C.ar    1  UNL1       -0.0004
     21 C         -29.4475    5.1926   27.2087 C.ar    1  UNL1       -0.0002
     22 C         -29.5926    5.5403   25.8693 C.ar    1  UNL1       -0.0000
     23 C         -28.8179    4.9528   24.9711 C.ar    1  UNL1       -0.0002
     24 C         -27.8699    4.0389   25.3452 C.ar    1  UNL1       -0.0004
     25 C         -23.1996   -0.1034   29.5083 C.3     1  UNL1        0.0006
     26 C         -23.0078    0.5554   27.6132 C.3     1  UNL1        0.0049
     27 C         -22.4413   -0.0231   28.4505 C.3     1  UNL1        0.0004
     28 F         -26.3247    2.8522   28.3345 F       1  UNL1       -0.2283
     29 O         -27.2695    1.5108   26.7619 O.3     1  UNL1       -0.1605
     30 CL        -27.2802    2.4062   27.9280 Cl      1  UNL1       -0.0736
     31 F         -28.0600    0.6599   26.6852 F       1  UNL1       -0.0452
     32 C         -24.7603    2.6693   30.0708 C.2     1  UNL1        0.2924
     33 O         -25.9210   -0.9775   27.2015 O.2     1  UNL1       -0.2864
     34 O         -23.7796    2.2016   30.3712 O.2     1  UNL1       -0.2687
     35 N         -25.0547    4.0441   30.3932 N.am    1  UNL1       -0.0854
@<TRIPOS>BOND
     1     1     2    2
     2     2     3    1
     3     2     4   am
     4     3     5    1
     5     5     6    1
     6     4     7    1
     7     6     7    1
     8     4     8    1
     9     5    14    1
    10    14    15    1
    11    15    16    2
    12    16    17    1
    13    17    18    1
    14     5    19    1
    15    14    26    1
    16    25    27    1
    17    26    27    1
    18     6    28    1
    19    17    29    1
    20    17    30    1
    21    29    31    1
    22     6    32    1
    23     3    33    2
    24    32    34    2
    25    32    35   am
    26    25    19    1
    27    18    20   ar
    28    20    21   ar
    29    21    22   ar
    30    22    23   ar
    31    23    24   ar
    32    24    18   ar
    33     8     9   ar
    34     9    10   ar
    35    10    11   ar
    36    11    12   ar
    37    12    13   ar
    38    13     8   ar
