@<TRIPOS>MOLECULE
No_4789-gen_results/8p0m/2024-11-27-11-27-31/
 15 15 0 0 0
SMALL
GASTEIGER

@<TRIPOS>ATOM
      1 C         -28.0162   -0.8135   28.8779 C.ar    1  UNL1        0.0414
      2 C         -28.4690   -0.7850   29.8287 C.ar    1  UNL1        0.1457
      3 C         -27.1356    0.2359   28.5352 C.ar    1  UNL1        0.0744
      4 C         -26.8745    1.2825   29.3982 C.ar    1  UNL1        0.0041
      5 C         -28.3613    0.1987   30.9244 C.ar    1  UNL1        0.0375
      6 C         -27.5277    1.2234   30.6356 C.ar    1  UNL1        0.0031
      7 C         -26.3987    0.2949   27.2279 C.3     1  UNL1        0.4187
      8 F         -26.2345    1.5269   26.9600 F       1  UNL1       -0.1659
      9 F         -25.2362   -0.3484   27.3099 F       1  UNL1       -0.1659
     10 F         -27.1496   -0.2082   26.2061 F       1  UNL1       -0.1659
     11 O         -29.3108   -1.9018   30.2677 O.3     1  UNL1       -0.4439
     12 C         -28.8416   -3.1617   30.5441 C.2     1  UNL1        0.2657
     13 C         -29.7786   -4.2020   30.2869 C.2     1  UNL1        0.4250
     14 O         -30.2618   -4.3842   29.2793 O.co2   1  UNL1       -0.2370
     15 O         -29.5914   -5.3143   31.1598 O.co2   1  UNL1       -0.2370
@<TRIPOS>BOND
     1     3     7    1
     2     7     8    1
     3     7     9    1
     4     7    10    1
     5     2    11    1
     6    11    12    1
     7    12    13    2
     8    13    14   ar
     9    13    15   ar
    10     1     2   ar
    11     2     5   ar
    12     5     6   ar
    13     6     4   ar
    14     4     3   ar
    15     3     1   ar
