@<TRIPOS>MOLECULE
outputs/IAG933/test6/raw/output_4791_IAG933_linker_design_.xyz
 59 64 0 0 0
SMALL
GASTEIGER

@<TRIPOS>ATOM
      1 C         -24.8550   -1.0120   30.1430 C.3     1  UNL1        0.0601
      2 C         -24.9730   -2.5050   29.7880 C.2     1  UNL1       -0.0194
      3 C         -23.9060   -3.1730   29.1460 C.2     1  UNL1       -0.0042
      4 C         -23.9890   -4.5490   28.8530 C.2     1  UNL1       -0.0003
      5 C         -25.1370   -5.2800   29.2050 C.2     1  UNL1       -0.0000
      6 C         -26.2320   -4.6110   29.7840 C.2     1  UNL1       -0.0003
      7 C         -26.1550   -3.2320   30.0650 C.2     1  UNL1       -0.0042
      8 C         -25.3870   -0.6790   31.5710 C.3     1  UNL1        0.0785
      9 C         -25.1890    0.7730   32.0280 C.3     1  UNL1        0.0192
     10 C         -25.3360    0.6840   33.5440 C.3     1  UNL1        0.0202
     11 C         -24.8290   -0.7150   33.9050 C.3     1  UNL1        0.0887
     12 N         -24.7580   -1.4810   32.6460 N.3     1  UNL1       -0.2191
     13 C         -25.6880    1.6140   26.4610 C.2     1  UNL1        0.0353
     14 C         -26.2500    2.9200   26.3950 C.2     1  UNL1        0.0740
     15 C         -25.6420    4.0930   27.1230 C.2     1  UNL1        0.2662
     16 N         -25.6140    5.2520   26.4490 N.am    1  UNL1       -0.1997
     17 C         -25.0260    6.4790   26.9630 C.3     1  UNL1        0.1388
     18 O         -25.1430    3.9660   28.2430 O.2     1  UNL1       -0.2683
     19 C         -27.4380    3.0910   25.6450 C.2     1  UNL1        0.1065
     20 N         -28.0750    2.0890   25.0030 N.2     1  UNL1       -0.2081
     21 C         -27.5430    0.8490   25.0790 C.2     1  UNL1        0.2530
     22 O         -28.1930   -0.2080   24.4770 O.2     1  UNL1       -0.4546
     23 C         -29.4600    0.0050   23.8660 C.3     1  UNL1        0.2542
     24 C         -30.0650   -1.3770   23.5730 C.3     1  UNL1        0.2522
     25 O         -30.7290   -1.8780   24.7210 O.2     1  UNL1       -0.4732
     26 C         -26.3540    0.5760   25.7770 C.2     1  UNL1        0.1905
     27 F         -25.8600   -0.6810   25.7950 F       1  UNL1       -0.1995
     28 C         -34.0200   -3.6322   27.8221 C.2     1  UNL1       -0.0287
     29 F         -20.7244    0.9606   27.9908 F       1  UNL1       -0.1621
     30 C         -32.9515   -1.0735   28.2360 C.3     1  UNL1        0.1553
     31 O         -22.2715    1.9011   26.9837 O.2     1  UNL1       -0.4509
     32 C         -31.4609   -1.5271   25.8493 C.2     1  UNL1        0.1452
     33 C         -34.2546   -4.0852   25.1461 C.3     1  UNL1        0.1477
     34 C         -31.1356   -0.4113   26.7095 C.2     1  UNL1        0.0389
     35 O         -33.5113   -2.7441   25.1549 O.3     1  UNL1       -0.3442
     36 O         -30.0299   -2.5203   30.0223 O.3     1  UNL1       -0.4444
     37 C         -32.5045   -2.5188   26.1937 C.3     1  UNL1        0.1896
     38 C         -22.7248    0.0824   28.9365 C.2     1  UNL1        0.1458
     39 C         -29.9293   -0.5874   31.5807 C.3     1  UNL1        0.1121
     40 C         -30.2406   -2.0965   31.2679 C.2     1  UNL1        0.3172
     41 C         -30.3350   -3.9119   30.0107 C.3     1  UNL1        0.2556
     42 C         -24.4769    1.3491   27.1914 C.3     1  UNL1        0.1415
     43 C         -31.6712   -0.3377   28.0109 C.3     1  UNL1        0.1544
     44 C         -34.2325   -4.6840   26.6132 C.3     1  UNL1        0.0576
     45 O         -30.3385   -2.8124   32.2397 O.2     1  UNL1       -0.2501
     46 O         -30.9808    0.1842   29.1156 O.3     1  UNL1       -0.3507
     47 O         -33.7992    0.2055   30.0603 O.co2   1  UNL1       -0.2452
     48 N         -24.8083    1.0111   28.4443 N.3     1  UNL1       -0.2062
     49 O         -35.1458   -0.0620   28.3737 O.co2   1  UNL1       -0.2452
     50 C         -29.5109    0.0310   29.1885 C.3     1  UNL1        0.1490
     51 C         -28.0358    0.1396   28.6545 C.3     1  UNL1        0.2114
     52 C         -21.9659    0.9863   27.9558 C.2     1  UNL1        0.2974
     53 O         -27.4104    1.3207   29.1380 O.3     1  UNL1       -0.2177
     54 C         -23.4228    1.7563   26.3591 C.3     1  UNL1        0.2296
     55 C         -33.1372   -2.3057   27.5227 C.2     1  UNL1       -0.0015
     56 N         -21.9552   -0.8897   29.5601 N.pl3   1  UNL1       -0.1256
     57 C         -34.0233   -0.2860   28.9104 C.2     1  UNL1        0.3708
     58 C         -24.2329   -0.0294   29.1573 C.3     1  UNL1        0.1230
     59 C         -29.1375    0.3817   30.5765 C.3     1  UNL1        0.0439
@<TRIPOS>BOND
     1     1     2    1
     2     2     7    1
     3     3     2    2
     4     4     3    1
     5     4     5    2
     6     5     6    1
     7     6     7    2
     8     8     1    1
     9     8     9    1
    10     8    12    1
    11     9    10    1
    12    10    11    1
    13    12    11    1
    14    14    13    1
    15    14    15    1
    16    15    18    2
    17    16    17    1
    18    16    15    1
    19    19    14    2
    20    20    21    2
    21    20    19    1
    22    21    26    1
    23    22    21    1
    24    23    22    1
    25    24    23    1
    26    24    25    1
    27    25    32    1
    28    26    27    1
    29    26    13    2
    30    30    57    1
    31    31    52    1
    32    32    37    1
    33    32    34    2
    34    33    35    1
    35    33    44    1
    36    34    43    1
    37    36    40    1
    38    37    35    1
    39    37    55    1
    40    38    58    1
    41    38    56    1
    42    40    39    1
    43    40    45    2
    44    41    36    1
    45    42    13    1
    46    42    48    1
    47    43    30    1
    48    43    46    1
    49    44    28    1
    50    46    50    1
    51    48    58    1
    52    49    57   ar
    53    50    51    1
    54    50    59    1
    55    51    53    1
    56    52    29    1
    57    52    38    2
    58    54    31    1
    59    54    42    1
    60    55    28    2
    61    55    30    1
    62    57    47   ar
    63    58     1    1
    64    59    39    1
