@<TRIPOS>MOLECULE
outputs/IAG933/test6/raw/output_4792_IAG933_linker_design_.xyz
 41 44 0 0 0
SMALL
GASTEIGER

@<TRIPOS>ATOM
      1 C         -24.8550   -1.0120   30.1430 C.3     1  UNL1        0.1171
      2 C         -24.9730   -2.5050   29.7880 C.2     1  UNL1       -0.0028
      3 C         -23.9060   -3.1730   29.1460 C.2     1  UNL1       -0.0026
      4 C         -23.9890   -4.5490   28.8530 C.2     1  UNL1       -0.0003
      5 C         -25.1370   -5.2800   29.2050 C.2     1  UNL1       -0.0000
      6 C         -26.2320   -4.6110   29.7840 C.2     1  UNL1       -0.0003
      7 C         -26.1550   -3.2320   30.0650 C.2     1  UNL1       -0.0026
      8 C         -25.3870   -0.6790   31.5710 C.3     1  UNL1        0.0952
      9 C         -25.1890    0.7730   32.0280 C.3     1  UNL1        0.0209
     10 C         -25.3360    0.6840   33.5440 C.3     1  UNL1        0.0203
     11 C         -24.8290   -0.7150   33.9050 C.3     1  UNL1        0.0888
     12 N         -24.7580   -1.4810   32.6460 N.3     1  UNL1       -0.2174
     13 C         -25.6880    1.6140   26.4610 C.2     1  UNL1        0.0200
     14 C         -26.2500    2.9200   26.3950 C.2     1  UNL1        0.0727
     15 C         -25.6420    4.0930   27.1230 C.2     1  UNL1        0.2661
     16 N         -25.6140    5.2520   26.4490 N.am    1  UNL1       -0.1997
     17 C         -25.0260    6.4790   26.9630 C.3     1  UNL1        0.1388
     18 O         -25.1430    3.9660   28.2430 O.2     1  UNL1       -0.2683
     19 C         -27.4380    3.0910   25.6450 C.2     1  UNL1        0.1064
     20 N         -28.0750    2.0890   25.0030 N.2     1  UNL1       -0.2081
     21 C         -27.5430    0.8490   25.0790 C.2     1  UNL1        0.2530
     22 O         -28.1930   -0.2080   24.4770 O.2     1  UNL1       -0.4558
     23 C         -29.4600    0.0050   23.8660 C.3     1  UNL1        0.2426
     24 C         -30.0650   -1.3770   23.5730 C.3     1  UNL1        0.2292
     25 O         -30.7290   -1.8780   24.7210 O.3     1  UNL1       -0.2162
     26 C         -26.3540    0.5760   25.7770 C.2     1  UNL1        0.1892
     27 F         -25.8600   -0.6810   25.7950 F       1  UNL1       -0.1996
     28 F         -22.9668    2.3295   25.4492 F       1  UNL1       -0.2338
     29 C         -21.9375    1.2154   27.2697 C.3     1  UNL1        0.2204
     30 O         -27.6386   -0.6503   28.6778 O.co2   1  UNL1       -0.2223
     31 C         -26.8563    0.2830   29.0639 C.2     1  UNL1        0.4475
     32 O         -27.2537    1.3916   29.4149 O.co2   1  UNL1       -0.2223
     33 N         -25.4120   -0.0172   29.1199 N.am    1  UNL1       -0.2384
     34 C         -23.1066   -0.4623   28.3653 C.3     1  UNL1        0.1623
     35 F         -20.8930    2.1503   27.2870 F       1  UNL1       -0.2317
     36 C         -21.4342    0.6542   28.6465 C.3     1  UNL1        0.1505
     37 O         -22.3739    0.2121   29.2437 O.3     1  UNL1       -0.3516
     38 C         -23.1328    1.7066   26.5759 C.3     1  UNL1        0.2014
     39 C         -24.5155    0.2149   27.9847 C.3     1  UNL1        0.1153
     40 C         -24.4493    1.2015   27.0288 C.3     1  UNL1        0.0811
     41 C         -20.2913   -0.0380   28.5457 C.3     1  UNL1        0.0351
@<TRIPOS>BOND
     1     1    33    1
     2     2     7    1
     3     2     1    1
     4     3     2    2
     5     4     3    1
     6     4     5    2
     7     5     6    1
     8     6     7    2
     9     8     1    1
    10     8     9    1
    11     8    12    1
    12     9    10    1
    13    10    11    1
    14    12    11    1
    15    14    13    1
    16    14    15    1
    17    15    18    2
    18    16    17    1
    19    16    15    1
    20    19    14    2
    21    20    21    2
    22    20    19    1
    23    21    26    1
    24    22    21    1
    25    23    22    1
    26    24    23    1
    27    24    25    1
    28    26    27    1
    29    26    13    2
    30    29    35    1
    31    29    36    1
    32    30    31   ar
    33    31    33   am
    34    31    32   ar
    35    34    37    1
    36    36    41    1
    37    36    37    1
    38    38    28    1
    39    38    40    1
    40    38    29    1
    41    39    34    1
    42    39    33    1
    43    40    13    1
    44    40    39    1
