@<TRIPOS>MOLECULE
outputs/IAG933/test6/raw/output_4793_IAG933_linker_design_.xyz
 43 47 0 0 0
SMALL
GASTEIGER

@<TRIPOS>ATOM
      1 C         -24.8550   -1.0120   30.1430 C.3     1  UNL1        0.0454
      2 C         -24.9730   -2.5050   29.7880 C.2     1  UNL1       -0.0207
      3 C         -23.9060   -3.1730   29.1460 C.2     1  UNL1       -0.0042
      4 C         -23.9890   -4.5490   28.8530 C.2     1  UNL1       -0.0003
      5 C         -25.1370   -5.2800   29.2050 C.2     1  UNL1       -0.0000
      6 C         -26.2320   -4.6110   29.7840 C.2     1  UNL1       -0.0003
      7 C         -26.1550   -3.2320   30.0650 C.2     1  UNL1       -0.0042
      8 C         -25.3870   -0.6790   31.5710 C.3     1  UNL1        0.0956
      9 C         -25.1890    0.7730   32.0280 C.3     1  UNL1        0.0977
     10 C         -25.3360    0.6840   33.5440 C.3     1  UNL1        0.0404
     11 C         -24.8290   -0.7150   33.9050 C.3     1  UNL1        0.0905
     12 N         -24.7580   -1.4810   32.6460 N.3     1  UNL1       -0.2174
     13 C         -25.6880    1.6140   26.4610 C.3     1  UNL1        0.1269
     14 C         -26.2500    2.9200   26.3950 C.2     1  UNL1        0.0620
     15 C         -25.6420    4.0930   27.1230 C.2     1  UNL1        0.2629
     16 N         -25.6140    5.2520   26.4490 N.am    1  UNL1       -0.2000
     17 C         -25.0260    6.4790   26.9630 C.3     1  UNL1        0.1388
     18 O         -25.1430    3.9660   28.2430 O.2     1  UNL1       -0.2686
     19 C         -27.4380    3.0910   25.6450 C.2     1  UNL1        0.1026
     20 N         -28.0750    2.0890   25.0030 N.2     1  UNL1       -0.2118
     21 C         -27.5430    0.8490   25.0790 C.2     1  UNL1        0.2345
     22 O         -28.1930   -0.2080   24.4770 O.2     1  UNL1       -0.4585
     23 C         -29.4600    0.0050   23.8660 C.3     1  UNL1        0.2423
     24 C         -30.0650   -1.3770   23.5730 C.3     1  UNL1        0.2292
     25 O         -30.7290   -1.8780   24.7210 O.3     1  UNL1       -0.2162
     26 C         -26.3540    0.5760   25.7770 C.3     1  UNL1        0.2471
     27 F         -25.8600   -0.6810   25.7950 F       1  UNL1       -0.2264
     28 C         -25.5900    5.0307   32.3624 C.2     1  UNL1        0.0013
     29 C         -23.9729    1.6930   29.7211 C.2     1  UNL1        0.2575
     30 C         -22.2469    1.8468   25.4610 C.3     1  UNL1        0.2336
     31 C         -25.6805    2.8963   31.1069 C.2     1  UNL1        0.0541
     32 C         -26.9559    3.2790   30.6403 C.2     1  UNL1        0.0149
     33 O         -23.0332    1.8027   30.2953 O.2     1  UNL1       -0.2694
     34 N         -25.1432    1.6743   30.8067 N.am    1  UNL1       -0.2552
     35 F         -21.1775    1.8963   28.0960 F       1  UNL1       -0.2041
     36 C         -22.2396    1.6915   27.7354 C.2     1  UNL1        0.1464
     37 C         -26.8617    5.3858   31.9040 C.2     1  UNL1        0.0001
     38 C         -23.5541    1.6558   27.9367 C.2     1  UNL1        0.1111
     39 C         -27.5246    4.4955   31.0292 C.2     1  UNL1        0.0013
     40 C         -25.0179    3.8151   31.9353 C.2     1  UNL1        0.0149
     41 C         -21.5730    1.6735   26.6628 C.2     1  UNL1        0.0505
     42 O         -23.5669    1.7065   25.5687 O.2     1  UNL1       -0.4742
     43 C         -24.2393    1.6388   26.7162 C.2     1  UNL1        0.1301
@<TRIPOS>BOND
     1     2     7    1
     2     2     1    1
     3     3     2    2
     4     4     3    1
     5     4     5    2
     6     5     6    1
     7     6     7    2
     8     8     1    1
     9     8     9    1
    10     8    12    1
    11     9    34    1
    12     9    10    1
    13    10    11    1
    14    12    11    1
    15    13    43    1
    16    14    13    1
    17    14    15    1
    18    15    18    2
    19    16    17    1
    20    16    15    1
    21    19    14    2
    22    20    21    2
    23    20    19    1
    24    21    26    1
    25    22    21    1
    26    23    22    1
    27    24    23    1
    28    24    25    1
    29    26    27    1
    30    26    13    1
    31    29    33    2
    32    29    34   am
    33    30    42    1
    34    30    41    1
    35    31    40    2
    36    32    39    2
    37    32    31    1
    38    34    31    1
    39    36    38    1
    40    36    35    1
    41    37    28    2
    42    38    29    1
    43    39    37    1
    44    40    28    1
    45    41    36    2
    46    42    43    1
    47    43    38    2
