@<TRIPOS>MOLECULE
No_4794-gen_results/8p0m/2024-11-27-11-27-31/
 22 22 0 0 0
SMALL
GASTEIGER

@<TRIPOS>ATOM
      1 C         -28.0162   -0.8135   28.8779 C.3     1  UNL1        0.0707
      2 C         -27.0636   -0.1190   28.6079 C.ar    1  UNL1       -0.0230
      3 C         -25.7647   -0.3897   29.0360 C.ar    1  UNL1       -0.0264
      4 C         -24.5516    0.4058   28.7646 C.ar    1  UNL1       -0.0007
      5 C         -24.6957    1.4480   27.7988 C.ar    1  UNL1        0.0711
      6 C         -25.9755    1.7250   27.3077 C.ar    1  UNL1        0.0035
      7 C         -27.0718    1.0134   27.6535 C.ar    1  UNL1       -0.0045
      8 C         -28.6178   -0.4695   30.2207 C.3     1  UNL1        0.2583
      9 C         -29.7296   -1.2768   30.7206 C.2     1  UNL1        0.3950
     10 C         -23.4863    2.1902   27.4840 C.3     1  UNL1        0.4186
     11 F         -23.6800    3.1912   26.7880 F       1  UNL1       -0.1659
     12 F         -22.5703    1.4222   26.7437 F       1  UNL1       -0.1659
     13 F         -22.8297    2.6421   28.5687 F       1  UNL1       -0.1659
     14 O         -29.0408    0.8787   30.4203 O.3     1  UNL1       -0.2105
     15 O         -30.1566   -0.9903   31.8233 O.co2   1  UNL1       -0.2428
     16 O         -30.3317   -2.2070   30.0878 O.co2   1  UNL1       -0.2428
     17 C         -25.5256   -1.4573   30.0533 C.3     1  UNL1        0.0220
     18 C         -24.4859   -2.3369   29.7986 C.3     1  UNL1        0.0047
     19 C         -25.4497   -1.0294   31.5193 C.3     1  UNL1        0.0047
     20 C         -28.3314    1.4703   27.0046 C.2     1  UNL1       -0.0049
     21 C         -28.9639    2.3559   27.5017 C.2     1  UNL1       -0.0258
     22 C         -30.2523    2.7877   26.9324 C.3     1  UNL1        0.0307
@<TRIPOS>BOND
     1     1     8    1
     2     8     9    1
     3     5    10    1
     4    10    11    1
     5    10    12    1
     6    10    13    1
     7     8    14    1
     8     9    15   ar
     9     9    16   ar
    10     3    17    1
    11    17    18    1
    12    17    19    1
    13     7    20    1
    14    20    21    2
    15    21    22    1
    16     1     2    1
    17     2     3   ar
    18     3     4   ar
    19     4     5   ar
    20     5     6   ar
    21     6     7   ar
    22     7     2   ar
