@<TRIPOS>MOLECULE
No_4795-gen_results/8p0m/2024-11-27-11-27-31/
 16 18 0 0 0
SMALL
GASTEIGER

@<TRIPOS>ATOM
      1 C         -28.0162   -0.8135   28.8779 C.ar    1  UNL1        0.0272
      2 C         -28.4690   -0.7850   29.8287 C.ar    1  UNL1        0.0625
      3 C         -28.1960    0.3478   28.0550 C.ar    1  UNL1        0.0589
      4 C         -29.0191    1.3501   28.3782 C.ar    1  UNL1        0.0112
      5 C         -29.4107    0.1803   30.3782 C.ar    1  UNL1       -0.0018
      6 C         -29.6059    1.2495   29.6193 C.ar    1  UNL1       -0.0018
      7 CL        -27.4146    0.4463   26.4578 Cl      1  UNL1       -0.0822
      8 C         -29.8447   -0.1646   31.7976 C.3     1  UNL1        0.0674
      9 C         -29.9618    0.9045   32.5846 C.ar    1  UNL1       -0.0166
     10 C         -29.4730    2.1627   32.2156 C.ar    1  UNL1       -0.0039
     11 C         -29.3904    3.1850   33.1033 C.ar    1  UNL1       -0.0003
     12 C         -29.9388    2.9028   34.4310 C.ar    1  UNL1       -0.0000
     13 C         -30.3905    1.7281   34.8075 C.ar    1  UNL1       -0.0003
     14 C         -30.3408    0.6915   33.9261 C.ar    1  UNL1       -0.0039
     15 C         -29.0512   -1.2903   32.2829 C.3     1  UNL1        0.1209
     16 N         -28.1703   -1.8982   30.7139 N.pl3   1  UNL1       -0.2372
@<TRIPOS>BOND
     1     3     7    1
     2     5     8    1
     3     8    15    1
     4     2    16    1
     5    15    16    1
     6     8     9    1
     7     9    10   ar
     8    10    11   ar
     9    11    12   ar
    10    12    13   ar
    11    13    14   ar
    12    14     9   ar
    13     1     2   ar
    14     2     5   ar
    15     5     6   ar
    16     6     4   ar
    17     4     3   ar
    18     3     1   ar
