@<TRIPOS>MOLECULE
outputs/IAG933/test6/raw/output_4798_IAG933_linker_design_.xyz
 47 50 0 0 0
SMALL
GASTEIGER

@<TRIPOS>ATOM
      1 C         -24.8550   -1.0120   30.1430 C.3     1  UNL1        0.0597
      2 C         -24.9730   -2.5050   29.7880 C.2     1  UNL1       -0.0194
      3 C         -23.9060   -3.1730   29.1460 C.2     1  UNL1       -0.0042
      4 C         -23.9890   -4.5490   28.8530 C.2     1  UNL1       -0.0003
      5 C         -25.1370   -5.2800   29.2050 C.2     1  UNL1       -0.0000
      6 C         -26.2320   -4.6110   29.7840 C.2     1  UNL1       -0.0003
      7 C         -26.1550   -3.2320   30.0650 C.2     1  UNL1       -0.0042
      8 C         -25.3870   -0.6790   31.5710 C.3     1  UNL1        0.0785
      9 C         -25.1890    0.7730   32.0280 C.3     1  UNL1        0.0192
     10 C         -25.3360    0.6840   33.5440 C.3     1  UNL1        0.0202
     11 C         -24.8290   -0.7150   33.9050 C.3     1  UNL1        0.0887
     12 N         -24.7580   -1.4810   32.6460 N.3     1  UNL1       -0.2191
     13 C         -25.6880    1.6140   26.4610 C.3     1  UNL1        0.0861
     14 C         -26.2500    2.9200   26.3950 C.2     1  UNL1        0.0562
     15 C         -25.6420    4.0930   27.1230 C.2     1  UNL1        0.2625
     16 N         -25.6140    5.2520   26.4490 N.am    1  UNL1       -0.2000
     17 C         -25.0260    6.4790   26.9630 C.3     1  UNL1        0.1388
     18 O         -25.1430    3.9660   28.2430 O.2     1  UNL1       -0.2687
     19 C         -27.4380    3.0910   25.6450 C.2     1  UNL1        0.1022
     20 N         -28.0750    2.0890   25.0030 N.2     1  UNL1       -0.2119
     21 C         -27.5430    0.8490   25.0790 C.2     1  UNL1        0.2341
     22 O         -28.1930   -0.2080   24.4770 O.2     1  UNL1       -0.4585
     23 C         -29.4600    0.0050   23.8660 C.3     1  UNL1        0.2423
     24 C         -30.0650   -1.3770   23.5730 C.3     1  UNL1        0.2292
     25 O         -30.7290   -1.8780   24.7210 O.3     1  UNL1       -0.2162
     26 C         -26.3540    0.5760   25.7770 C.3     1  UNL1        0.2413
     27 F         -25.8600   -0.6810   25.7950 F       1  UNL1       -0.2268
     28 N         -23.5218    1.3536   27.9848 N.3     1  UNL1       -0.2708
     29 C         -23.6903    0.2138   29.0836 C.3     1  UNL1        0.0944
     30 C         -30.1820    3.8755   28.3449 C.2     1  UNL1        0.0847
     31 C         -28.4432    2.6781   29.3062 C.2     1  UNL1        0.0061
     32 C         -24.3388    1.4029   26.7404 C.3     1  UNL1        0.0800
     33 O         -32.0541    6.3504   28.7809 O.2     1  UNL1       -0.3288
     34 C         -28.9208    1.4856   28.7626 C.2     1  UNL1        0.0551
     35 N         -30.3890    4.9988   27.7446 N.2     1  UNL1       -0.2053
     36 C         -25.1187   -0.2109   28.8680 C.3     1  UNL1        0.1168
     37 N         -31.6112    5.8712   29.8932 N.2     1  UNL1       -0.0716
     38 C         -27.9888    0.2965   28.8321 C.2     1  UNL1        0.2648
     39 C         -30.8675    2.7089   28.0135 C.2     1  UNL1        0.0194
     40 O         -28.3168   -0.8714   28.9957 O.2     1  UNL1       -0.2684
     41 C         -30.2180    1.4752   28.2073 C.2     1  UNL1        0.0061
     42 C         -29.0403    3.8841   29.1301 C.2     1  UNL1        0.0194
     43 C         -22.0056    1.4103   28.0010 C.3     1  UNL1        0.0722
     44 N         -26.4641    0.6534   28.7555 N.am    1  UNL1       -0.2016
     45 C         -31.1526    6.1677   27.7016 C.2     1  UNL1        0.3148
     46 C         -21.4327    1.6907   26.6345 C.3     1  UNL1        0.0188
     47 C         -30.7346    6.2472   30.6710 C.2     1  UNL1        0.1647
@<TRIPOS>BOND
     1     1    36    1
     2     2     7    1
     3     2     1    1
     4     3     2    2
     5     4     3    1
     6     4     5    2
     7     5     6    1
     8     6     7    2
     9     8     1    1
    10     8     9    1
    11     8    12    1
    12     9    10    1
    13    10    11    1
    14    12    11    1
    15    13    32    1
    16    14    13    1
    17    14    15    1
    18    15    18    2
    19    16    17    1
    20    16    15    1
    21    19    14    2
    22    20    21    2
    23    20    19    1
    24    21    26    1
    25    22    21    1
    26    23    22    1
    27    24    23    1
    28    24    25    1
    29    26    27    1
    30    26    13    1
    31    28    43    1
    32    28    29    1
    33    30    42    1
    34    32    28    1
    35    33    37    1
    36    34    38    1
    37    34    31    1
    38    35    30    1
    39    36    29    1
    40    37    47    2
    41    38    40    2
    42    39    41    1
    43    39    30    2
    44    41    34    2
    45    42    31    2
    46    44    38    1
    47    44    36    1
    48    45    35    2
    49    45    33    1
    50    46    43    1
