@<TRIPOS>MOLECULE
outputs/IAG933/test6/raw/output_4799_IAG933_linker_design_.xyz
 39 43 0 0 0
SMALL
GASTEIGER

@<TRIPOS>ATOM
      1 C         -24.8550   -1.0120   30.1430 C.3     1  UNL1        0.1371
      2 C         -24.9730   -2.5050   29.7880 C.2     1  UNL1       -0.0010
      3 C         -23.9060   -3.1730   29.1460 C.2     1  UNL1       -0.0026
      4 C         -23.9890   -4.5490   28.8530 C.2     1  UNL1       -0.0003
      5 C         -25.1370   -5.2800   29.2050 C.2     1  UNL1       -0.0000
      6 C         -26.2320   -4.6110   29.7840 C.2     1  UNL1       -0.0003
      7 C         -26.1550   -3.2320   30.0650 C.2     1  UNL1       -0.0026
      8 C         -25.3870   -0.6790   31.5710 C.3     1  UNL1        0.0971
      9 C         -25.1890    0.7730   32.0280 C.3     1  UNL1        0.0210
     10 C         -25.3360    0.6840   33.5440 C.3     1  UNL1        0.0203
     11 C         -24.8290   -0.7150   33.9050 C.3     1  UNL1        0.0888
     12 N         -24.7580   -1.4810   32.6460 N.3     1  UNL1       -0.2174
     13 C         -25.6880    1.6140   26.4610 C.2     1  UNL1        0.0571
     14 C         -26.2500    2.9200   26.3950 C.2     1  UNL1        0.0780
     15 C         -25.6420    4.0930   27.1230 C.2     1  UNL1        0.2665
     16 N         -25.6140    5.2520   26.4490 N.am    1  UNL1       -0.1997
     17 C         -25.0260    6.4790   26.9630 C.3     1  UNL1        0.1388
     18 O         -25.1430    3.9660   28.2430 O.2     1  UNL1       -0.2683
     19 C         -27.4380    3.0910   25.6450 C.2     1  UNL1        0.1068
     20 N         -28.0750    2.0890   25.0030 N.2     1  UNL1       -0.2081
     21 C         -27.5430    0.8490   25.0790 C.2     1  UNL1        0.2533
     22 O         -28.1930   -0.2080   24.4770 O.2     1  UNL1       -0.4558
     23 C         -29.4600    0.0050   23.8660 C.3     1  UNL1        0.2426
     24 C         -30.0650   -1.3770   23.5730 C.3     1  UNL1        0.2292
     25 O         -30.7290   -1.8780   24.7210 O.3     1  UNL1       -0.2162
     26 C         -26.3540    0.5760   25.7770 C.2     1  UNL1        0.1945
     27 F         -25.8600   -0.6810   25.7950 F       1  UNL1       -0.1992
     28 C         -24.5306    1.1622   27.3202 C.2     1  UNL1        0.1029
     29 C         -23.2137    1.5506   26.9203 C.2     1  UNL1        0.0695
     30 C         -20.2490   -0.0849   28.4862 C.3     1  UNL1        0.0127
     31 C         -22.6785   -0.0263   29.5694 C.2     1  UNL1        0.2470
     32 C         -22.0816    1.2858   27.4951 C.3     1  UNL1        0.1998
     33 C         -21.5787    0.3224   28.4930 C.3     1  UNL1        0.1142
     34 O         -20.9940    1.9599   26.9157 O.3     1  UNL1       -0.1701
     35 N         -24.0960   -0.1804   29.2957 N.am    1  UNL1       -0.1769
     36 O         -22.2690   -0.0548   30.6921 O.2     1  UNL1       -0.2730
     37 O         -21.5767    2.5391   25.7303 O.2     1  UNL1       -0.3302
     38 N         -24.7108    0.4544   28.3688 N.2     1  UNL1       -0.1755
     39 C         -22.9101    2.2826   25.7935 C.2     1  UNL1        0.2199
@<TRIPOS>BOND
     1     1     2    1
     2     2     7    1
     3     3     2    2
     4     4     3    1
     5     4     5    2
     6     5     6    1
     7     6     7    2
     8     8     1    1
     9     8     9    1
    10     8    12    1
    11     9    10    1
    12    10    11    1
    13    12    11    1
    14    13    28    1
    15    14    13    1
    16    14    15    1
    17    15    18    2
    18    16    17    1
    19    16    15    1
    20    19    14    2
    21    20    21    2
    22    20    19    1
    23    21    26    1
    24    22    21    1
    25    23    22    1
    26    24    23    1
    27    24    25    1
    28    26    27    1
    29    26    13    2
    30    28    38    2
    31    29    28    1
    32    29    32    1
    33    31    36    2
    34    32    34    1
    35    32    33    1
    36    33    30    1
    37    33    31    1
    38    35    31   am
    39    35     1    1
    40    37    39    1
    41    37    34    1
    42    38    35    1
    43    39    29    2
