@<TRIPOS>MOLECULE
outputs/IAG933/test6/raw/output_48_IAG933_linker_design_.xyz
 48 52 0 0 0
SMALL
GASTEIGER

@<TRIPOS>ATOM
      1 C         -24.8550   -1.0120   30.1430 C.3     1  UNL1        0.0578
      2 C         -24.9730   -2.5050   29.7880 C.2     1  UNL1       -0.0173
      3 C         -23.9060   -3.1730   29.1460 C.2     1  UNL1       -0.0039
      4 C         -23.9890   -4.5490   28.8530 C.2     1  UNL1       -0.0003
      5 C         -25.1370   -5.2800   29.2050 C.2     1  UNL1       -0.0000
      6 C         -26.2320   -4.6110   29.7840 C.2     1  UNL1       -0.0003
      7 C         -26.1550   -3.2320   30.0650 C.2     1  UNL1       -0.0039
      8 C         -25.3870   -0.6790   31.5710 C.3     1  UNL1        0.0806
      9 C         -25.1890    0.7730   32.0280 C.3     1  UNL1        0.0195
     10 C         -25.3360    0.6840   33.5440 C.3     1  UNL1        0.0203
     11 C         -24.8290   -0.7150   33.9050 C.3     1  UNL1        0.0887
     12 N         -24.7580   -1.4810   32.6460 N.3     1  UNL1       -0.2188
     13 C         -25.6880    1.6140   26.4610 C.2     1  UNL1        0.0377
     14 C         -26.2500    2.9200   26.3950 C.2     1  UNL1        0.0765
     15 C         -25.6420    4.0930   27.1230 C.2     1  UNL1        0.2664
     16 N         -25.6140    5.2520   26.4490 N.am    1  UNL1       -0.1997
     17 C         -25.0260    6.4790   26.9630 C.3     1  UNL1        0.1388
     18 O         -25.1430    3.9660   28.2430 O.2     1  UNL1       -0.2683
     19 C         -27.4380    3.0910   25.6450 C.2     1  UNL1        0.1067
     20 N         -28.0750    2.0890   25.0030 N.2     1  UNL1       -0.2081
     21 C         -27.5430    0.8490   25.0790 C.2     1  UNL1        0.2533
     22 O         -28.1930   -0.2080   24.4770 O.2     1  UNL1       -0.4558
     23 C         -29.4600    0.0050   23.8660 C.3     1  UNL1        0.2426
     24 C         -30.0650   -1.3770   23.5730 C.3     1  UNL1        0.2292
     25 O         -30.7290   -1.8780   24.7210 O.3     1  UNL1       -0.2162
     26 C         -26.3540    0.5760   25.7770 C.2     1  UNL1        0.1930
     27 F         -25.8600   -0.6810   25.7950 F       1  UNL1       -0.1992
     28 C         -25.5202   -0.2832   29.0301 C.2     1  UNL1       -0.0227
     29 O         -31.7016   -1.3769   27.9064 O.3     1  UNL1       -0.1179
     30 C         -26.9359   -0.5699   28.6714 C.3     1  UNL1        0.0953
     31 C         -29.4161   -0.1326   28.5048 C.3     1  UNL1        0.0910
     32 C         -23.2972    1.6755   26.7356 C.2     1  UNL1        0.0278
     33 C         -22.6312    0.1797   29.2581 C.1     1  UNL1        0.1319
     34 C         -23.2699    2.5495   25.7976 C.3     1  UNL1        0.2185
     35 N         -28.1835   -0.2691   29.2122 N.3     1  UNL1       -0.2680
     36 F         -21.1328    1.5880   27.6487 F       1  UNL1       -0.2270
     37 C         -28.8922   -0.7592   31.2334 C.3     1  UNL1        0.0188
     38 F         -22.2412    2.4441   25.2178 F       1  UNL1       -0.2293
     39 O         -21.4952   -0.0883   29.5713 O.2     1  UNL1       -0.2314
     40 C         -32.9218   -0.8472   29.9413 C.3     1  UNL1        0.1239
     41 C         -30.5134   -0.2684   29.5666 C.3     1  UNL1        0.1031
     42 C         -28.1792    0.2688   30.4237 C.3     1  UNL1        0.0725
     43 C         -24.6421    0.5830   28.3517 C.2     1  UNL1        0.0024
     44 C         -23.4236    0.6563   28.6793 C.2     1  UNL1        0.0881
     45 C         -30.1806   -1.2406   30.7994 C.3     1  UNL1        0.0213
     46 C         -22.5135    1.3188   27.5596 C.3     1  UNL1        0.2143
     47 C         -24.5745    1.2690   27.0943 C.2     1  UNL1        0.0000
     48 N         -31.7357   -0.8886   29.0644 N.3     1  UNL1       -0.1315
@<TRIPOS>BOND
     1     1    28    1
     2     2     7    1
     3     2     1    1
     4     3     2    2
     5     4     3    1
     6     4     5    2
     7     5     6    1
     8     6     7    2
     9     8     1    1
    10     8     9    1
    11     8    12    1
    12     9    10    1
    13    10    11    1
    14    12    11    1
    15    13    47    1
    16    14    13    1
    17    14    15    1
    18    15    18    2
    19    16    17    1
    20    16    15    1
    21    19    14    2
    22    20    21    2
    23    20    19    1
    24    21    26    1
    25    22    21    1
    26    23    22    1
    27    24    23    1
    28    24    25    1
    29    26    27    1
    30    26    13    2
    31    29    48    1
    32    30    28    1
    33    30    35    1
    34    31    35    1
    35    31    41    1
    36    32    47    2
    37    32    46    1
    38    33    39    2
    39    34    32    1
    40    35    42    1
    41    38    34    1
    42    41    48    1
    43    41    45    1
    44    42    37    1
    45    43    44    1
    46    43    28    2
    47    44    33    2
    48    45    37    1
    49    46    36    1
    50    46    44    1
    51    47    43    1
    52    48    40    1
