@<TRIPOS>MOLECULE
outputs/IAG933/test6/raw/output_4801_IAG933_linker_design_.xyz
 45 49 0 0 0
SMALL
GASTEIGER

@<TRIPOS>ATOM
      1 C         -24.8550   -1.0120   30.1430 C.3     1  UNL1        0.0438
      2 C         -24.9730   -2.5050   29.7880 C.2     1  UNL1       -0.0208
      3 C         -23.9060   -3.1730   29.1460 C.2     1  UNL1       -0.0042
      4 C         -23.9890   -4.5490   28.8530 C.2     1  UNL1       -0.0003
      5 C         -25.1370   -5.2800   29.2050 C.2     1  UNL1       -0.0000
      6 C         -26.2320   -4.6110   29.7840 C.2     1  UNL1       -0.0003
      7 C         -26.1550   -3.2320   30.0650 C.2     1  UNL1       -0.0042
      8 C         -25.3870   -0.6790   31.5710 C.3     1  UNL1        0.0795
      9 C         -25.1890    0.7730   32.0280 C.3     1  UNL1        0.0450
     10 C         -25.3360    0.6840   33.5440 C.3     1  UNL1        0.0226
     11 C         -24.8290   -0.7150   33.9050 C.3     1  UNL1        0.0888
     12 N         -24.7580   -1.4810   32.6460 N.3     1  UNL1       -0.2190
     13 C         -25.6880    1.6140   26.4610 C.2     1  UNL1        0.0303
     14 C         -26.2500    2.9200   26.3950 C.2     1  UNL1        0.0738
     15 C         -25.6420    4.0930   27.1230 C.2     1  UNL1        0.2662
     16 N         -25.6140    5.2520   26.4490 N.am    1  UNL1       -0.1997
     17 C         -25.0260    6.4790   26.9630 C.3     1  UNL1        0.1388
     18 O         -25.1430    3.9660   28.2430 O.2     1  UNL1       -0.2683
     19 C         -27.4380    3.0910   25.6450 C.2     1  UNL1        0.1065
     20 N         -28.0750    2.0890   25.0030 N.2     1  UNL1       -0.2081
     21 C         -27.5430    0.8490   25.0790 C.2     1  UNL1        0.2530
     22 O         -28.1930   -0.2080   24.4770 O.2     1  UNL1       -0.4558
     23 C         -29.4600    0.0050   23.8660 C.3     1  UNL1        0.2426
     24 C         -30.0650   -1.3770   23.5730 C.3     1  UNL1        0.2292
     25 O         -30.7290   -1.8780   24.7210 O.3     1  UNL1       -0.2162
     26 C         -26.3540    0.5760   25.7770 C.2     1  UNL1        0.1904
     27 F         -25.8600   -0.6810   25.7950 F       1  UNL1       -0.1995
     28 O         -21.8398    7.3992   34.0796 O.3     1  UNL1       -0.3535
     29 C         -20.8233    7.0186   34.9638 C.3     1  UNL1        0.1740
     30 C         -23.1286    5.6087   33.3798 C.3     1  UNL1        0.0347
     31 C         -25.8339    2.1032   31.5803 C.3     1  UNL1        0.1179
     32 O         -24.2056    6.9420   31.2734 O.3     1  UNL1       -0.2230
     33 C         -25.4801    2.0763   30.0949 C.3     1  UNL1        0.0469
     34 C         -24.4825    5.3441   32.8751 C.3     1  UNL1        0.0625
     35 C         -24.8462    6.6373   32.5655 C.3     1  UNL1        0.1569
     36 C         -23.0213    1.9392   26.3494 C.3     1  UNL1        0.0220
     37 O         -25.1475    3.2281   32.1812 O.3     1  UNL1       -0.3561
     38 C         -22.2517    0.7311   28.4249 C.3     1  UNL1        0.0724
     39 N         -23.7131    1.6132   28.5590 N.3     1  UNL1       -0.2702
     40 C         -21.7163    1.4149   27.2349 C.3     1  UNL1        0.0191
     41 C         -24.3047    1.3252   27.0881 C.3     1  UNL1        0.0827
     42 C         -23.9467    2.0318   29.9153 C.3     1  UNL1        0.0748
     43 C         -25.0077    4.5650   31.6726 C.3     1  UNL1        0.1446
     44 C         -24.3779    7.5542   33.6710 C.3     1  UNL1        0.0625
     45 C         -23.1399    6.8730   34.1315 C.3     1  UNL1        0.1180
@<TRIPOS>BOND
     1     2     7    1
     2     2     1    1
     3     3     2    2
     4     4     3    1
     5     4     5    2
     6     5     6    1
     7     6     7    2
     8     8     1    1
     9     8     9    1
    10     8    12    1
    11     9    31    1
    12     9    10    1
    13    10    11    1
    14    12    11    1
    15    14    13    1
    16    14    15    1
    17    15    18    2
    18    16    17    1
    19    16    15    1
    20    19    14    2
    21    20    21    2
    22    20    19    1
    23    21    26    1
    24    22    21    1
    25    23    22    1
    26    24    23    1
    27    24    25    1
    28    26    27    1
    29    26    13    2
    30    28    29    1
    31    30    45    1
    32    31    33    1
    33    31    37    1
    34    34    43    1
    35    34    30    1
    36    35    32    1
    37    35    34    1
    38    35    44    1
    39    36    41    1
    40    36    40    1
    41    38    39    1
    42    39    42    1
    43    40    38    1
    44    41    13    1
    45    41    39    1
    46    42    33    1
    47    43    37    1
    48    44    45    1
    49    45    28    1
