@<TRIPOS>MOLECULE
outputs/IAG933/test6/raw/output_4802_IAG933_linker_design_.xyz
 47 50 0 0 0
SMALL
GASTEIGER

@<TRIPOS>ATOM
      1 C         -24.8550   -1.0120   30.1430 C.3     1  UNL1        0.0719
      2 C         -24.9730   -2.5050   29.7880 C.2     1  UNL1       -0.0186
      3 C         -23.9060   -3.1730   29.1460 C.2     1  UNL1       -0.0042
      4 C         -23.9890   -4.5490   28.8530 C.2     1  UNL1       -0.0003
      5 C         -25.1370   -5.2800   29.2050 C.2     1  UNL1       -0.0000
      6 C         -26.2320   -4.6110   29.7840 C.2     1  UNL1       -0.0003
      7 C         -26.1550   -3.2320   30.0650 C.2     1  UNL1       -0.0042
      8 C         -25.3870   -0.6790   31.5710 C.3     1  UNL1        0.0794
      9 C         -25.1890    0.7730   32.0280 C.3     1  UNL1        0.0193
     10 C         -25.3360    0.6840   33.5440 C.3     1  UNL1        0.0202
     11 C         -24.8290   -0.7150   33.9050 C.3     1  UNL1        0.0887
     12 N         -24.7580   -1.4810   32.6460 N.3     1  UNL1       -0.2190
     13 C         -25.6880    1.6140   26.4610 C.3     1  UNL1        0.1309
     14 C         -26.2500    2.9200   26.3950 C.2     1  UNL1        0.0697
     15 C         -25.6420    4.0930   27.1230 C.2     1  UNL1        0.2637
     16 N         -25.6140    5.2520   26.4490 N.am    1  UNL1       -0.2000
     17 C         -25.0260    6.4790   26.9630 C.3     1  UNL1        0.1388
     18 O         -25.1430    3.9660   28.2430 O.2     1  UNL1       -0.2686
     19 C         -27.4380    3.0910   25.6450 C.2     1  UNL1        0.1035
     20 N         -28.0750    2.0890   25.0030 N.2     1  UNL1       -0.2118
     21 C         -27.5430    0.8490   25.0790 C.2     1  UNL1        0.2355
     22 O         -28.1930   -0.2080   24.4770 O.2     1  UNL1       -0.4585
     23 C         -29.4600    0.0050   23.8660 C.3     1  UNL1        0.2423
     24 C         -30.0650   -1.3770   23.5730 C.3     1  UNL1        0.2292
     25 O         -30.7290   -1.8780   24.7210 O.3     1  UNL1       -0.2162
     26 C         -26.3540    0.5760   25.7770 C.3     1  UNL1        0.2547
     27 F         -25.8600   -0.6810   25.7950 F       1  UNL1       -0.2254
     28 C         -26.0260    6.2926   31.2605 C.2     1  UNL1        0.3878
     29 O         -22.7431   -0.2340   27.9895 O.2     1  UNL1       -0.1716
     30 O         -27.2607   -0.7642   29.1179 O.3     1  UNL1       -0.2194
     31 C         -28.2181    6.0515   29.8925 C.2     1  UNL1        0.0024
     32 C         -23.6888    1.7933   28.1150 C.3     1  UNL1        0.2277
     33 C         -22.0435    1.7013   26.1031 C.3     1  UNL1        0.1777
     34 C         -26.9080    4.1820   30.8195 C.2     1  UNL1        0.0227
     35 S         -22.4718    1.0051   27.6266 S.O2    1  UNL1        0.0073
     36 O         -21.2252    1.4150   28.2242 O.2     1  UNL1       -0.1716
     37 N         -26.3597    2.4514   29.5130 N.pl3   1  UNL1       -0.2202
     38 C         -26.1400    1.2185   28.7912 C.3     1  UNL1        0.1842
     39 C         -28.5259    3.6936   29.0309 C.2     1  UNL1        0.0119
     40 C         -27.3298    3.3747   29.7946 C.2     1  UNL1        0.0668
     41 N         -25.0330    1.3060   27.6621 N.3     1  UNL1       -0.2290
     42 C         -27.1205    5.5625   30.6930 C.2     1  UNL1        0.0807
     43 C         -30.0783    5.5127   28.1616 C.3     1  UNL1        0.0311
     44 O         -25.6307    5.9393   32.3903 O.co2   1  UNL1       -0.2406
     45 C         -25.9233   -0.2039   29.2542 C.3     1  UNL1        0.1923
     46 O         -25.4622    7.1983   30.6355 O.co2   1  UNL1       -0.2406
     47 C         -28.9548    5.0523   29.0559 C.2     1  UNL1       -0.0204
@<TRIPOS>BOND
     1     1    45    1
     2     2     7    1
     3     2     1    1
     4     3     2    2
     5     4     3    1
     6     4     5    2
     7     5     6    1
     8     6     7    2
     9     8     1    1
    10     8     9    1
    11     8    12    1
    12     9    10    1
    13    10    11    1
    14    12    11    1
    15    13    41    1
    16    14    13    1
    17    14    15    1
    18    15    18    2
    19    16    17    1
    20    16    15    1
    21    19    14    2
    22    20    21    2
    23    20    19    1
    24    21    26    1
    25    22    21    1
    26    23    22    1
    27    24    23    1
    28    24    25    1
    29    26    27    1
    30    26    13    1
    31    28    44   ar
    32    31    42    1
    33    33    35    1
    34    35    29    2
    35    35    32    1
    36    35    36    2
    37    37    40    1
    38    38    45    1
    39    38    37    1
    40    39    47    1
    41    39    40    2
    42    40    34    1
    43    41    32    1
    44    41    38    1
    45    42    34    2
    46    42    28    1
    47    43    47    1
    48    45    30    1
    49    46    28   ar
    50    47    31    2
