@<TRIPOS>MOLECULE
No_4805-gen_results/8p0m/2024-11-27-11-27-31/
 26 29 0 0 0
SMALL
GASTEIGER

@<TRIPOS>ATOM
      1 C         -28.0162   -0.8135   28.8779 C.ar    1  UNL1        0.0376
      2 C         -27.0636   -0.1189   28.6079 C.ar    1  UNL1        0.0079
      3 C         -26.8756    1.1325   28.9134 C.ar    1  UNL1        0.0567
      4 C         -27.9014    1.8066   29.6436 C.ar    1  UNL1        0.0079
      5 C         -28.9449    1.0388   30.0360 C.ar    1  UNL1        0.0376
      6 C         -29.0273   -0.2890   29.7051 C.ar    1  UNL1        0.1453
      7 C         -25.6959    1.9505   28.4764 C.2     1  UNL1        0.2647
      8 N         -25.0986    1.9116   27.6630 N.ar    1  UNL1       -0.2717
      9 C         -24.8078    1.1556   26.8348 C.ar    1  UNL1        0.0830
     10 C         -23.8515    1.4008   25.7600 C.ar    1  UNL1        0.0206
     11 C         -24.3262    3.0973   27.1686 C.ar    1  UNL1        0.0830
     12 C         -23.5082    2.7182   25.9959 C.ar    1  UNL1        0.0206
     13 O         -25.3380    2.7763   29.6420 O.2     1  UNL1       -0.2666
     14 O         -30.0513   -1.1168   30.0482 O.3     1  UNL1       -0.4535
     15 C         -30.3585   -1.2280   31.3697 C.ar    1  UNL1        0.1453
     16 C         -30.5405   -2.2242   31.7981 C.ar    1  UNL1        0.0375
     17 C         -30.8157   -2.5104   33.2800 C.ar    1  UNL1        0.0031
     18 C         -30.8927   -1.4001   34.1220 C.ar    1  UNL1        0.0002
     19 C         -30.6597   -0.1754   33.5359 C.ar    1  UNL1        0.0030
     20 C         -30.3529   -0.0466   32.2357 C.ar    1  UNL1        0.0375
     21 C         -30.6996    1.0348   34.4342 C.ar    1  UNL1        0.0001
     22 C         -30.1934    1.2043   35.3734 C.ar    1  UNL1        0.0000
     23 C         -31.5299    2.1020   33.7752 C.ar    1  UNL1        0.0000
     24 C         -31.7309    3.2771   34.4686 C.ar    1  UNL1        0.0000
     25 C         -30.3076    2.4194   36.2334 C.ar    1  UNL1        0.0000
     26 C         -31.0933    3.4326   35.7029 C.ar    1  UNL1        0.0000
@<TRIPOS>BOND
     1     3     7    1
     2     7     8   am
     3     8     9   ar
     4     9    10   ar
     5     8    11   ar
     6    10    12   ar
     7    11    12   ar
     8     7    13    2
     9     6    14    1
    10    14    15    1
    11    19    21    1
    12    15    16   ar
    13    16    17   ar
    14    17    18   ar
    15    18    19   ar
    16    19    20   ar
    17    20    15   ar
    18     1     2   ar
    19     2     3   ar
    20     3     4   ar
    21     4     5   ar
    22     5     6   ar
    23     6     1   ar
    24    21    22   ar
    25    22    25   ar
    26    25    26   ar
    27    26    24   ar
    28    24    23   ar
    29    23    21   ar
