@<TRIPOS>MOLECULE
No_4806-gen_results/8p0m/2024-11-27-11-27-31/
 25 27 0 0 0
SMALL
GASTEIGER

@<TRIPOS>ATOM
      1 C         -28.0162   -0.8135   28.8779 C.ar    1  UNL1        0.0160
      2 C         -27.0636   -0.1190   28.6079 C.ar    1  UNL1        0.0578
      3 C         -25.7923   -0.4302   29.0761 C.ar    1  UNL1        0.0106
      4 C         -25.5756   -1.5654   29.9363 C.ar    1  UNL1        0.0010
      5 C         -26.7354   -2.3004   30.2173 C.ar    1  UNL1        0.0046
      6 C         -27.9184   -1.9537   29.7629 C.ar    1  UNL1        0.0559
      7 CL        -27.1463    1.2916   27.6407 Cl      1  UNL1       -0.0822
      8 C         -29.0683   -2.7883   30.1813 C.2     1  UNL1        0.2662
      9 N         -30.1887   -2.3151   30.1701 N.am    1  UNL1       -0.1821
     10 O         -28.8686   -3.9786   30.6030 O.2     1  UNL1       -0.2683
     11 C         -31.4204   -3.0585   30.5216 C.3     1  UNL1        0.1963
     12 C         -32.4044   -2.4891   30.7664 C.ar    1  UNL1        0.0128
     13 C         -33.3553   -2.9397   31.4881 C.ar    1  UNL1       -0.0005
     14 C         -34.5505   -2.2270   31.9197 C.ar    1  UNL1        0.0112
     15 C         -34.6912   -0.9332   31.3838 C.ar    1  UNL1        0.0577
     16 C         -33.7551   -0.3863   30.5785 C.ar    1  UNL1        0.0112
     17 C         -32.5957   -0.9641   30.2695 C.ar    1  UNL1       -0.0005
     18 CL        -31.5493   -4.3119   29.2077 Cl      1  UNL1       -0.0860
     19 CL        -36.1079   -0.0660   31.8387 Cl      1  UNL1       -0.0822
     20 C         -24.5316    0.3543   28.7039 C.ar    1  UNL1        0.0008
     21 C         -23.3928    0.0536   28.7275 C.ar    1  UNL1        0.0000
     22 C         -22.2341    0.8682   28.3839 C.ar    1  UNL1        0.0000
     23 C         -22.5632    1.8219   27.5182 C.ar    1  UNL1        0.0000
     24 C         -23.8293    2.3146   27.3273 C.ar    1  UNL1        0.0000
     25 C         -24.8272    1.5585   27.8680 C.ar    1  UNL1        0.0000
@<TRIPOS>BOND
     1     2     7    1
     2     6     8    1
     3     8     9   am
     4     8    10    2
     5     9    11    1
     6    11    12    1
     7    11    18    1
     8    15    19    1
     9     3    20    1
    10    12    13   ar
    11    13    14   ar
    12    14    15   ar
    13    15    16   ar
    14    16    17   ar
    15    17    12   ar
    16     1     2   ar
    17     2     3   ar
    18     3     4   ar
    19     4     5   ar
    20     5     6   ar
    21     6     1   ar
    22    20    21   ar
    23    21    22   ar
    24    22    23   ar
    25    23    24   ar
    26    24    25   ar
    27    25    20   ar
