@<TRIPOS>MOLECULE
No_481-gen_results/8p0m/2024-11-27-11-27-31/
 22 23 0 0 0
SMALL
GASTEIGER

@<TRIPOS>ATOM
      1 C         -28.0162   -0.8135   28.8779 C.3     1  UNL1        0.0521
      2 C         -27.0636   -0.1189   28.6079 C.ar    1  UNL1       -0.0177
      3 C         -26.9716    0.7139   27.5060 C.ar    1  UNL1       -0.0014
      4 C         -25.8206    1.4910   27.1160 C.ar    1  UNL1        0.0293
      5 C         -24.6562    1.4242   27.9180 C.ar    1  UNL1        0.1401
      6 C         -24.7114    0.5419   29.0507 C.ar    1  UNL1        0.0293
      7 C         -25.8042   -0.2058   29.3881 C.ar    1  UNL1       -0.0016
      8 C         -28.6958   -0.4989   30.1325 C.2     1  UNL1       -0.0204
      9 C         -29.8501   -1.3254   30.5771 C.2     1  UNL1        0.0406
     10 C         -30.2015   -2.3159   29.7712 C.3     1  UNL1        0.3406
     11 F         -31.3916   -2.8110   29.9604 F       1  UNL1       -0.1933
     12 F         -23.5943    2.1007   27.6519 F       1  UNL1       -0.2042
     13 C         -28.1052    0.8373   26.5747 C.ar    1  UNL1       -0.0000
     14 C         -28.0345    0.4584   25.2824 C.ar    1  UNL1       -0.0000
     15 C         -29.1317    0.4468   24.4130 C.ar    1  UNL1        0.0002
     16 C         -30.3802    0.7251   24.8873 C.ar    1  UNL1        0.0066
     17 C         -30.5149    1.1043   26.2595 C.ar    1  UNL1        0.0798
     18 C         -29.4173    1.1003   27.1491 C.ar    1  UNL1        0.0066
     19 C         -31.8538    1.3577   26.8120 C.2     1  UNL1        0.3878
     20 O         -32.1923    2.2845   27.4126 O.co2   1  UNL1       -0.2406
     21 O         -32.6119    0.2479   26.8579 O.co2   1  UNL1       -0.2406
     22 F         -29.6389   -2.6035   28.7962 F       1  UNL1       -0.1933
@<TRIPOS>BOND
     1     1     8    1
     2     8     9    2
     3     9    10    1
     4    10    11    1
     5     5    12    1
     6     3    13    1
     7    17    19    1
     8    19    20   ar
     9    19    21   ar
    10    10    22    1
    11     1     2    1
    12     2     3   ar
    13     3     4   ar
    14     4     5   ar
    15     5     6   ar
    16     6     7   ar
    17     7     2   ar
    18    13    14   ar
    19    14    15   ar
    20    15    16   ar
    21    16    17   ar
    22    17    18   ar
    23    18    13   ar
