@<TRIPOS>MOLECULE
outputs/IAG933/test6/raw/output_4810_IAG933_linker_design_.xyz
 45 49 0 0 0
SMALL
GASTEIGER

@<TRIPOS>ATOM
      1 C         -24.8550   -1.0120   30.1430 C.3     1  UNL1        0.0582
      2 C         -24.9730   -2.5050   29.7880 C.2     1  UNL1       -0.0195
      3 C         -23.9060   -3.1730   29.1460 C.2     1  UNL1       -0.0042
      4 C         -23.9890   -4.5490   28.8530 C.2     1  UNL1       -0.0003
      5 C         -25.1370   -5.2800   29.2050 C.2     1  UNL1       -0.0000
      6 C         -26.2320   -4.6110   29.7840 C.2     1  UNL1       -0.0003
      7 C         -26.1550   -3.2320   30.0650 C.2     1  UNL1       -0.0042
      8 C         -25.3870   -0.6790   31.5710 C.3     1  UNL1        0.0785
      9 C         -25.1890    0.7730   32.0280 C.3     1  UNL1        0.0192
     10 C         -25.3360    0.6840   33.5440 C.3     1  UNL1        0.0202
     11 C         -24.8290   -0.7150   33.9050 C.3     1  UNL1        0.0887
     12 N         -24.7580   -1.4810   32.6460 N.3     1  UNL1       -0.2191
     13 C         -25.6880    1.6140   26.4610 C.3     1  UNL1        0.0968
     14 C         -26.2500    2.9200   26.3950 C.2     1  UNL1        0.0590
     15 C         -25.6420    4.0930   27.1230 C.2     1  UNL1        0.2628
     16 N         -25.6140    5.2520   26.4490 N.am    1  UNL1       -0.2000
     17 C         -25.0260    6.4790   26.9630 C.3     1  UNL1        0.1388
     18 O         -25.1430    3.9660   28.2430 O.2     1  UNL1       -0.2686
     19 C         -27.4380    3.0910   25.6450 C.2     1  UNL1        0.1025
     20 N         -28.0750    2.0890   25.0030 N.2     1  UNL1       -0.2118
     21 C         -27.5430    0.8490   25.0790 C.2     1  UNL1        0.2344
     22 O         -28.1930   -0.2080   24.4770 O.2     1  UNL1       -0.4585
     23 C         -29.4600    0.0050   23.8660 C.3     1  UNL1        0.2423
     24 C         -30.0650   -1.3770   23.5730 C.3     1  UNL1        0.2292
     25 O         -30.7290   -1.8780   24.7210 O.3     1  UNL1       -0.2162
     26 C         -26.3540    0.5760   25.7770 C.3     1  UNL1        0.2441
     27 F         -25.8600   -0.6810   25.7950 F       1  UNL1       -0.2265
     28 C         -23.0974    1.9594   26.1675 C.2     1  UNL1        0.1867
     29 C         -21.7880    1.5029   28.0669 C.2     1  UNL1        0.0342
     30 C         -29.5320    1.6031   29.9772 C.3     1  UNL1        0.0346
     31 C         -27.6734   -0.1218   28.9674 C.3     1  UNL1        0.0220
     32 C         -26.0162   -0.2471   29.2055 C.3     1  UNL1        0.0978
     33 C         -21.8690    2.0176   26.7954 C.2     1  UNL1        0.0433
     34 C         -29.1344    0.5850   32.1478 C.3     1  UNL1        0.1422
     35 O         -23.1431    2.2228   24.8931 O.2     1  UNL1       -0.2922
     36 C         -28.3804   -0.5845   30.0652 C.3     1  UNL1        0.0043
     37 C         -29.4085    0.2603   30.6692 C.3     1  UNL1        0.0322
     38 C         -24.1848    1.1558   28.0796 C.2     1  UNL1        0.0921
     39 C         -24.2798    1.5685   26.8158 C.2     1  UNL1        0.0401
     40 C         -22.9354    1.0193   28.7035 C.2     1  UNL1        0.1547
     41 C         -28.9433    2.5484   30.9278 C.3     1  UNL1        0.1422
     42 N         -25.4268    1.1367   28.7924 N.pl3   1  UNL1       -0.2369
     43 F         -22.7182    0.4234   29.8906 F       1  UNL1       -0.2028
     44 O         -28.8764    2.0084   32.1633 O.3     1  UNL1       -0.3538
     45 F         -23.3602    1.0883   24.2994 F       1  UNL1        0.0138
@<TRIPOS>BOND
     1     1    32    1
     2     2     7    1
     3     2     1    1
     4     3     2    2
     5     4     3    1
     6     4     5    2
     7     5     6    1
     8     6     7    2
     9     8     1    1
    10     8     9    1
    11     8    12    1
    12     9    10    1
    13    10    11    1
    14    12    11    1
    15    13    39    1
    16    14    13    1
    17    14    15    1
    18    15    18    2
    19    16    17    1
    20    16    15    1
    21    19    14    2
    22    20    21    2
    23    20    19    1
    24    21    26    1
    25    22    21    1
    26    23    22    1
    27    24    23    1
    28    24    25    1
    29    26    27    1
    30    26    13    1
    31    28    33    2
    32    28    39    1
    33    29    40    2
    34    30    37    1
    35    30    41    1
    36    31    36    1
    37    32    31    1
    38    33    29    1
    39    34    44    1
    40    35    28    1
    41    37    36    1
    42    37    34    1
    43    38    40    1
    44    38    42    1
    45    39    38    2
    46    40    43    1
    47    41    44    1
    48    42    32    1
    49    45    35    1
