@<TRIPOS>MOLECULE
outputs/IAG933/test6/raw/output_4811_IAG933_linker_design_.xyz
 45 48 0 0 0
SMALL
GASTEIGER

@<TRIPOS>ATOM
      1 C         -24.8550   -1.0120   30.1430 C.3     1  UNL1        0.2120
      2 C         -24.9730   -2.5050   29.7880 C.2     1  UNL1        0.0224
      3 C         -23.9060   -3.1730   29.1460 C.2     1  UNL1       -0.0004
      4 C         -23.9890   -4.5490   28.8530 C.2     1  UNL1       -0.0002
      5 C         -25.1370   -5.2800   29.2050 C.2     1  UNL1       -0.0000
      6 C         -26.2320   -4.6110   29.7840 C.2     1  UNL1       -0.0002
      7 C         -26.1550   -3.2320   30.0650 C.2     1  UNL1       -0.0004
      8 C         -25.3870   -0.6790   31.5710 C.3     1  UNL1        0.1208
      9 C         -25.1890    0.7730   32.0280 C.3     1  UNL1        0.0234
     10 C         -25.3360    0.6840   33.5440 C.3     1  UNL1        0.0204
     11 C         -24.8290   -0.7150   33.9050 C.3     1  UNL1        0.0889
     12 N         -24.7580   -1.4810   32.6460 N.3     1  UNL1       -0.2150
     13 C         -25.6880    1.6140   26.4610 C.3     1  UNL1        0.1436
     14 C         -26.2500    2.9200   26.3950 C.2     1  UNL1        0.0709
     15 C         -25.6420    4.0930   27.1230 C.2     1  UNL1        0.2638
     16 N         -25.6140    5.2520   26.4490 N.am    1  UNL1       -0.2000
     17 C         -25.0260    6.4790   26.9630 C.3     1  UNL1        0.1388
     18 O         -25.1430    3.9660   28.2430 O.2     1  UNL1       -0.2686
     19 C         -27.4380    3.0910   25.6450 C.2     1  UNL1        0.1035
     20 N         -28.0750    2.0890   25.0030 N.2     1  UNL1       -0.2118
     21 C         -27.5430    0.8490   25.0790 C.2     1  UNL1        0.2356
     22 O         -28.1930   -0.2080   24.4770 O.2     1  UNL1       -0.4585
     23 C         -29.4600    0.0050   23.8660 C.3     1  UNL1        0.2423
     24 C         -30.0650   -1.3770   23.5730 C.3     1  UNL1        0.2292
     25 O         -30.7290   -1.8780   24.7210 O.3     1  UNL1       -0.2162
     26 C         -26.3540    0.5760   25.7770 C.3     1  UNL1        0.2559
     27 F         -25.8600   -0.6810   25.7950 F       1  UNL1       -0.2253
     28 N         -22.7766   -0.1722   29.3808 N.2     1  UNL1        0.1912
     29 C         -26.7213   -0.3604   28.6267 C.1     1  UNL1        0.1134
     30 C         -23.9600    0.4378   28.5619 C.2     1  UNL1        0.3915
     31 C         -30.3920    0.2618   27.0969 C.3     1  UNL1        0.1273
     32 O         -21.4667    1.3634   27.2382 O.2     1  UNL1       -0.2479
     33 N         -24.8700    1.4818   27.5128 N.3     1  UNL1       -0.1910
     34 C         -28.0943   -0.1814   28.4117 C.1     1  UNL1       -0.0444
     35 C         -31.3466    1.4608   27.0782 C.3     1  UNL1        0.0306
     36 C         -22.6017    1.4199   26.9065 C.2     1  UNL1        0.3455
     37 C         -29.6045    0.3298   28.3290 C.3     1  UNL1        0.0948
     38 C         -23.8248    1.1119   27.6537 C.3     1  UNL1        0.2834
     39 C         -30.3454    2.5790   27.5332 C.3     1  UNL1        0.0036
     40 C         -22.1611    2.0458   24.6610 C.3     1  UNL1        0.2557
     41 O         -22.9154    1.2873   25.5842 O.3     1  UNL1       -0.4430
     42 C         -31.6767   -1.5664   28.0879 C.3     1  UNL1        0.1740
     43 O         -31.0644   -1.0068   26.9211 O.3     1  UNL1       -0.3526
     44 C         -29.4199    1.8778   28.5969 C.3     1  UNL1        0.0156
     45 N         -25.1013   -0.2703   28.9981 N.pl3   1  UNL1       -0.1227
@<TRIPOS>BOND
     1     1    45    1
     2     2     7    1
     3     2     1    1
     4     3     2    2
     5     4     3    1
     6     4     5    2
     7     5     6    1
     8     6     7    2
     9     8     1    1
    10     8     9    1
    11     8    12    1
    12     9    10    1
    13    10    11    1
    14    12    11    1
    15    13    33    1
    16    14    13    1
    17    14    15    1
    18    15    18    2
    19    16    17    1
    20    16    15    1
    21    19    14    2
    22    20    21    2
    23    20    19    1
    24    21    26    1
    25    22    21    1
    26    23    22    1
    27    24    23    1
    28    24    25    1
    29    26    27    1
    30    26    13    1
    31    29    45    1
    32    30    45    1
    33    30    28    2
    34    31    43    1
    35    31    37    1
    36    33    38    1
    37    34    29    3
    38    35    31    1
    39    35    39    1
    40    36    32    2
    41    37    34    1
    42    37    44    1
    43    38    36    1
    44    38    30    1
    45    39    44    1
    46    40    41    1
    47    41    36    1
    48    43    42    1
