@<TRIPOS>MOLECULE
outputs/IAG933/test6/raw/output_4812_IAG933_linker_design_.xyz
 42 45 0 0 0
SMALL
GASTEIGER

@<TRIPOS>ATOM
      1 C         -24.8550   -1.0120   30.1430 C.3     1  UNL1        0.0656
      2 C         -24.9730   -2.5050   29.7880 C.2     1  UNL1       -0.0188
      3 C         -23.9060   -3.1730   29.1460 C.2     1  UNL1       -0.0042
      4 C         -23.9890   -4.5490   28.8530 C.2     1  UNL1       -0.0003
      5 C         -25.1370   -5.2800   29.2050 C.2     1  UNL1       -0.0000
      6 C         -26.2320   -4.6110   29.7840 C.2     1  UNL1       -0.0003
      7 C         -26.1550   -3.2320   30.0650 C.2     1  UNL1       -0.0042
      8 C         -25.3870   -0.6790   31.5710 C.3     1  UNL1        0.0792
      9 C         -25.1890    0.7730   32.0280 C.3     1  UNL1        0.0193
     10 C         -25.3360    0.6840   33.5440 C.3     1  UNL1        0.0202
     11 C         -24.8290   -0.7150   33.9050 C.3     1  UNL1        0.0887
     12 N         -24.7580   -1.4810   32.6460 N.3     1  UNL1       -0.2190
     13 C         -25.6880    1.6140   26.4610 C.2     1  UNL1        0.0358
     14 C         -26.2500    2.9200   26.3950 C.2     1  UNL1        0.0742
     15 C         -25.6420    4.0930   27.1230 C.2     1  UNL1        0.2662
     16 N         -25.6140    5.2520   26.4490 N.am    1  UNL1       -0.1997
     17 C         -25.0260    6.4790   26.9630 C.3     1  UNL1        0.1388
     18 O         -25.1430    3.9660   28.2430 O.2     1  UNL1       -0.2683
     19 C         -27.4380    3.0910   25.6450 C.2     1  UNL1        0.1065
     20 N         -28.0750    2.0890   25.0030 N.2     1  UNL1       -0.2081
     21 C         -27.5430    0.8490   25.0790 C.2     1  UNL1        0.2530
     22 O         -28.1930   -0.2080   24.4770 O.2     1  UNL1       -0.4558
     23 C         -29.4600    0.0050   23.8660 C.3     1  UNL1        0.2426
     24 C         -30.0650   -1.3770   23.5730 C.3     1  UNL1        0.2292
     25 O         -30.7290   -1.8780   24.7210 O.3     1  UNL1       -0.2162
     26 C         -26.3540    0.5760   25.7770 C.2     1  UNL1        0.1907
     27 F         -25.8600   -0.6810   25.7950 F       1  UNL1       -0.1995
     28 C         -22.5957    0.9597   27.8940 C.3     1  UNL1        0.0804
     29 C         -21.9857   -0.6306   29.5597 C.3     1  UNL1        0.0041
     30 O         -23.5693    1.0705   24.7426 O.2     1  UNL1       -0.2360
     31 C         -20.7731   -0.4733   28.9525 C.3     1  UNL1        0.0002
     32 N         -23.4563    1.3546   26.9167 N.am    1  UNL1       -0.2499
     33 C         -24.6928    1.3838   27.1366 C.3     1  UNL1        0.1251
     34 F         -22.0086    2.4930   25.7821 F       1  UNL1       -0.1434
     35 C         -22.9849    1.6005   25.7336 C.2     1  UNL1        0.3936
     36 C         -21.2473    1.1449   27.7307 C.3     1  UNL1        0.0200
     37 C         -20.2447    0.3244   28.2080 C.3     1  UNL1        0.0017
     38 C         -24.3432    0.2407   29.4257 C.3     1  UNL1        0.1236
     39 C         -22.9525    0.1805   28.9778 C.3     1  UNL1        0.0459
     40 O         -25.0685    1.4244   29.6395 O.3     1  UNL1       -0.3396
     41 CL        -25.5469    3.9593   31.0990 Cl      1  UNL1       -0.0782
     42 C         -26.0559    2.3672   30.1439 C.3     1  UNL1        0.2371
@<TRIPOS>BOND
     1     1    38    1
     2     2     7    1
     3     2     1    1
     4     3     2    2
     5     4     3    1
     6     4     5    2
     7     5     6    1
     8     6     7    2
     9     8     1    1
    10     8     9    1
    11     8    12    1
    12     9    10    1
    13    10    11    1
    14    12    11    1
    15    13    33    1
    16    14    13    1
    17    14    15    1
    18    15    18    2
    19    16    17    1
    20    16    15    1
    21    19    14    2
    22    20    21    2
    23    20    19    1
    24    21    26    1
    25    22    21    1
    26    23    22    1
    27    24    23    1
    28    24    25    1
    29    26    27    1
    30    26    13    2
    31    28    32    1
    32    28    39    1
    33    30    35    2
    34    31    29    1
    35    32    33    1
    36    35    34    1
    37    35    32   am
    38    36    28    1
    39    36    37    1
    40    37    31    1
    41    38    40    1
    42    39    38    1
    43    39    29    1
    44    40    42    1
    45    42    41    1
