@<TRIPOS>MOLECULE
outputs/IAG933/test6/raw/output_4813_IAG933_linker_design_.xyz
 41 45 0 0 0
SMALL
GASTEIGER

@<TRIPOS>ATOM
      1 C         -24.8550   -1.0120   30.1430 C.3     1  UNL1        0.1249
      2 C         -24.9730   -2.5050   29.7880 C.2     1  UNL1       -0.0041
      3 C         -23.9060   -3.1730   29.1460 C.2     1  UNL1       -0.0029
      4 C         -23.9890   -4.5490   28.8530 C.2     1  UNL1       -0.0003
      5 C         -25.1370   -5.2800   29.2050 C.2     1  UNL1       -0.0000
      6 C         -26.2320   -4.6110   29.7840 C.2     1  UNL1       -0.0003
      7 C         -26.1550   -3.2320   30.0650 C.2     1  UNL1       -0.0029
      8 C         -25.3870   -0.6790   31.5710 C.3     1  UNL1        0.0939
      9 C         -25.1890    0.7730   32.0280 C.3     1  UNL1        0.0207
     10 C         -25.3360    0.6840   33.5440 C.3     1  UNL1        0.0203
     11 C         -24.8290   -0.7150   33.9050 C.3     1  UNL1        0.0888
     12 N         -24.7580   -1.4810   32.6460 N.3     1  UNL1       -0.2177
     13 C         -25.6880    1.6140   26.4610 C.3     1  UNL1        0.1015
     14 C         -26.2500    2.9200   26.3950 C.2     1  UNL1        0.0573
     15 C         -25.6420    4.0930   27.1230 C.2     1  UNL1        0.2625
     16 N         -25.6140    5.2520   26.4490 N.am    1  UNL1       -0.2000
     17 C         -25.0260    6.4790   26.9630 C.3     1  UNL1        0.1388
     18 O         -25.1430    3.9660   28.2430 O.2     1  UNL1       -0.2687
     19 C         -27.4380    3.0910   25.6450 C.2     1  UNL1        0.1022
     20 N         -28.0750    2.0890   25.0030 N.2     1  UNL1       -0.2119
     21 C         -27.5430    0.8490   25.0790 C.2     1  UNL1        0.2342
     22 O         -28.1930   -0.2080   24.4770 O.2     1  UNL1       -0.4585
     23 C         -29.4600    0.0050   23.8660 C.3     1  UNL1        0.2423
     24 C         -30.0650   -1.3770   23.5730 C.3     1  UNL1        0.2292
     25 O         -30.7290   -1.8780   24.7210 O.3     1  UNL1       -0.2162
     26 C         -26.3540    0.5760   25.7770 C.3     1  UNL1        0.2425
     27 F         -25.8600   -0.6810   25.7950 F       1  UNL1       -0.2268
     28 O         -25.2579    0.9989   28.9032 O.3     1  UNL1       -0.2796
     29 N         -21.2606    1.3668   28.5260 N.am    1  UNL1       -0.0619
     30 C         -22.5107    1.7798   26.6245 C.3     1  UNL1        0.2571
     31 O         -21.6192    1.8836   24.5168 O.co2   1  UNL1       -0.2428
     32 C         -24.8013    1.3002   27.5703 C.3     1  UNL1        0.1756
     33 O         -26.1871   -0.8145   27.9757 O.3     1  UNL1       -0.2001
     34 O         -22.9721    1.7399   30.0595 O.2     1  UNL1       -0.2708
     35 N         -24.4283   -0.0936   29.2107 N.3     1  UNL1       -0.1311
     36 C         -23.4025    1.5401   27.6708 C.3     1  UNL1        0.1522
     37 C         -22.5853    1.5219   28.8469 C.2     1  UNL1        0.2725
     38 C         -22.7245    2.1756   25.3015 C.2     1  UNL1        0.3944
     39 C         -24.7053   -0.4381   28.2083 C.3     1  UNL1        0.2628
     40 O         -21.1327    1.5380   27.1323 O.3     1  UNL1       -0.2343
     41 O         -23.7722    2.5539   24.8566 O.co2   1  UNL1       -0.2428
@<TRIPOS>BOND
     1     1     2    1
     2     2     7    1
     3     3     2    2
     4     4     3    1
     5     4     5    2
     6     5     6    1
     7     6     7    2
     8     8     1    1
     9     8     9    1
    10     8    12    1
    11     9    10    1
    12    10    11    1
    13    12    11    1
    14    13    14    1
    15    13    32    1
    16    14    15    1
    17    15    18    2
    18    16    17    1
    19    16    15    1
    20    19    14    2
    21    20    21    2
    22    20    19    1
    23    21    26    1
    24    22    21    1
    25    23    22    1
    26    24    23    1
    27    24    25    1
    28    26    27    1
    29    26    13    1
    30    28    35    1
    31    29    37    1
    32    30    38    1
    33    30    40    1
    34    30    36    1
    35    31    38   ar
    36    32    36    1
    37    32    39    1
    38    32    28    1
    39    35     1    1
    40    36    37    1
    41    37    34    2
    42    39    33    1
    43    39    35    1
    44    40    29    1
    45    41    38   ar
