@<TRIPOS>MOLECULE
outputs/IAG933/test6/raw/output_4814_IAG933_linker_design_.xyz
 41 45 0 0 0
SMALL
GASTEIGER

@<TRIPOS>ATOM
      1 C         -24.8550   -1.0120   30.1430 C.3     1  UNL1        0.0509
      2 C         -24.9730   -2.5050   29.7880 C.2     1  UNL1       -0.0204
      3 C         -23.9060   -3.1730   29.1460 C.2     1  UNL1       -0.0042
      4 C         -23.9890   -4.5490   28.8530 C.2     1  UNL1       -0.0003
      5 C         -25.1370   -5.2800   29.2050 C.2     1  UNL1       -0.0000
      6 C         -26.2320   -4.6110   29.7840 C.2     1  UNL1       -0.0003
      7 C         -26.1550   -3.2320   30.0650 C.2     1  UNL1       -0.0042
      8 C         -25.3870   -0.6790   31.5710 C.3     1  UNL1        0.0776
      9 C         -25.1890    0.7730   32.0280 C.3     1  UNL1        0.0192
     10 C         -25.3360    0.6840   33.5440 C.3     1  UNL1        0.0202
     11 C         -24.8290   -0.7150   33.9050 C.3     1  UNL1        0.0887
     12 N         -24.7580   -1.4810   32.6460 N.3     1  UNL1       -0.2191
     13 C         -25.6880    1.6140   26.4610 C.2     1  UNL1        0.0377
     14 C         -26.2500    2.9200   26.3950 C.2     1  UNL1        0.0765
     15 C         -25.6420    4.0930   27.1230 C.2     1  UNL1        0.2664
     16 N         -25.6140    5.2520   26.4490 N.am    1  UNL1       -0.1997
     17 C         -25.0260    6.4790   26.9630 C.3     1  UNL1        0.1388
     18 O         -25.1430    3.9660   28.2430 O.2     1  UNL1       -0.2683
     19 C         -27.4380    3.0910   25.6450 C.2     1  UNL1        0.1067
     20 N         -28.0750    2.0890   25.0030 N.2     1  UNL1       -0.2081
     21 C         -27.5430    0.8490   25.0790 C.2     1  UNL1        0.2533
     22 O         -28.1930   -0.2080   24.4770 O.2     1  UNL1       -0.4558
     23 C         -29.4600    0.0050   23.8660 C.3     1  UNL1        0.2426
     24 C         -30.0650   -1.3770   23.5730 C.3     1  UNL1        0.2292
     25 O         -30.7290   -1.8780   24.7210 O.3     1  UNL1       -0.2162
     26 C         -26.3540    0.5760   25.7770 C.2     1  UNL1        0.1930
     27 F         -25.8600   -0.6810   25.7950 F       1  UNL1       -0.1992
     28 C         -24.4128    1.2206   26.9220 C.2     1  UNL1        0.0016
     29 C         -22.8710    0.7029   28.4968 C.3     1  UNL1        0.2284
     30 C         -29.3855    2.9751   28.6111 C.3     1  UNL1        0.0389
     31 C         -23.3487    1.5685   26.0697 C.2     1  UNL1        0.0396
     32 N         -27.1296    1.4771   28.9212 N.am    1  UNL1       -0.1823
     33 C         -24.1728    0.5994   28.1605 C.2     1  UNL1        0.0079
     34 C         -29.0905    3.8016   29.8376 C.3     1  UNL1        0.0061
     35 C         -22.1244    1.5614   26.4849 C.2     1  UNL1        0.1727
     36 C         -28.5172    1.6637   28.3982 C.2     1  UNL1        0.0618
     37 C         -25.1702   -0.0576   29.0459 C.3     1  UNL1        0.1056
     38 O         -21.8612    1.1527   27.7358 O.2     1  UNL1       -0.4679
     39 C         -26.6240    0.2326   28.9170 C.2     1  UNL1        0.2491
     40 C         -30.3976    3.0612   29.7719 C.3     1  UNL1        0.0061
     41 O         -27.4261   -0.7169   28.6708 O.2     1  UNL1       -0.2727
@<TRIPOS>BOND
     1     1    37    1
     2     2     7    1
     3     2     1    1
     4     3     2    2
     5     4     3    1
     6     4     5    2
     7     5     6    1
     8     6     7    2
     9     8     1    1
    10     8     9    1
    11     8    12    1
    12     9    10    1
    13    10    11    1
    14    12    11    1
    15    13    28    1
    16    14    13    1
    17    14    15    1
    18    15    18    2
    19    16    17    1
    20    16    15    1
    21    19    14    2
    22    20    21    2
    23    20    19    1
    24    21    26    1
    25    22    21    1
    26    23    22    1
    27    24    23    1
    28    24    25    1
    29    26    27    1
    30    26    13    2
    31    28    33    2
    32    30    40    1
    33    30    34    1
    34    31    35    2
    35    31    28    1
    36    33    29    1
    37    33    37    1
    38    35    38    1
    39    36    30    1
    40    36    32    2
    41    37    39    1
    42    38    29    1
    43    39    32    1
    44    40    34    1
    45    41    39    2
