@<TRIPOS>MOLECULE
No_4815-gen_results/8p0m/2024-11-27-11-27-31/
 14 14 0 0 0
SMALL
GASTEIGER

@<TRIPOS>ATOM
      1 O         -28.1229   -1.3353   28.4874 O.2     1  UNL1       -0.2684
      2 C         -27.4806   -0.4044   28.7094 C.2     1  UNL1        0.2648
      3 N         -27.2412    0.3910   29.5098 N.am    1  UNL1       -0.1998
      4 C         -26.6424    0.1187   27.3495 C.ar    1  UNL1        0.0550
      5 C         -26.8725    0.0603   26.3315 C.ar    1  UNL1        0.0046
      6 C         -25.9624    0.5440   25.2827 C.ar    1  UNL1        0.0001
      7 C         -24.6952    1.0179   25.6754 C.ar    1  UNL1        0.0039
      8 C         -24.4003    1.0929   26.9886 C.ar    1  UNL1        0.0716
      9 C         -25.2935    0.6916   27.8985 C.ar    1  UNL1        0.0084
     10 C         -28.0711   -0.0280   30.8207 C.3     1  UNL1        0.1388
     11 C         -23.1229    1.6840   27.3592 C.3     1  UNL1        0.4186
     12 F         -22.2653    1.9027   26.5787 F       1  UNL1       -0.1659
     13 F         -23.3163    2.9291   28.0561 F       1  UNL1       -0.1659
     14 F         -22.5564    0.8991   28.3747 F       1  UNL1       -0.1659
@<TRIPOS>BOND
     1     1     2    2
     2     2     3   am
     3     2     4    1
     4     3    10    1
     5     8    11    1
     6    11    12    1
     7    11    13    1
     8    11    14    1
     9     4     5   ar
    10     5     6   ar
    11     6     7   ar
    12     7     8   ar
    13     8     9   ar
    14     9     4   ar
