@<TRIPOS>MOLECULE
outputs/IAG933/test6/raw/output_4820_IAG933_linker_design_.xyz
 39 43 0 0 0
SMALL
GASTEIGER

@<TRIPOS>ATOM
      1 C         -24.8550   -1.0120   30.1430 C.3     1  UNL1        0.0919
      2 C         -24.9730   -2.5050   29.7880 C.2     1  UNL1       -0.0165
      3 C         -23.9060   -3.1730   29.1460 C.2     1  UNL1       -0.0041
      4 C         -23.9890   -4.5490   28.8530 C.2     1  UNL1       -0.0003
      5 C         -25.1370   -5.2800   29.2050 C.2     1  UNL1       -0.0000
      6 C         -26.2320   -4.6110   29.7840 C.2     1  UNL1       -0.0003
      7 C         -26.1550   -3.2320   30.0650 C.2     1  UNL1       -0.0041
      8 C         -25.3870   -0.6790   31.5710 C.3     1  UNL1        0.0815
      9 C         -25.1890    0.7730   32.0280 C.3     1  UNL1        0.0194
     10 C         -25.3360    0.6840   33.5440 C.3     1  UNL1        0.0202
     11 C         -24.8290   -0.7150   33.9050 C.3     1  UNL1        0.0887
     12 N         -24.7580   -1.4810   32.6460 N.3     1  UNL1       -0.2190
     13 C         -25.6880    1.6140   26.4610 C.2     1  UNL1        0.0553
     14 C         -26.2500    2.9200   26.3950 C.2     1  UNL1        0.0780
     15 C         -25.6420    4.0930   27.1230 C.2     1  UNL1        0.2665
     16 N         -25.6140    5.2520   26.4490 N.am    1  UNL1       -0.1997
     17 C         -25.0260    6.4790   26.9630 C.3     1  UNL1        0.1388
     18 O         -25.1430    3.9660   28.2430 O.2     1  UNL1       -0.2683
     19 C         -27.4380    3.0910   25.6450 C.2     1  UNL1        0.1068
     20 N         -28.0750    2.0890   25.0030 N.2     1  UNL1       -0.2081
     21 C         -27.5430    0.8490   25.0790 C.2     1  UNL1        0.2533
     22 O         -28.1930   -0.2080   24.4770 O.2     1  UNL1       -0.4558
     23 C         -29.4600    0.0050   23.8660 C.3     1  UNL1        0.2426
     24 C         -30.0650   -1.3770   23.5730 C.3     1  UNL1        0.2292
     25 O         -30.7290   -1.8780   24.7210 O.3     1  UNL1       -0.2162
     26 C         -26.3540    0.5760   25.7770 C.2     1  UNL1        0.1945
     27 F         -25.8600   -0.6810   25.7950 F       1  UNL1       -0.1992
     28 C         -23.9106    0.1154   29.5275 C.3     1  UNL1        0.2331
     29 C         -22.0170    1.7821   26.9442 C.3     1  UNL1        0.3141
     30 C         -23.0874    1.2536   27.6215 C.2     1  UNL1        0.0648
     31 N         -25.0006    0.6036   28.3305 N.2     1  UNL1       -0.2406
     32 O         -23.2226    0.2545   30.9831 O.3     1  UNL1       -0.1958
     33 C         -24.5094    1.2378   27.3181 C.2     1  UNL1        0.0830
     34 C         -23.2803    2.1919   25.3293 C.3     1  UNL1        0.1783
     35 C         -21.4915    0.2786   29.1872 C.2     1  UNL1        0.0401
     36 O         -22.0498    2.2505   25.6787 O.3     1  UNL1       -0.3144
     37 O         -20.6892    1.5996   27.3614 O.2     1  UNL1       -0.4460
     38 C         -20.4064    0.8819   28.5638 C.2     1  UNL1        0.1752
     39 C         -22.7959    0.4951   28.8262 C.2     1  UNL1        0.0331
@<TRIPOS>BOND
     1     1     2    1
     2     2     7    1
     3     3     2    2
     4     4     3    1
     5     4     5    2
     6     5     6    1
     7     6     7    2
     8     8     1    1
     9     8     9    1
    10     8    12    1
    11     9    10    1
    12    10    11    1
    13    12    11    1
    14    13    33    1
    15    14    13    1
    16    14    15    1
    17    15    18    2
    18    16    17    1
    19    16    15    1
    20    19    14    2
    21    20    21    2
    22    20    19    1
    23    21    26    1
    24    22    21    1
    25    23    22    1
    26    24    23    1
    27    24    25    1
    28    26    27    1
    29    26    13    2
    30    28     1    1
    31    28    32    1
    32    29    36    1
    33    29    37    1
    34    29    30    1
    35    30    39    2
    36    31    28    1
    37    33    30    1
    38    33    31    2
    39    34    36    1
    40    37    38    1
    41    38    35    2
    42    39    35    1
    43    39    28    1
