@<TRIPOS>MOLECULE
outputs/IAG933/test6/raw/output_4821_IAG933_linker_design_.xyz
 41 44 0 0 0
SMALL
GASTEIGER

@<TRIPOS>ATOM
      1 C         -24.8550   -1.0120   30.1430 C.3     1  UNL1        0.1117
      2 C         -24.9730   -2.5050   29.7880 C.2     1  UNL1       -0.0030
      3 C         -23.9060   -3.1730   29.1460 C.2     1  UNL1       -0.0026
      4 C         -23.9890   -4.5490   28.8530 C.2     1  UNL1       -0.0003
      5 C         -25.1370   -5.2800   29.2050 C.2     1  UNL1       -0.0000
      6 C         -26.2320   -4.6110   29.7840 C.2     1  UNL1       -0.0003
      7 C         -26.1550   -3.2320   30.0650 C.2     1  UNL1       -0.0026
      8 C         -25.3870   -0.6790   31.5710 C.3     1  UNL1        0.0950
      9 C         -25.1890    0.7730   32.0280 C.3     1  UNL1        0.0209
     10 C         -25.3360    0.6840   33.5440 C.3     1  UNL1        0.0203
     11 C         -24.8290   -0.7150   33.9050 C.3     1  UNL1        0.0888
     12 N         -24.7580   -1.4810   32.6460 N.3     1  UNL1       -0.2174
     13 C         -25.6880    1.6140   26.4610 C.2     1  UNL1        0.0592
     14 C         -26.2500    2.9200   26.3950 C.2     1  UNL1        0.0803
     15 C         -25.6420    4.0930   27.1230 C.2     1  UNL1        0.2667
     16 N         -25.6140    5.2520   26.4490 N.am    1  UNL1       -0.1997
     17 C         -25.0260    6.4790   26.9630 C.3     1  UNL1        0.1388
     18 O         -25.1430    3.9660   28.2430 O.2     1  UNL1       -0.2683
     19 C         -27.4380    3.0910   25.6450 C.2     1  UNL1        0.1067
     20 N         -28.0750    2.0890   25.0030 N.2     1  UNL1       -0.2112
     21 C         -27.5430    0.8490   25.0790 C.2     1  UNL1        0.2389
     22 O         -28.1930   -0.2080   24.4770 O.2     1  UNL1       -0.4583
     23 C         -29.4600    0.0050   23.8660 C.3     1  UNL1        0.2423
     24 C         -30.0650   -1.3770   23.5730 C.3     1  UNL1        0.2292
     25 O         -30.7290   -1.8780   24.7210 O.3     1  UNL1       -0.2162
     26 C         -26.3540    0.5760   25.7770 C.3     1  UNL1        0.2653
     27 F         -25.8600   -0.6810   25.7950 F       1  UNL1       -0.2217
     28 O         -27.7434   -0.3692   28.8750 O.2     1  UNL1       -0.2943
     29 C         -29.0315    1.4830   30.3638 C.3     1  UNL1        0.0083
     30 C         -27.1493    0.7258   29.0427 C.2     1  UNL1        0.1705
     31 O         -21.4077    0.9319   28.3479 O.2     1  UNL1       -0.4442
     32 O         -21.7782    2.1308   26.0907 O.3     1  UNL1       -0.3139
     33 C         -22.8174    2.6730   25.2765 C.3     1  UNL1        0.1784
     34 C         -25.7632    0.9656   28.9325 C.3     1  UNL1        0.1564
     35 C         -22.3498    0.3309   29.2143 C.2     1  UNL1        0.1903
     36 C         -23.6123    0.3878   28.6965 C.2     1  UNL1        0.0950
     37 C         -22.1498    1.4480   27.2425 C.3     1  UNL1        0.3214
     38 C         -28.0553    1.8774   29.2364 C.3     1  UNL1        0.0663
     39 N         -24.8945   -0.2013   29.0722 N.pl3   1  UNL1       -0.2949
     40 C         -24.4730    1.3654   26.8697 C.1     1  UNL1       -0.0996
     41 C         -23.5166    1.1636   27.4375 C.2     1  UNL1        0.0978
@<TRIPOS>BOND
     1     1    39    1
     2     2     7    1
     3     2     1    1
     4     3     2    2
     5     4     3    1
     6     4     5    2
     7     5     6    1
     8     6     7    2
     9     8     1    1
    10     8     9    1
    11     8    12    1
    12     9    10    1
    13    10    11    1
    14    12    11    1
    15    13    40    2
    16    14    13    1
    17    14    15    1
    18    15    18    2
    19    16    17    1
    20    16    15    1
    21    19    14    2
    22    20    21    2
    23    20    19    1
    24    21    26    1
    25    22    21    1
    26    23    22    1
    27    24    23    1
    28    24    25    1
    29    26    27    1
    30    26    13    1
    31    28    30    2
    32    30    38    1
    33    31    35    1
    34    33    32    1
    35    34    30    1
    36    34    39    1
    37    36    39    1
    38    36    35    2
    39    37    32    1
    40    37    41    1
    41    37    31    1
    42    38    29    1
    43    40    41    2
    44    41    36    1
