@<TRIPOS>MOLECULE
No_4822-gen_results/8p0m/2024-11-27-11-27-31/
 9 8 0 0 0
SMALL
GASTEIGER

@<TRIPOS>ATOM
      1 C         -28.0162   -0.8135   28.8779 C.1     1  UNL1       -0.0641
      2 C         -27.0636   -0.1189   28.6079 C.1     1  UNL1       -0.0861
      3 C         -26.4071    0.8834   28.2425 C.3     1  UNL1        0.0810
      4 C         -25.7321    1.6614   27.7371 C.3     1  UNL1        0.0400
      5 C         -24.7755    2.4560   27.9134 C.2     1  UNL1       -0.0251
      6 C         -23.6513    2.4091   28.5056 C.2     1  UNL1       -0.0049
      7 C         -27.8327   -1.7124   29.9291 C.2     1  UNL1        0.0447
      8 C         -26.8753   -2.1192   30.3466 C.2     1  UNL1       -0.0170
      9 C         -25.5507   -1.7019   30.0055 C.3     1  UNL1        0.0314
@<TRIPOS>BOND
     1     1     2    3
     2     2     3    1
     3     3     4    1
     4     4     5    1
     5     5     6    2
     6     1     7    1
     7     7     8    2
     8     8     9    1
