@<TRIPOS>MOLECULE
outputs/IAG933/test6/raw/output_4823_IAG933_linker_design_.xyz
 46 49 0 0 0
SMALL
GASTEIGER

@<TRIPOS>ATOM
      1 C         -24.8550   -1.0120   30.1430 C.3     1  UNL1        0.0962
      2 C         -24.9730   -2.5050   29.7880 C.2     1  UNL1       -0.0064
      3 C         -23.9060   -3.1730   29.1460 C.2     1  UNL1       -0.0029
      4 C         -23.9890   -4.5490   28.8530 C.2     1  UNL1       -0.0003
      5 C         -25.1370   -5.2800   29.2050 C.2     1  UNL1       -0.0000
      6 C         -26.2320   -4.6110   29.7840 C.2     1  UNL1       -0.0003
      7 C         -26.1550   -3.2320   30.0650 C.2     1  UNL1       -0.0029
      8 C         -25.3870   -0.6790   31.5710 C.3     1  UNL1        0.0916
      9 C         -25.1890    0.7730   32.0280 C.3     1  UNL1        0.0206
     10 C         -25.3360    0.6840   33.5440 C.3     1  UNL1        0.0203
     11 C         -24.8290   -0.7150   33.9050 C.3     1  UNL1        0.0888
     12 N         -24.7580   -1.4810   32.6460 N.3     1  UNL1       -0.2178
     13 C         -25.6880    1.6140   26.4610 C.2     1  UNL1        0.0172
     14 C         -26.2500    2.9200   26.3950 C.2     1  UNL1        0.0726
     15 C         -25.6420    4.0930   27.1230 C.2     1  UNL1        0.2661
     16 N         -25.6140    5.2520   26.4490 N.am    1  UNL1       -0.1997
     17 C         -25.0260    6.4790   26.9630 C.3     1  UNL1        0.1388
     18 O         -25.1430    3.9660   28.2430 O.2     1  UNL1       -0.2683
     19 C         -27.4380    3.0910   25.6450 C.2     1  UNL1        0.1064
     20 N         -28.0750    2.0890   25.0030 N.2     1  UNL1       -0.2081
     21 C         -27.5430    0.8490   25.0790 C.2     1  UNL1        0.2530
     22 O         -28.1930   -0.2080   24.4770 O.2     1  UNL1       -0.4558
     23 C         -29.4600    0.0050   23.8660 C.3     1  UNL1        0.2426
     24 C         -30.0650   -1.3770   23.5730 C.3     1  UNL1        0.2292
     25 O         -30.7290   -1.8780   24.7210 O.3     1  UNL1       -0.2162
     26 C         -26.3540    0.5760   25.7770 C.2     1  UNL1        0.1892
     27 F         -25.8600   -0.6810   25.7950 F       1  UNL1       -0.1996
     28 O         -31.1556   -0.8065   27.0288 O.2     1  UNL1       -0.2872
     29 C         -31.3489   -0.2639   28.2085 C.2     1  UNL1        0.1877
     30 C         -34.3527   -2.3234   29.6108 C.3     1  UNL1        0.0051
     31 C         -29.1039   -0.2908   28.7599 C.3     1  UNL1        0.0310
     32 C         -32.4572   -0.4592   29.0114 C.2     1  UNL1        0.0164
     33 C         -32.7800    0.5860   29.9535 C.2     1  UNL1       -0.0011
     34 C         -30.3021    0.6389   28.7167 C.2     1  UNL1        0.0165
     35 C         -26.7577    0.0687   28.9983 C.3     1  UNL1        0.0726
     36 C         -30.8065    1.8424   29.3334 C.2     1  UNL1       -0.0011
     37 C         -28.4607    1.7969   28.7091 C.3     1  UNL1        0.0018
     38 C         -21.8804    1.1394   28.7703 C.3     1  UNL1        0.0014
     39 C         -24.1170    0.1777   28.0996 C.3     1  UNL1        0.0622
     40 C         -32.0253    1.7690   30.0396 C.2     1  UNL1       -0.0004
     41 C         -33.2361   -1.7655   28.6879 C.3     1  UNL1        0.0296
     42 N         -25.2470    0.0360   29.1398 N.3     1  UNL1       -0.2702
     43 C         -27.9182    0.4777   28.8679 C.3     1  UNL1        0.0205
     44 C         -21.2130    1.6267   27.4418 C.3     1  UNL1        0.0000
     45 C         -24.2806    1.3188   27.0391 C.3     1  UNL1        0.0449
     46 C         -22.8363    0.1845   28.9264 C.3     1  UNL1        0.0163
@<TRIPOS>BOND
     1     1    42    1
     2     2     7    1
     3     2     1    1
     4     3     2    2
     5     4     3    1
     6     4     5    2
     7     5     6    1
     8     6     7    2
     9     8     1    1
    10     8     9    1
    11     8    12    1
    12     9    10    1
    13    10    11    1
    14    12    11    1
    15    13    45    1
    16    14    13    1
    17    14    15    1
    18    15    18    2
    19    16    17    1
    20    16    15    1
    21    19    14    2
    22    20    21    2
    23    20    19    1
    24    21    26    1
    25    22    21    1
    26    23    22    1
    27    24    23    1
    28    24    25    1
    29    26    27    1
    30    26    13    2
    31    28    29    1
    32    29    34    2
    33    29    32    1
    34    31    43    1
    35    32    33    2
    36    33    40    1
    37    34    31    1
    38    34    36    1
    39    35    42    1
    40    36    40    2
    41    38    46    1
    42    39    45    1
    43    39    46    1
    44    39    42    1
    45    41    32    1
    46    41    30    1
    47    43    37    1
    48    43    35    1
    49    44    38    1
