@<TRIPOS>MOLECULE
outputs/IAG933/test6/raw/output_4824_IAG933_linker_design_.xyz
 44 48 0 0 0
SMALL
GASTEIGER

@<TRIPOS>ATOM
      1 C         -24.8550   -1.0120   30.1430 C.3     1  UNL1        0.0598
      2 C         -24.9730   -2.5050   29.7880 C.2     1  UNL1       -0.0173
      3 C         -23.9060   -3.1730   29.1460 C.2     1  UNL1       -0.0039
      4 C         -23.9890   -4.5490   28.8530 C.2     1  UNL1       -0.0003
      5 C         -25.1370   -5.2800   29.2050 C.2     1  UNL1       -0.0000
      6 C         -26.2320   -4.6110   29.7840 C.2     1  UNL1       -0.0003
      7 C         -26.1550   -3.2320   30.0650 C.2     1  UNL1       -0.0039
      8 C         -25.3870   -0.6790   31.5710 C.3     1  UNL1        0.0806
      9 C         -25.1890    0.7730   32.0280 C.3     1  UNL1        0.0195
     10 C         -25.3360    0.6840   33.5440 C.3     1  UNL1        0.0203
     11 C         -24.8290   -0.7150   33.9050 C.3     1  UNL1        0.0887
     12 N         -24.7580   -1.4810   32.6460 N.3     1  UNL1       -0.2188
     13 C         -25.6880    1.6140   26.4610 C.3     1  UNL1        0.0962
     14 C         -26.2500    2.9200   26.3950 C.2     1  UNL1        0.0590
     15 C         -25.6420    4.0930   27.1230 C.2     1  UNL1        0.2628
     16 N         -25.6140    5.2520   26.4490 N.am    1  UNL1       -0.2000
     17 C         -25.0260    6.4790   26.9630 C.3     1  UNL1        0.1388
     18 O         -25.1430    3.9660   28.2430 O.2     1  UNL1       -0.2686
     19 C         -27.4380    3.0910   25.6450 C.2     1  UNL1        0.1025
     20 N         -28.0750    2.0890   25.0030 N.2     1  UNL1       -0.2118
     21 C         -27.5430    0.8490   25.0790 C.2     1  UNL1        0.2344
     22 O         -28.1930   -0.2080   24.4770 O.2     1  UNL1       -0.4585
     23 C         -29.4600    0.0050   23.8660 C.3     1  UNL1        0.2423
     24 C         -30.0650   -1.3770   23.5730 C.3     1  UNL1        0.2292
     25 O         -30.7290   -1.8780   24.7210 O.3     1  UNL1       -0.2162
     26 C         -26.3540    0.5760   25.7770 C.3     1  UNL1        0.2441
     27 F         -25.8600   -0.6810   25.7950 F       1  UNL1       -0.2265
     28 C         -28.0769    0.9710   28.5849 C.3     1  UNL1        0.2294
     29 C         -24.5507   -0.0526   29.2136 C.2     1  UNL1        0.0002
     30 C         -24.7790    1.2078   27.3830 C.2     1  UNL1        0.0278
     31 O         -26.8557    0.1387   28.6089 O.2     1  UNL1       -0.4744
     32 C         -30.1915   -0.7472   28.7514 C.3     1  UNL1        0.1846
     33 O         -30.8452    0.0828   32.1320 O.2     1  UNL1       -0.2733
     34 C         -29.1199   -0.0194   29.1849 C.3     1  UNL1        0.1694
     35 N         -29.5135    0.7023   30.3294 N.am    1  UNL1       -0.2006
     36 N         -22.3806    1.2861   26.7008 N.pl3   1  UNL1       -0.3073
     37 C         -23.3454    0.3296   28.6055 C.3     1  UNL1        0.0662
     38 C         -23.5304    1.0736   27.4149 C.2     1  UNL1        0.0284
     39 C         -22.2090    1.8941   25.4203 C.3     1  UNL1        0.1120
     40 C         -25.3630    0.4866   28.5536 C.2     1  UNL1        0.1286
     41 C         -30.5189    0.0251   30.8686 C.2     1  UNL1        0.2442
     42 O         -30.7992   -0.0334   27.6343 O.3     1  UNL1       -0.2206
     43 C         -31.1377   -0.9121   29.9330 C.3     1  UNL1        0.1215
     44 C         -21.2152    1.4443   27.5736 C.3     1  UNL1        0.1120
@<TRIPOS>BOND
     1     1    29    1
     2     2     7    1
     3     2     1    1
     4     3     2    2
     5     4     3    1
     6     4     5    2
     7     5     6    1
     8     6     7    2
     9     8     1    1
    10     8     9    1
    11     8    12    1
    12     9    10    1
    13    10    11    1
    14    12    11    1
    15    13    30    1
    16    14    13    1
    17    14    15    1
    18    15    18    2
    19    16    17    1
    20    16    15    1
    21    19    14    2
    22    20    21    2
    23    20    19    1
    24    21    26    1
    25    22    21    1
    26    23    22    1
    27    24    23    1
    28    24    25    1
    29    26    27    1
    30    26    13    1
    31    28    31    1
    32    30    38    2
    33    30    40    1
    34    32    42    1
    35    32    34    1
    36    32    43    1
    37    34    28    1
    38    34    35    1
    39    35    41    1
    40    36    38    1
    41    36    44    1
    42    37    29    1
    43    38    37    1
    44    39    36    1
    45    40    31    1
    46    40    29    2
    47    41    33    2
    48    43    41    1
