@<TRIPOS>MOLECULE
outputs/IAG933/test6/raw/output_4825_IAG933_linker_design_.xyz
 44 47 0 0 0
SMALL
GASTEIGER

@<TRIPOS>ATOM
      1 C         -24.8550   -1.0120   30.1430 C.3     1  UNL1        0.0683
      2 C         -24.9730   -2.5050   29.7880 C.2     1  UNL1       -0.0164
      3 C         -23.9060   -3.1730   29.1460 C.2     1  UNL1       -0.0039
      4 C         -23.9890   -4.5490   28.8530 C.2     1  UNL1       -0.0003
      5 C         -25.1370   -5.2800   29.2050 C.2     1  UNL1       -0.0000
      6 C         -26.2320   -4.6110   29.7840 C.2     1  UNL1       -0.0003
      7 C         -26.1550   -3.2320   30.0650 C.2     1  UNL1       -0.0039
      8 C         -25.3870   -0.6790   31.5710 C.3     1  UNL1        0.0815
      9 C         -25.1890    0.7730   32.0280 C.3     1  UNL1        0.0195
     10 C         -25.3360    0.6840   33.5440 C.3     1  UNL1        0.0203
     11 C         -24.8290   -0.7150   33.9050 C.3     1  UNL1        0.0887
     12 N         -24.7580   -1.4810   32.6460 N.3     1  UNL1       -0.2188
     13 C         -25.6880    1.6140   26.4610 C.2     1  UNL1        0.0412
     14 C         -26.2500    2.9200   26.3950 C.2     1  UNL1        0.0766
     15 C         -25.6420    4.0930   27.1230 C.2     1  UNL1        0.2664
     16 N         -25.6140    5.2520   26.4490 N.am    1  UNL1       -0.1997
     17 C         -25.0260    6.4790   26.9630 C.3     1  UNL1        0.1388
     18 O         -25.1430    3.9660   28.2430 O.2     1  UNL1       -0.2683
     19 C         -27.4380    3.0910   25.6450 C.2     1  UNL1        0.1067
     20 N         -28.0750    2.0890   25.0030 N.2     1  UNL1       -0.2081
     21 C         -27.5430    0.8490   25.0790 C.2     1  UNL1        0.2533
     22 O         -28.1930   -0.2080   24.4770 O.2     1  UNL1       -0.4558
     23 C         -29.4600    0.0050   23.8660 C.3     1  UNL1        0.2426
     24 C         -30.0650   -1.3770   23.5730 C.3     1  UNL1        0.2292
     25 O         -30.7290   -1.8780   24.7210 O.3     1  UNL1       -0.2162
     26 C         -26.3540    0.5760   25.7770 C.2     1  UNL1        0.1931
     27 F         -25.8600   -0.6810   25.7950 F       1  UNL1       -0.1992
     28 C         -27.4368    3.2067   29.9983 C.3     1  UNL1        0.1743
     29 O         -29.8582    3.5406   30.0193 O.2     1  UNL1       -0.4623
     30 O         -27.4760    4.5226   29.2104 O.3     1  UNL1       -0.3471
     31 C         -25.4247   -0.1502   29.0477 C.2     1  UNL1        0.0255
     32 C         -24.4422    1.3525   27.1294 C.2     1  UNL1        0.0418
     33 C         -27.9276    0.3671   28.4433 C.1     1  UNL1       -0.0144
     34 C         -29.6778    4.9420   29.4784 C.3     1  UNL1        0.2382
     35 C         -21.9094    1.2483   28.4557 C.2     1  UNL1        0.0033
     36 C         -28.9067    1.4017   28.6391 C.1     1  UNL1       -0.0113
     37 C         -26.7104   -0.1483   28.7626 C.1     1  UNL1       -0.0557
     38 C         -24.3736    0.6562   28.4136 C.2     1  UNL1        0.0072
     39 C         -23.0526    0.7375   29.0367 C.2     1  UNL1        0.0005
     40 C         -28.5444    4.7573   28.4225 C.3     1  UNL1        0.1894
     41 C         -29.8598    2.5408   29.0122 C.2     1  UNL1        0.2242
     42 O         -23.3537    2.4256   25.4337 O.2     1  UNL1       -0.2866
     43 C         -23.2684    1.7962   26.5777 C.2     1  UNL1        0.1957
     44 C         -21.9923    1.7511   27.1664 C.2     1  UNL1        0.0420
@<TRIPOS>BOND
     1     1    31    1
     2     2     7    1
     3     2     1    1
     4     3     2    2
     5     4     3    1
     6     4     5    2
     7     5     6    1
     8     6     7    2
     9     8     1    1
    10     8     9    1
    11     8    12    1
    12     9    10    1
    13    10    11    1
    14    12    11    1
    15    13    32    1
    16    14    13    1
    17    14    15    1
    18    15    18    2
    19    16    17    1
    20    16    15    1
    21    19    14    2
    22    20    21    2
    23    20    19    1
    24    21    26    1
    25    22    21    1
    26    23    22    1
    27    24    23    1
    28    24    25    1
    29    26    27    1
    30    26    13    2
    31    30    28    1
    32    32    38    1
    33    33    36    2
    34    33    37    2
    35    34    29    1
    36    35    39    1
    37    36    41    2
    38    37    31    2
    39    38    39    2
    40    38    31    1
    41    40    30    1
    42    40    34    1
    43    41    29    1
    44    42    43    1
    45    43    32    2
    46    43    44    1
    47    44    35    2
