@<TRIPOS>MOLECULE
No_4827-gen_results/8p0m/2024-11-27-11-27-31/
 24 26 0 0 0
SMALL
GASTEIGER

@<TRIPOS>ATOM
      1 C         -28.0162   -0.8135   28.8779 C.ar    1  UNL1        0.0920
      2 C         -27.0636   -0.1189   28.6079 C.ar    1  UNL1        0.0077
      3 C         -27.0010    0.6913   27.4910 C.ar    1  UNL1        0.0017
      4 C         -28.1373    0.7363   26.6350 C.ar    1  UNL1        0.0177
      5 C         -29.2360    0.0765   27.0690 C.ar    1  UNL1        0.0816
      6 C         -29.2177   -0.6429   28.1747 C.ar    1  UNL1        0.0267
      7 N         -30.2580    0.2555   26.0835 N.ar    1  UNL1       -0.2438
      8 C         -30.1356    0.5789   24.8960 C.ar    1  UNL1        0.0988
      9 C         -28.9810    1.3825   24.5179 C.ar    1  UNL1        0.0207
     10 C         -28.0433    1.5460   25.3788 C.ar    1  UNL1        0.0031
     11 C         -28.0235   -1.6596   30.1665 C.2     1  UNL1        0.4137
     12 N         -28.7970   -1.9328   30.8295 N.pl3   1  UNL1       -0.0175
     13 N         -26.7281   -2.2987   30.3846 N.2     1  UNL1        0.1971
     14 C         -30.0459   -1.4009   30.9727 C.3     1  UNL1        0.3038
     15 C         -30.1204   -0.3297   31.8000 C.ar    1  UNL1        0.0331
     16 C         -29.1840   -0.1454   32.7756 C.ar    1  UNL1        0.0002
     17 C         -29.0339    1.1436   33.3480 C.ar    1  UNL1       -0.0002
     18 C         -30.0491    2.1010   33.1055 C.ar    1  UNL1       -0.0000
     19 C         -30.9887    1.9038   32.1631 C.ar    1  UNL1       -0.0002
     20 C         -30.9886    0.7324   31.4297 C.ar    1  UNL1        0.0002
     21 C         -31.0896   -2.4013   31.4674 C.2     1  UNL1        0.2931
     22 N         -32.0013   -2.7942   30.7698 N.am    1  UNL1       -0.1997
     23 C         -32.9434   -3.5947   31.1952 C.3     1  UNL1        0.1386
     24 O         -30.7492   -3.1340   32.4518 O.2     1  UNL1       -0.2685
@<TRIPOS>BOND
     1     1    11    1
     2    11    12    1
     3    11    13    2
     4    12    14    1
     5    14    21    1
     6    21    22   am
     7    22    23    1
     8    21    24    2
     9    14    15    1
    10     5     7   ar
    11     7     8   ar
    12     8     9   ar
    13     9    10   ar
    14    10     4   ar
    15     1     2   ar
    16     2     3   ar
    17     3     4   ar
    18     4     5   ar
    19     5     6   ar
    20     6     1   ar
    21    15    16   ar
    22    16    17   ar
    23    17    18   ar
    24    18    19   ar
    25    19    20   ar
    26    20    15   ar
