@<TRIPOS>MOLECULE
outputs/IAG933/test6/raw/output_483_IAG933_linker_design_.xyz
 42 45 0 0 0
SMALL
GASTEIGER

@<TRIPOS>ATOM
      1 C         -24.8550   -1.0120   30.1430 C.3     1  UNL1        0.0749
      2 C         -24.9730   -2.5050   29.7880 C.2     1  UNL1       -0.0181
      3 C         -23.9060   -3.1730   29.1460 C.2     1  UNL1       -0.0041
      4 C         -23.9890   -4.5490   28.8530 C.2     1  UNL1       -0.0003
      5 C         -25.1370   -5.2800   29.2050 C.2     1  UNL1       -0.0000
      6 C         -26.2320   -4.6110   29.7840 C.2     1  UNL1       -0.0003
      7 C         -26.1550   -3.2320   30.0650 C.2     1  UNL1       -0.0041
      8 C         -25.3870   -0.6790   31.5710 C.3     1  UNL1        0.0799
      9 C         -25.1890    0.7730   32.0280 C.3     1  UNL1        0.0193
     10 C         -25.3360    0.6840   33.5440 C.3     1  UNL1        0.0202
     11 C         -24.8290   -0.7150   33.9050 C.3     1  UNL1        0.0887
     12 N         -24.7580   -1.4810   32.6460 N.3     1  UNL1       -0.2190
     13 C         -25.6880    1.6140   26.4610 C.3     1  UNL1        0.0762
     14 C         -26.2500    2.9200   26.3950 C.2     1  UNL1        0.0552
     15 C         -25.6420    4.0930   27.1230 C.2     1  UNL1        0.2625
     16 N         -25.6140    5.2520   26.4490 N.am    1  UNL1       -0.2000
     17 C         -25.0260    6.4790   26.9630 C.3     1  UNL1        0.1388
     18 O         -25.1430    3.9660   28.2430 O.2     1  UNL1       -0.2687
     19 C         -27.4380    3.0910   25.6450 C.2     1  UNL1        0.1021
     20 N         -28.0750    2.0890   25.0030 N.2     1  UNL1       -0.2119
     21 C         -27.5430    0.8490   25.0790 C.2     1  UNL1        0.2341
     22 O         -28.1930   -0.2080   24.4770 O.2     1  UNL1       -0.4585
     23 C         -29.4600    0.0050   23.8660 C.3     1  UNL1        0.2423
     24 C         -30.0650   -1.3770   23.5730 C.3     1  UNL1        0.2292
     25 O         -30.7290   -1.8780   24.7210 O.3     1  UNL1       -0.2162
     26 C         -26.3540    0.5760   25.7770 C.3     1  UNL1        0.2404
     27 F         -25.8600   -0.6810   25.7950 F       1  UNL1       -0.2269
     28 O         -21.8971    0.7852   29.0994 O.2     1  UNL1       -0.2481
     29 O         -21.5369    1.9109   27.1001 O.3     1  UNL1       -0.4204
     30 O         -29.4466   -1.0804   29.8056 O.3     1  UNL1       -0.3417
     31 C         -22.0133    2.3414   25.9114 C.2     1  UNL1        0.1783
     32 C         -28.1922   -0.9711   29.0964 C.3     1  UNL1        0.2288
     33 O         -28.1467    1.2440   29.9540 O.2     1  UNL1       -0.2706
     34 N         -26.3136    0.5869   28.8460 N.am    1  UNL1       -0.1867
     35 C         -23.6848    0.9109   27.7220 C.3     1  UNL1        0.1778
     36 N         -24.2091   -0.0954   28.2520 N.3     1  UNL1       -0.1881
     37 C         -24.1814    1.4988   26.5955 C.3     1  UNL1        0.0595
     38 C         -25.1664   -0.1434   29.0619 C.3     1  UNL1        0.1735
     39 C         -27.5316    0.3762   29.2958 C.2     1  UNL1        0.2728
     40 C         -29.3832   -1.5915   31.1623 C.3     1  UNL1        0.1748
     41 C         -22.2920    1.2665   28.0307 C.2     1  UNL1        0.3379
     42 C         -23.3788    2.1571   25.6466 C.2     1  UNL1        0.0166
@<TRIPOS>BOND
     1     1    38    1
     2     2     7    1
     3     2     1    1
     4     3     2    2
     5     4     3    1
     6     4     5    2
     7     5     6    1
     8     6     7    2
     9     8     1    1
    10     8     9    1
    11     8    12    1
    12     9    10    1
    13    10    11    1
    14    12    11    1
    15    13    14    1
    16    13    37    1
    17    14    15    1
    18    15    18    2
    19    16    17    1
    20    16    15    1
    21    19    14    2
    22    20    21    2
    23    20    19    1
    24    21    26    1
    25    22    21    1
    26    23    22    1
    27    24    23    1
    28    24    25    1
    29    26    27    1
    30    26    13    1
    31    29    41    1
    32    30    40    1
    33    31    29    1
    34    32    39    1
    35    32    30    1
    36    34    38    1
    37    34    39    1
    38    35    41    1
    39    35    36    1
    40    37    42    1
    41    37    35    1
    42    38    36    1
    43    39    33    2
    44    41    28    2
    45    42    31    2
