@<TRIPOS>MOLECULE
No_4830-gen_results/8p0m/2024-11-27-11-27-31/
 24 27 0 0 0
SMALL
GASTEIGER

@<TRIPOS>ATOM
      1 O         -28.1229   -1.3353   28.4874 O.2     1  UNL1       -0.2733
      2 C         -27.0637   -0.8242   28.8687 C.2     1  UNL1        0.2413
      3 C         -26.9592    0.0926   29.7582 C.3     1  UNL1        0.0839
      4 N         -25.8472   -1.5491   28.6589 N.am    1  UNL1       -0.2054
      5 C         -27.8673    0.9590   30.1109 C.3     1  UNL1        0.0507
      6 C         -24.5647   -1.1378   29.0392 C.3     1  UNL1        0.1152
      7 C         -24.4713   -0.0100   29.7529 C.3     1  UNL1        0.0239
      8 C         -25.5769    0.6844   30.1567 C.3     1  UNL1        0.0113
      9 C         -28.7254    1.4587   29.3292 C.ar    1  UNL1       -0.0204
     10 C         -28.4930    1.5336   28.0179 C.ar    1  UNL1       -0.0042
     11 C         -29.4924    1.9730   27.0404 C.ar    1  UNL1       -0.0003
     12 C         -30.6828    2.4468   27.5594 C.ar    1  UNL1       -0.0000
     13 C         -30.9399    2.4007   28.8957 C.ar    1  UNL1       -0.0003
     14 C         -30.0332    1.9416   29.7995 C.ar    1  UNL1       -0.0042
     15 C         -28.1389    0.9943   31.6356 C.3     1  UNL1        0.0955
     16 N         -27.7471    1.9931   32.2938 N.pl3   1  UNL1       -0.3070
     17 C         -27.2961    3.0308   31.9879 C.ar    1  UNL1        0.0439
     18 C         -27.3120    3.6169   30.8780 C.ar    1  UNL1        0.0142
     19 C         -26.5692    4.8721   30.5638 C.ar    1  UNL1        0.0012
     20 C         -25.9146    5.4421   31.5795 C.ar    1  UNL1       -0.0002
     21 C         -25.8315    4.8522   32.8612 C.ar    1  UNL1       -0.0030
     22 C         -26.4499    3.7345   33.0847 C.ar    1  UNL1       -0.0071
     23 C         -27.3197    1.7567   33.8353 C.3     1  UNL1        0.0955
     24 C         -26.5394    2.8383   34.1923 C.3     1  UNL1        0.0490
@<TRIPOS>BOND
     1     1     2    2
     2     2     3    1
     3     2     4   am
     4     3     5    1
     5     6     7    1
     6     3     8    1
     7     5     9    1
     8     5    15    1
     9    15    16    1
    10    16    17    1
    11    16    23    1
    12    22    24    1
    13    23    24    1
    14     8     7    1
    15     6     4    1
    16    17    18   ar
    17    18    19   ar
    18    19    20   ar
    19    20    21   ar
    20    21    22   ar
    21    22    17   ar
    22     9    10   ar
    23    10    11   ar
    24    11    12   ar
    25    12    13   ar
    26    13    14   ar
    27    14     9   ar
