@<TRIPOS>MOLECULE
No_4831-gen_results/8p0m/2024-11-27-11-27-31/
 35 36 0 0 0
SMALL
GASTEIGER

@<TRIPOS>ATOM
      1 C         -28.0162   -0.8135   28.8779 C.ar    1  UNL1        0.0066
      2 C         -27.0636   -0.1189   28.6079 C.ar    1  UNL1        0.0065
      3 C         -27.0010    0.6913   27.4910 C.ar    1  UNL1        0.0798
      4 C         -25.8548    1.4825   27.0830 C.ar    1  UNL1        0.0065
      5 C         -24.9008    1.3894   27.5922 C.ar    1  UNL1        0.0041
      6 C         -24.6783    0.5764   28.8299 C.ar    1  UNL1        0.0714
      7 C         -25.7704   -0.2051   29.2800 C.ar    1  UNL1        0.0041
      8 C         -27.9632   -1.4284   30.2685 C.ar    1  UNL1        0.0756
      9 C         -26.7397   -1.6492   30.9220 C.ar    1  UNL1        0.0064
     10 C         -25.6307   -0.9399   30.4794 C.ar    1  UNL1        0.0002
     11 C         -23.3360    0.5731   29.5025 C.3     1  UNL1        0.4186
     12 F         -23.3713    1.0806   30.6230 F       1  UNL1       -0.1659
     13 F         -22.5327   -0.3151   29.2312 F       1  UNL1       -0.1659
     14 C         -28.2575    0.7672   26.6261 C.2     1  UNL1        0.3878
     15 O         -28.2312    0.7887   25.4360 O.co2   1  UNL1       -0.2406
     16 O         -29.3870    0.3985   27.2045 O.co2   1  UNL1       -0.2406
     17 F         -22.6002    1.7714   28.9336 F       1  UNL1       -0.1659
     18 C         -29.1264   -2.2601   30.7426 C.2     1  UNL1        0.3412
     19 O         -30.1403   -1.7892   30.9201 O.2     1  UNL1       -0.2449
     20 O         -28.8848   -3.5301   30.9701 O.3     1  UNL1       -0.4447
     21 C         -29.8578   -4.4848   30.7662 C.3     1  UNL1        0.2216
     22 C         -30.3210   -4.7738   29.5261 C.3     1  UNL1        0.1653
     23 P         -32.0102   -4.9370   29.2990 P.3     1  UNL1        0.3736
     24 O         -32.7629   -4.5204   29.8619 O.2     1  UNL1       -0.2554
     25 O         -32.0785   -4.5290   27.6703 O.3     1  UNL1       -0.2899
     26 O         -31.9999   -6.5481   29.0795 O.3     1  UNL1       -0.1397
     27 C         -33.1313   -4.1961   27.0423 C.3     1  UNL1        0.1834
     28 C         -32.6998   -3.3285   26.0085 C.3     1  UNL1        0.1747
     29 O         -31.5266   -2.9135   25.8125 O.3     1  UNL1       -0.3507
     30 C         -31.1555   -1.8859   24.7854 C.3     1  UNL1        0.1469
     31 C         -32.2437   -1.2236   24.2792 C.3     1  UNL1        0.0581
     32 C         -31.9002    0.0951   23.8115 C.2     1  UNL1       -0.0235
     33 C         -30.6061    0.4070   23.8318 C.2     1  UNL1       -0.0045
     34 C         -30.2010    1.7497   23.3827 C.2     1  UNL1       -0.0003
     35 C         -31.2112    2.5853   22.8489 C.2     1  UNL1       -0.0000
@<TRIPOS>BOND
     1     6    11    1
     2    11    12    1
     3    11    13    1
     4     3    14    1
     5    14    15   ar
     6    14    16   ar
     7    11    17    1
     8     8    18    1
     9    18    19    2
    10    18    20    1
    11    20    21    1
    12    21    22    1
    13    22    23    1
    14    23    24    2
    15    23    25    1
    16    23    26    1
    17    25    27    1
    18    27    28    1
    19    28    29    1
    20    29    30    1
    21    30    31    1
    22    31    32    1
    23    32    33    2
    24    33    34    1
    25    34    35    2
    26     2     3   ar
    27     3     4   ar
    28     4     5   ar
    29     5     6   ar
    30     6     7   ar
    31     1     2   ar
    32     2     7   ar
    33     7    10   ar
    34    10     9   ar
    35     9     8   ar
    36     8     1   ar
