@<TRIPOS>MOLECULE
outputs/IAG933/test6/raw/output_4832_IAG933_linker_design_.xyz
 48 52 0 0 0
SMALL
GASTEIGER

@<TRIPOS>ATOM
      1 C         -24.8550   -1.0120   30.1430 C.3     1  UNL1        0.0612
      2 C         -24.9730   -2.5050   29.7880 C.2     1  UNL1       -0.0170
      3 C         -23.9060   -3.1730   29.1460 C.2     1  UNL1       -0.0039
      4 C         -23.9890   -4.5490   28.8530 C.2     1  UNL1       -0.0003
      5 C         -25.1370   -5.2800   29.2050 C.2     1  UNL1       -0.0000
      6 C         -26.2320   -4.6110   29.7840 C.2     1  UNL1       -0.0003
      7 C         -26.1550   -3.2320   30.0650 C.2     1  UNL1       -0.0039
      8 C         -25.3870   -0.6790   31.5710 C.3     1  UNL1        0.0809
      9 C         -25.1890    0.7730   32.0280 C.3     1  UNL1        0.0195
     10 C         -25.3360    0.6840   33.5440 C.3     1  UNL1        0.0203
     11 C         -24.8290   -0.7150   33.9050 C.3     1  UNL1        0.0887
     12 N         -24.7580   -1.4810   32.6460 N.3     1  UNL1       -0.2188
     13 C         -25.6880    1.6140   26.4610 C.2     1  UNL1        0.0395
     14 C         -26.2500    2.9200   26.3950 C.2     1  UNL1        0.0766
     15 C         -25.6420    4.0930   27.1230 C.2     1  UNL1        0.2664
     16 N         -25.6140    5.2520   26.4490 N.am    1  UNL1       -0.1997
     17 C         -25.0260    6.4790   26.9630 C.3     1  UNL1        0.1388
     18 O         -25.1430    3.9660   28.2430 O.2     1  UNL1       -0.2683
     19 C         -27.4380    3.0910   25.6450 C.2     1  UNL1        0.1067
     20 N         -28.0750    2.0890   25.0030 N.2     1  UNL1       -0.2081
     21 C         -27.5430    0.8490   25.0790 C.2     1  UNL1        0.2533
     22 O         -28.1930   -0.2080   24.4770 O.2     1  UNL1       -0.4558
     23 C         -29.4600    0.0050   23.8660 C.3     1  UNL1        0.2426
     24 C         -30.0650   -1.3770   23.5730 C.3     1  UNL1        0.2292
     25 O         -30.7290   -1.8780   24.7210 O.3     1  UNL1       -0.2162
     26 C         -26.3540    0.5760   25.7770 C.2     1  UNL1        0.1931
     27 F         -25.8600   -0.6810   25.7950 F       1  UNL1       -0.1992
     28 C         -29.9352   -3.9177   30.6621 C.3     1  UNL1        0.0014
     29 CL        -22.9215    2.0483   25.3793 Cl      1  UNL1       -0.0799
     30 C         -22.8494    0.2028   28.9264 C.2     1  UNL1        0.0272
     31 C         -31.0144    1.9626   27.9507 C.3     1  UNL1        0.0039
     32 C         -30.7346   -0.5149   27.6191 C.3     1  UNL1        0.0729
     33 C         -24.2100   -0.0723   29.1954 C.2     1  UNL1       -0.0071
     34 C         -29.6671   -1.5804   29.7634 C.3     1  UNL1        0.0729
     35 C         -30.0083    1.9691   29.0981 C.3     1  UNL1        0.0295
     36 F         -21.1549    1.5054   27.6729 F       1  UNL1       -0.2033
     37 C         -24.6512    1.2041   27.2947 C.2     1  UNL1        0.0226
     38 C         -22.4496    1.0088   27.8393 C.2     1  UNL1        0.1503
     39 C         -25.0879    0.6498   28.4656 C.2     1  UNL1        0.0391
     40 C         -26.4826    0.8120   29.0024 C.1     1  UNL1       -0.0633
     41 C         -23.3642    1.4047   26.8911 C.2     1  UNL1        0.0857
     42 C         -31.7261    0.6199   27.6338 C.3     1  UNL1        0.0174
     43 C         -29.2527    0.6840   29.0957 C.3     1  UNL1        0.1228
     44 C         -30.6834   -2.7159   29.9615 C.3     1  UNL1        0.0174
     45 N         -30.0911   -0.4176   28.9813 N.3     1  UNL1       -0.2637
     46 C         -27.7081    0.8652   29.2300 C.1     1  UNL1       -0.0709
     47 C         -31.0079   -4.6818   31.3817 C.3     1  UNL1        0.0000
     48 C         -29.0939   -3.3821   31.8929 C.3     1  UNL1        0.0000
@<TRIPOS>BOND
     1     1    33    1
     2     2     7    1
     3     2     1    1
     4     3     2    2
     5     4     3    1
     6     4     5    2
     7     5     6    1
     8     6     7    2
     9     8     1    1
    10     8     9    1
    11     8    12    1
    12     9    10    1
    13    10    11    1
    14    12    11    1
    15    13    37    1
    16    14    13    1
    17    14    15    1
    18    15    18    2
    19    16    17    1
    20    16    15    1
    21    19    14    2
    22    20    21    2
    23    20    19    1
    24    21    26    1
    25    22    21    1
    26    23    22    1
    27    24    23    1
    28    24    25    1
    29    26    27    1
    30    26    13    2
    31    28    47    1
    32    28    48    1
    33    29    41    1
    34    30    33    1
    35    31    35    1
    36    32    42    1
    37    32    45    1
    38    34    44    1
    39    36    38    1
    40    37    39    1
    41    38    30    2
    42    39    40    1
    43    39    33    2
    44    40    46    3
    45    41    37    2
    46    41    38    1
    47    42    31    1
    48    43    35    1
    49    43    46    1
    50    44    28    1
    51    45    43    1
    52    45    34    1
