@<TRIPOS>MOLECULE
No_4835-gen_results/8p0m/2024-11-27-11-27-31/
 8 7 0 0 0
SMALL
GASTEIGER

@<TRIPOS>ATOM
      1 F         -28.0727   -1.2542   28.5316 F       1  UNL1       -0.2018
      2 C         -27.3591   -0.3792   28.7224 C.2     1  UNL1        0.1674
      3 C         -26.8100    0.1885   27.6513 C.2     1  UNL1        0.0316
      4 C         -27.4896    0.3508   26.4426 C.2     1  UNL1       -0.0019
      5 C         -26.8425    0.5635   25.2793 C.2     1  UNL1       -0.0218
      6 C         -27.3862    0.5539   24.0461 C.3     1  UNL1        0.0310
      7 C         -25.3631    0.5614   25.4069 C.2     1  UNL1       -0.0043
      8 C         -24.6321    0.4483   26.5060 C.2     1  UNL1       -0.0003
@<TRIPOS>BOND
     1     1     2    1
     2     2     3    2
     3     3     4    1
     4     4     5    2
     5     5     6    1
     6     5     7    1
     7     7     8    2
