@<TRIPOS>MOLECULE
No_4838-gen_results/8p0m/2024-11-27-11-27-31/
 22 24 0 0 0
SMALL
GASTEIGER

@<TRIPOS>ATOM
      1 C         -28.0162   -0.8135   28.8779 C.ar    1  UNL1        0.0372
      2 C         -28.4690   -0.7850   29.8287 C.ar    1  UNL1        0.0031
      3 C         -26.5455   -0.8762   28.8500 C.ar    1  UNL1        0.1415
      4 C         -25.8041   -1.0324   30.0571 C.ar    1  UNL1        0.0155
      5 C         -26.5373   -1.0386   31.2171 C.ar    1  UNL1       -0.0010
      6 C         -27.8843   -0.9532   31.1862 C.ar    1  UNL1       -0.0001
      7 C         -24.3655   -1.1134   30.0483 C.3     1  UNL1        0.0406
      8 C         -23.6925    0.1188   29.9185 C.ar    1  UNL1       -0.0189
      9 C         -22.3936    0.1820   29.3480 C.ar    1  UNL1       -0.0040
     10 C         -21.7683    1.3866   29.0594 C.ar    1  UNL1       -0.0003
     11 C         -24.2178    1.3685   30.4361 C.ar    1  UNL1       -0.0040
     12 C         -23.6611    2.6029   30.0611 C.ar    1  UNL1       -0.0003
     13 C         -22.4070    2.5999   29.4056 C.ar    1  UNL1       -0.0000
     14 O         -25.8068   -0.8245   27.7153 O.3     1  UNL1       -0.4538
     15 C         -25.6943    0.4101   27.0038 C.ar    1  UNL1        0.1453
     16 C         -26.2799    1.3712   27.1844 C.ar    1  UNL1        0.0375
     17 C         -26.0730    2.6028   26.4906 C.ar    1  UNL1        0.0031
     18 C         -24.9885    2.6121   25.6494 C.ar    1  UNL1        0.0002
     19 C         -24.1807    1.5333   25.4722 C.ar    1  UNL1        0.0031
     20 C         -24.5109    0.3693   26.1584 C.ar    1  UNL1        0.0375
     21 C         -23.8790   -1.8195   31.3200 C.3     1  UNL1        0.0089
     22 C         -23.9327   -2.1340   28.9246 C.3     1  UNL1        0.0089
@<TRIPOS>BOND
     1     4     7    1
     2     7     8    1
     3     3    14    1
     4    14    15    1
     5     7    21    1
     6     7    22    1
     7    15    16   ar
     8    16    17   ar
     9    17    18   ar
    10    18    19   ar
    11    19    20   ar
    12    20    15   ar
    13     1     2   ar
    14     2     6   ar
    15     6     5   ar
    16     5     4   ar
    17     4     3   ar
    18     3     1   ar
    19     8     9   ar
    20     9    10   ar
    21    10    13   ar
    22    13    12   ar
    23    12    11   ar
    24    11     8   ar
