@<TRIPOS>MOLECULE
outputs/IAG933/test6/raw/output_484_IAG933_linker_design_.xyz
 44 49 0 0 0
SMALL
GASTEIGER

@<TRIPOS>ATOM
      1 C         -24.8550   -1.0120   30.1430 C.3     1  UNL1        0.0972
      2 C         -24.9730   -2.5050   29.7880 C.2     1  UNL1       -0.0064
      3 C         -23.9060   -3.1730   29.1460 C.2     1  UNL1       -0.0029
      4 C         -23.9890   -4.5490   28.8530 C.2     1  UNL1       -0.0003
      5 C         -25.1370   -5.2800   29.2050 C.2     1  UNL1       -0.0000
      6 C         -26.2320   -4.6110   29.7840 C.2     1  UNL1       -0.0003
      7 C         -26.1550   -3.2320   30.0650 C.2     1  UNL1       -0.0029
      8 C         -25.3870   -0.6790   31.5710 C.3     1  UNL1        0.0916
      9 C         -25.1890    0.7730   32.0280 C.3     1  UNL1        0.0206
     10 C         -25.3360    0.6840   33.5440 C.3     1  UNL1        0.0203
     11 C         -24.8290   -0.7150   33.9050 C.3     1  UNL1        0.0888
     12 N         -24.7580   -1.4810   32.6460 N.3     1  UNL1       -0.2178
     13 C         -25.6880    1.6140   26.4610 C.3     1  UNL1        0.1297
     14 C         -26.2500    2.9200   26.3950 C.2     1  UNL1        0.0696
     15 C         -25.6420    4.0930   27.1230 C.2     1  UNL1        0.2637
     16 N         -25.6140    5.2520   26.4490 N.am    1  UNL1       -0.2000
     17 C         -25.0260    6.4790   26.9630 C.3     1  UNL1        0.1388
     18 O         -25.1430    3.9660   28.2430 O.2     1  UNL1       -0.2686
     19 C         -27.4380    3.0910   25.6450 C.2     1  UNL1        0.1035
     20 N         -28.0750    2.0890   25.0030 N.2     1  UNL1       -0.2118
     21 C         -27.5430    0.8490   25.0790 C.2     1  UNL1        0.2355
     22 O         -28.1930   -0.2080   24.4770 O.2     1  UNL1       -0.4585
     23 C         -29.4600    0.0050   23.8660 C.3     1  UNL1        0.2423
     24 C         -30.0650   -1.3770   23.5730 C.3     1  UNL1        0.2292
     25 O         -30.7290   -1.8780   24.7210 O.3     1  UNL1       -0.2162
     26 C         -26.3540    0.5760   25.7770 C.3     1  UNL1        0.2546
     27 F         -25.8600   -0.6810   25.7950 F       1  UNL1       -0.2254
     28 C         -25.7393    4.3249   31.4599 C.3     1  UNL1        0.0321
     29 C         -23.5783    2.9558   31.3875 C.3     1  UNL1        0.0324
     30 O         -23.9918    4.6441   33.0395 O.3     1  UNL1       -0.3562
     31 C         -22.7042   -0.0721   29.2147 C.3     1  UNL1        0.0792
     32 C         -23.6804    2.3563   29.9189 C.3     1  UNL1        0.0353
     33 C         -26.1851    5.1731   32.6395 C.3     1  UNL1        0.0346
     34 O         -23.2133    1.4003   24.5561 O.2     1  UNL1       -0.2486
     35 C         -23.4609    1.1971   27.0549 C.3     1  UNL1        0.1637
     36 C         -25.2077    4.5485   33.6750 C.3     1  UNL1        0.1421
     37 C         -24.7098    1.3282   29.1967 C.3     1  UNL1        0.1194
     38 C         -22.7728    1.6642   25.7600 C.2     1  UNL1        0.3318
     39 N         -24.8080    1.2356   27.3932 N.3     1  UNL1       -0.2477
     40 C         -22.4579    0.7106   27.9163 C.3     1  UNL1        0.0854
     41 N         -24.1673   -0.0565   29.5428 N.3     1  UNL1       -0.2574
     42 C         -21.2959    1.3207   27.5093 C.3     1  UNL1        0.2117
     43 C         -24.2093    4.3489   31.6415 C.3     1  UNL1        0.1154
     44 O         -21.4842    1.8791   26.1696 O.3     1  UNL1       -0.4475
@<TRIPOS>BOND
     1     1     2    1
     2     2     7    1
     3     3     2    2
     4     4     3    1
     5     4     5    2
     6     5     6    1
     7     6     7    2
     8     8     1    1
     9     8     9    1
    10     8    12    1
    11     9    10    1
    12    10    11    1
    13    12    11    1
    14    13    14    1
    15    14    15    1
    16    15    18    2
    17    16    17    1
    18    16    15    1
    19    19    14    2
    20    20    21    2
    21    20    19    1
    22    21    26    1
    23    22    21    1
    24    23    22    1
    25    24    23    1
    26    24    25    1
    27    26    27    1
    28    26    13    1
    29    28    43    1
    30    28    33    1
    31    30    36    1
    32    31    41    1
    33    32    29    1
    34    33    36    1
    35    34    38    2
    36    35    38    1
    37    35    39    1
    38    35    40    1
    39    37    41    1
    40    37    32    1
    41    38    44    1
    42    39    13    1
    43    39    37    1
    44    40    42    1
    45    40    31    1
    46    41     1    1
    47    43    29    1
    48    43    30    1
    49    44    42    1
