@<TRIPOS>MOLECULE
No_4840-gen_results/8p0m/2024-11-27-11-27-31/
 16 18 0 0 0
SMALL
GASTEIGER

@<TRIPOS>ATOM
      1 C         -28.0162   -0.8135   28.8779 C.ar    1  UNL1       -0.0000
      2 C         -28.4690   -0.7850   29.8287 C.ar    1  UNL1       -0.0000
      3 C         -27.1356    0.2359   28.5352 C.ar    1  UNL1       -0.0003
      4 C         -26.3351    0.2900   27.2835 C.ar    1  UNL1        0.0001
      5 C         -28.3692    0.1957   30.9236 C.ar    1  UNL1       -0.0000
      6 C         -27.5158    1.2655   30.6540 C.ar    1  UNL1       -0.0003
      7 C         -26.8411    1.2942   29.4761 C.ar    1  UNL1       -0.0039
      8 C         -25.3615    0.7752   26.9671 C.ar    1  UNL1        0.0027
      9 C         -24.8304    1.7671   28.0166 C.ar    1  UNL1        0.0152
     10 C         -25.5668    2.0017   29.2019 C.ar    1  UNL1       -0.0207
     11 C         -23.6197    2.6089   27.6649 C.ar    1  UNL1        0.0985
     12 N         -22.9255    2.2853   26.5802 N.ar    1  UNL1       -0.2423
     13 C         -23.4387    1.4588   25.6066 C.ar    1  UNL1        0.0989
     14 C         -24.5794    0.7168   25.8243 C.ar    1  UNL1        0.0207
     15 C         -24.6942    2.1651   30.3253 C.3     1  UNL1        0.0264
     16 C         -24.6338    1.0119   31.2451 C.3     1  UNL1        0.0050
@<TRIPOS>BOND
     1    10    15    1
     2    15    16    1
     3     9    11   ar
     4    11    12   ar
     5    12    13   ar
     6    13    14   ar
     7    14     8   ar
     8     1     2   ar
     9     2     5   ar
    10     5     6   ar
    11     6     7   ar
    12     3     1   ar
    13     3     4   ar
    14     4     8   ar
    15     8     9   ar
    16     9    10   ar
    17    10     7   ar
    18     7     3   ar
