@<TRIPOS>MOLECULE
No_4845-gen_results/8p0m/2024-11-27-11-27-31/
 23 24 0 0 0
SMALL
GASTEIGER

@<TRIPOS>ATOM
      1 C         -28.0162   -0.8135   28.8779 C.ar    1  UNL1        0.0089
      2 C         -28.4690   -0.7850   29.8287 C.ar    1  UNL1       -0.0016
      3 C         -28.1960    0.3478   28.0550 C.3     1  UNL1        0.1675
      4 C         -27.4421    0.5100   26.7946 C.3     1  UNL1        0.0609
      5 C         -27.8427    1.3330   25.8056 C.2     1  UNL1       -0.0408
      6 C         -28.2558   -1.9271   30.8901 C.ar    1  UNL1       -0.0005
      7 C         -27.4492   -2.9641   30.4317 C.ar    1  UNL1       -0.0039
      8 C         -26.6412   -2.8044   29.3509 C.ar    1  UNL1       -0.0169
      9 C         -26.7826   -1.6363   28.6124 C.ar    1  UNL1       -0.0055
     10 O         -29.5890    0.4084   27.6120 O.3     1  UNL1       -0.2163
     11 C         -27.0202    2.2828   25.3348 C.2     1  UNL1       -0.0090
     12 C         -25.5678   -3.7671   29.1043 C.3     1  UNL1        0.0672
     13 C         -24.2801   -3.7938   29.3897 C.2     1  UNL1       -0.0029
     14 C         -26.1609   -5.2016   29.0595 C.3     1  UNL1        0.1209
     15 C         -28.3929    0.4893   24.5759 C.3     1  UNL1        0.0265
     16 N         -25.2372   -5.9703   29.3449 N.pl3   1  UNL1       -0.2359
     17 C         -23.9642   -5.1820   29.1898 C.2     1  UNL1        0.0759
     18 C         -27.8632    1.7408   28.7742 C.2     1  UNL1        0.0078
     19 C         -26.7059    1.9735   29.1978 C.2     1  UNL1       -0.0018
     20 C         -26.4840    3.1791   29.8767 C.2     1  UNL1       -0.0002
     21 C         -25.2253    3.3999   30.4827 C.2     1  UNL1       -0.0000
     22 C         -24.1814    2.4904   30.3020 C.2     1  UNL1       -0.0000
     23 C         -24.3810    1.3259   29.5716 C.2     1  UNL1       -0.0000
@<TRIPOS>BOND
     1     1     3    1
     2     3     4    1
     3     4     5    1
     4     3    10    1
     5     5    11    2
     6     8    12    1
     7    12    13    1
     8    12    14    1
     9     5    15    1
    10    14    16    1
    11    13    17    2
    12    16    17    1
    13     3    18    1
    14    18    19    2
    15    19    20    1
    16    20    21    2
    17    21    22    1
    18    22    23    2
    19     1     2   ar
    20     2     6   ar
    21     6     7   ar
    22     7     8   ar
    23     8     9   ar
    24     9     1   ar
