@<TRIPOS>MOLECULE
outputs/IAG933/test6/raw/output_4846_IAG933_linker_design_.xyz
 43 48 0 0 0
SMALL
GASTEIGER

@<TRIPOS>ATOM
      1 C         -24.8550   -1.0120   30.1430 C.3     1  UNL1        0.0414
      2 C         -24.9730   -2.5050   29.7880 C.2     1  UNL1       -0.0210
      3 C         -23.9060   -3.1730   29.1460 C.2     1  UNL1       -0.0042
      4 C         -23.9890   -4.5490   28.8530 C.2     1  UNL1       -0.0003
      5 C         -25.1370   -5.2800   29.2050 C.2     1  UNL1       -0.0000
      6 C         -26.2320   -4.6110   29.7840 C.2     1  UNL1       -0.0003
      7 C         -26.1550   -3.2320   30.0650 C.2     1  UNL1       -0.0042
      8 C         -25.3870   -0.6790   31.5710 C.3     1  UNL1        0.0772
      9 C         -25.1890    0.7730   32.0280 C.3     1  UNL1        0.0232
     10 C         -25.3360    0.6840   33.5440 C.3     1  UNL1        0.0206
     11 C         -24.8290   -0.7150   33.9050 C.3     1  UNL1        0.0887
     12 N         -24.7580   -1.4810   32.6460 N.3     1  UNL1       -0.2191
     13 C         -25.6880    1.6140   26.4610 C.2     1  UNL1        0.0930
     14 C         -26.2500    2.9200   26.3950 C.2     1  UNL1        0.0903
     15 C         -25.6420    4.0930   27.1230 C.2     1  UNL1        0.2676
     16 N         -25.6140    5.2520   26.4490 N.am    1  UNL1       -0.1997
     17 C         -25.0260    6.4790   26.9630 C.3     1  UNL1        0.1388
     18 O         -25.1430    3.9660   28.2430 O.2     1  UNL1       -0.2683
     19 C         -27.4380    3.0910   25.6450 C.2     1  UNL1        0.1080
     20 N         -28.0750    2.0890   25.0030 N.2     1  UNL1       -0.2080
     21 C         -27.5430    0.8490   25.0790 C.2     1  UNL1        0.2546
     22 O         -28.1930   -0.2080   24.4770 O.2     1  UNL1       -0.4558
     23 C         -29.4600    0.0050   23.8660 C.3     1  UNL1        0.2426
     24 C         -30.0650   -1.3770   23.5730 C.3     1  UNL1        0.2292
     25 O         -30.7290   -1.8780   24.7210 O.3     1  UNL1       -0.2162
     26 C         -26.3540    0.5760   25.7770 C.2     1  UNL1        0.2066
     27 F         -25.8600   -0.6810   25.7950 F       1  UNL1       -0.1979
     28 C         -24.6877    5.5644   32.1723 C.2     1  UNL1       -0.0003
     29 C         -25.7651   -0.5519   28.9918 C.3     1  UNL1        0.0429
     30 C         -24.7383    0.2854   28.2784 C.3     1  UNL1        0.1408
     31 C         -23.1660    1.3449   27.0373 C.2     1  UNL1        0.2317
     32 C         -24.7288    4.3977   31.4136 C.2     1  UNL1       -0.0042
     33 C         -24.1787    1.7946   30.2197 C.3     1  UNL1        0.0779
     34 C         -25.1453    3.1906   31.9599 C.2     1  UNL1       -0.0211
     35 C         -22.2582    0.2328   27.8222 C.3     1  UNL1        0.1030
     36 C         -22.4686    0.3594   29.0076 C.3     1  UNL1        0.0831
     37 C         -25.6761    4.3364   33.9836 C.2     1  UNL1       -0.0003
     38 C         -25.1524    5.5047   33.4777 C.2     1  UNL1       -0.0000
     39 O         -22.5244    2.1187   26.3601 O.2     1  UNL1       -0.2745
     40 C         -24.9489    2.0149   31.4114 C.3     1  UNL1        0.0397
     41 N         -24.5151    1.1936   27.2257 N.am    1  UNL1       -0.2440
     42 C         -25.6783    3.1908   33.2312 C.2     1  UNL1       -0.0042
     43 N         -23.9924    0.8172   29.2612 N.3     1  UNL1       -0.2572
@<TRIPOS>BOND
     1     1     2    1
     2     1     8    1
     3     2     7    1
     4     3     2    2
     5     4     3    1
     6     4     5    2
     7     5     6    1
     8     6     7    2
     9     8     9    1
    10     8    12    1
    11     9    10    1
    12    10    11    1
    13    12    11    1
    14    13    41    1
    15    14    13    1
    16    14    15    1
    17    15    18    2
    18    16    17    1
    19    16    15    1
    20    19    14    2
    21    20    21    2
    22    20    19    1
    23    21    26    1
    24    22    21    1
    25    23    22    1
    26    24    23    1
    27    24    25    1
    28    26    27    1
    29    26    13    2
    30    28    38    1
    31    29     1    1
    32    30    29    1
    33    30    43    1
    34    31    41   am
    35    31    35    1
    36    32    34    1
    37    32    28    2
    38    33    40    1
    39    34    42    2
    40    35    36    1
    41    38    37    2
    42    39    31    2
    43    40    34    1
    44    40     9    1
    45    41    30    1
    46    42    37    1
    47    43    36    1
    48    43    33    1
