@<TRIPOS>MOLECULE
No_4847-gen_results/8p0m/2024-11-27-11-27-31/
 12 12 0 0 0
SMALL
GASTEIGER

@<TRIPOS>ATOM
      1 C         -28.0162   -0.8135   28.8779 C.ar    1  UNL1        0.0207
      2 C         -28.4690   -0.7850   29.8287 C.ar    1  UNL1        0.0989
      3 C         -27.0871    0.2903   28.6377 C.ar    1  UNL1        0.0031
      4 C         -26.9103    0.8486   27.4199 C.2     1  UNL1        0.0001
      5 N         -27.8904   -0.5560   31.0200 N.ar    1  UNL1       -0.2423
      6 C         -27.4584    0.9384   26.5464 C.2     1  UNL1        0.0000
      7 C         -27.0364    1.4212   25.1919 C.2     1  UNL1        0.0000
      8 C         -27.8235    1.4675   24.0572 C.2     1  UNL1        0.0000
      9 C         -26.8992    0.3934   31.0815 C.ar    1  UNL1        0.0989
     10 C         -26.4802    0.8565   29.8969 C.ar    1  UNL1        0.0207
     11 C         -25.4081    1.1451   27.1072 C.2     1  UNL1        0.0000
     12 C         -24.8542    1.6392   25.9765 C.2     1  UNL1        0.0000
@<TRIPOS>BOND
     1     3     4    1
     2     4     6    2
     3     6     7    1
     4     7     8    2
     5     4    11    1
     6    11    12    2
     7     1     2   ar
     8     2     5   ar
     9     5     9   ar
    10     9    10   ar
    11    10     3   ar
    12     3     1   ar
