@<TRIPOS>MOLECULE
outputs/IAG933/test6/raw/output_4848_IAG933_linker_design_.xyz
 42 46 0 0 0
SMALL
GASTEIGER

@<TRIPOS>ATOM
      1 C         -24.8550   -1.0120   30.1430 C.3     1  UNL1        0.0391
      2 C         -24.9730   -2.5050   29.7880 C.2     1  UNL1       -0.0211
      3 C         -23.9060   -3.1730   29.1460 C.2     1  UNL1       -0.0042
      4 C         -23.9890   -4.5490   28.8530 C.2     1  UNL1       -0.0003
      5 C         -25.1370   -5.2800   29.2050 C.2     1  UNL1       -0.0000
      6 C         -26.2320   -4.6110   29.7840 C.2     1  UNL1       -0.0003
      7 C         -26.1550   -3.2320   30.0650 C.2     1  UNL1       -0.0042
      8 C         -25.3870   -0.6790   31.5710 C.3     1  UNL1        0.0768
      9 C         -25.1890    0.7730   32.0280 C.3     1  UNL1        0.0192
     10 C         -25.3360    0.6840   33.5440 C.3     1  UNL1        0.0202
     11 C         -24.8290   -0.7150   33.9050 C.3     1  UNL1        0.0887
     12 N         -24.7580   -1.4810   32.6460 N.3     1  UNL1       -0.2191
     13 C         -25.6880    1.6140   26.4610 C.2     1  UNL1        0.0341
     14 C         -26.2500    2.9200   26.3950 C.2     1  UNL1        0.0762
     15 C         -25.6420    4.0930   27.1230 C.2     1  UNL1        0.2664
     16 N         -25.6140    5.2520   26.4490 N.am    1  UNL1       -0.1997
     17 C         -25.0260    6.4790   26.9630 C.3     1  UNL1        0.1388
     18 O         -25.1430    3.9660   28.2430 O.2     1  UNL1       -0.2683
     19 C         -27.4380    3.0910   25.6450 C.2     1  UNL1        0.1067
     20 N         -28.0750    2.0890   25.0030 N.2     1  UNL1       -0.2081
     21 C         -27.5430    0.8490   25.0790 C.2     1  UNL1        0.2533
     22 O         -28.1930   -0.2080   24.4770 O.2     1  UNL1       -0.4558
     23 C         -29.4600    0.0050   23.8660 C.3     1  UNL1        0.2426
     24 C         -30.0650   -1.3770   23.5730 C.3     1  UNL1        0.2292
     25 O         -30.7290   -1.8780   24.7210 O.3     1  UNL1       -0.2162
     26 C         -26.3540    0.5760   25.7770 C.2     1  UNL1        0.1927
     27 F         -25.8600   -0.6810   25.7950 F       1  UNL1       -0.1993
     28 C         -23.3116    1.9369   26.4133 C.2     1  UNL1       -0.0045
     29 C         -24.3359    0.7939   28.3330 C.3     1  UNL1        0.0320
     30 C         -22.0365    1.7995   26.8994 C.2     1  UNL1       -0.0049
     31 C         -27.3413    3.8278   30.8286 C.3     1  UNL1        0.2478
     32 C         -25.5503    1.3067   29.4135 C.3     1  UNL1        0.0829
     33 C         -24.3961    1.3968   27.1167 C.2     1  UNL1       -0.0195
     34 C         -27.0249    1.7418   29.5441 C.2     1  UNL1        0.2418
     35 C         -25.3701   -0.1028   28.9556 C.3     1  UNL1        0.0189
     36 C         -28.8425    3.9950   30.9876 C.2     1  UNL1        0.4753
     37 O         -27.8525    0.8250   29.6395 O.2     1  UNL1       -0.2733
     38 N         -29.6569    3.9404   29.9641 N.pl3   1  UNL1        0.2014
     39 C         -21.8641    1.1398   28.0879 C.2     1  UNL1       -0.0258
     40 C         -22.9813    0.6715   28.7941 C.3     1  UNL1        0.0305
     41 N         -27.1600    3.0924   29.5711 N.am    1  UNL1       -0.1916
     42 N         -29.3476    4.1894   32.1736 N.pl3   1  UNL1        0.2014
@<TRIPOS>BOND
     1     1     2    1
     2     2     7    1
     3     3     2    2
     4     4     3    1
     5     4     5    2
     6     5     6    1
     7     6     7    2
     8     8     1    1
     9     8     9    1
    10     8    12    1
    11     9    10    1
    12    10    11    1
    13    12    11    1
    14    13    33    1
    15    14    13    1
    16    14    15    1
    17    15    18    2
    18    16    17    1
    19    16    15    1
    20    19    14    2
    21    20    21    2
    22    20    19    1
    23    21    26    1
    24    22    21    1
    25    23    22    1
    26    24    23    1
    27    24    25    1
    28    26    27    1
    29    26    13    2
    30    28    30    1
    31    28    33    2
    32    29    40    1
    33    29    35    1
    34    29    32    1
    35    30    39    2
    36    31    36    1
    37    32    34    1
    38    33    29    1
    39    34    41    1
    40    34    37    2
    41    35    32    1
    42    35     1    1
    43    36    42    1
    44    38    36    2
    45    39    40    1
    46    41    31    1
