@<TRIPOS>MOLECULE
No_4849-gen_results/8p0m/2024-11-27-11-27-31/
 12 12 0 0 0
SMALL
GASTEIGER

@<TRIPOS>ATOM
      1 C         -28.0162   -0.8135   28.8779 C.2     1  UNL1       -0.0043
      2 C         -27.0636   -0.1189   28.6079 C.2     1  UNL1       -0.0222
      3 C         -26.9716    0.7139   27.5060 C.ar    1  UNL1       -0.0040
      4 C         -25.8205    1.4909   27.1160 C.ar    1  UNL1       -0.0003
      5 C         -25.7505    2.3193   26.0233 C.ar    1  UNL1       -0.0000
      6 C         -26.8263    2.2181   25.1373 C.ar    1  UNL1       -0.0000
      7 C         -27.9219    1.4707   25.3693 C.ar    1  UNL1       -0.0000
      8 C         -27.9201    0.7049   26.5395 C.ar    1  UNL1       -0.0003
      9 C         -28.0691   -1.5855   30.1465 C.2     1  UNL1       -0.0003
     10 C         -29.1643   -2.4346   30.4663 C.2     1  UNL1       -0.0000
     11 C         -25.7307   -0.3214   29.4008 C.3     1  UNL1        0.0264
     12 C         -25.7394   -1.1276   30.5484 C.3     1  UNL1        0.0050
@<TRIPOS>BOND
     1     1     2    2
     2     2     3    1
     3     1     9    1
     4     9    10    2
     5     2    11    1
     6    11    12    1
     7     3     4   ar
     8     4     5   ar
     9     5     6   ar
    10     6     7   ar
    11     7     8   ar
    12     8     3   ar
