@<TRIPOS>MOLECULE
outputs/IAG933/test6/raw/output_4850_IAG933_linker_design_.xyz
 39 42 0 0 0
SMALL
GASTEIGER

@<TRIPOS>ATOM
      1 C         -24.8550   -1.0120   30.1430 C.3     1  UNL1        0.2095
      2 C         -24.9730   -2.5050   29.7880 C.2     1  UNL1        0.0219
      3 C         -23.9060   -3.1730   29.1460 C.2     1  UNL1       -0.0004
      4 C         -23.9890   -4.5490   28.8530 C.2     1  UNL1       -0.0002
      5 C         -25.1370   -5.2800   29.2050 C.2     1  UNL1       -0.0000
      6 C         -26.2320   -4.6110   29.7840 C.2     1  UNL1       -0.0002
      7 C         -26.1550   -3.2320   30.0650 C.2     1  UNL1       -0.0004
      8 C         -25.3870   -0.6790   31.5710 C.3     1  UNL1        0.1203
      9 C         -25.1890    0.7730   32.0280 C.3     1  UNL1        0.0233
     10 C         -25.3360    0.6840   33.5440 C.3     1  UNL1        0.0204
     11 C         -24.8290   -0.7150   33.9050 C.3     1  UNL1        0.0889
     12 N         -24.7580   -1.4810   32.6460 N.3     1  UNL1       -0.2150
     13 C         -25.6880    1.6140   26.4610 C.2     1  UNL1        0.0484
     14 C         -26.2500    2.9200   26.3950 C.2     1  UNL1        0.0769
     15 C         -25.6420    4.0930   27.1230 C.2     1  UNL1        0.2664
     16 N         -25.6140    5.2520   26.4490 N.am    1  UNL1       -0.1997
     17 C         -25.0260    6.4790   26.9630 C.3     1  UNL1        0.1388
     18 O         -25.1430    3.9660   28.2430 O.2     1  UNL1       -0.2683
     19 C         -27.4380    3.0910   25.6450 C.2     1  UNL1        0.1067
     20 N         -28.0750    2.0890   25.0030 N.2     1  UNL1       -0.2081
     21 C         -27.5430    0.8490   25.0790 C.2     1  UNL1        0.2533
     22 O         -28.1930   -0.2080   24.4770 O.2     1  UNL1       -0.4558
     23 C         -29.4600    0.0050   23.8660 C.3     1  UNL1        0.2426
     24 C         -30.0650   -1.3770   23.5730 C.3     1  UNL1        0.2292
     25 O         -30.7290   -1.8780   24.7210 O.3     1  UNL1       -0.2162
     26 C         -26.3540    0.5760   25.7770 C.2     1  UNL1        0.1934
     27 F         -25.8600   -0.6810   25.7950 F       1  UNL1       -0.1992
     28 C         -21.9109    1.9790   26.7330 C.2     1  UNL1        0.0250
     29 O         -27.0924    1.1811   29.1417 O.co2   1  UNL1       -0.1979
     30 C         -24.1870    0.4990   28.2414 C.2     1  UNL1        0.3360
     31 N         -25.2132   -0.0897   29.0401 N.am    1  UNL1       -0.1003
     32 C         -24.3636    1.3198   27.0775 C.2     1  UNL1        0.1238
     33 C         -21.6722    0.4461   28.6241 C.2     1  UNL1        0.2137
     34 C         -21.1704    1.3763   27.7623 C.3     1  UNL1        0.1067
     35 O         -27.3188   -0.8459   28.4011 O.co2   1  UNL1       -0.1979
     36 C         -26.6034    0.1122   28.8607 C.2     1  UNL1        0.5421
     37 O         -23.4019    2.6610   25.2115 O.2     1  UNL1       -0.2866
     38 C         -23.2468    1.9891   26.3572 C.2     1  UNL1        0.1991
     39 N         -22.9694    0.0748   28.7723 N.2     1  UNL1       -0.0401
@<TRIPOS>BOND
     1     1    31    1
     2     2     7    1
     3     2     1    1
     4     3     2    2
     5     4     3    1
     6     4     5    2
     7     5     6    1
     8     6     7    2
     9     8     1    1
    10     8     9    1
    11     8    12    1
    12     9    10    1
    13    10    11    1
    14    12    11    1
    15    13    32    1
    16    14    13    1
    17    14    15    1
    18    15    18    2
    19    16    17    1
    20    16    15    1
    21    19    14    2
    22    20    21    2
    23    20    19    1
    24    21    26    1
    25    22    21    1
    26    23    22    1
    27    24    23    1
    28    24    25    1
    29    26    27    1
    30    26    13    2
    31    28    34    1
    32    30    39    1
    33    30    31    1
    34    32    30    2
    35    33    39    2
    36    34    33    1
    37    35    36   ar
    38    36    31   am
    39    36    29   ar
    40    37    38    1
    41    38    28    2
    42    38    32    1
