@<TRIPOS>MOLECULE
outputs/IAG933/test6/raw/output_4851_IAG933_linker_design_.xyz
 42 45 0 0 0
SMALL
GASTEIGER

@<TRIPOS>ATOM
      1 C         -24.8550   -1.0120   30.1430 C.3     1  UNL1        0.1247
      2 C         -24.9730   -2.5050   29.7880 C.2     1  UNL1       -0.0004
      3 C         -23.9060   -3.1730   29.1460 C.2     1  UNL1       -0.0024
      4 C         -23.9890   -4.5490   28.8530 C.2     1  UNL1       -0.0003
      5 C         -25.1370   -5.2800   29.2050 C.2     1  UNL1       -0.0000
      6 C         -26.2320   -4.6110   29.7840 C.2     1  UNL1       -0.0003
      7 C         -26.1550   -3.2320   30.0650 C.2     1  UNL1       -0.0024
      8 C         -25.3870   -0.6790   31.5710 C.3     1  UNL1        0.0977
      9 C         -25.1890    0.7730   32.0280 C.3     1  UNL1        0.0211
     10 C         -25.3360    0.6840   33.5440 C.3     1  UNL1        0.0203
     11 C         -24.8290   -0.7150   33.9050 C.3     1  UNL1        0.0888
     12 N         -24.7580   -1.4810   32.6460 N.3     1  UNL1       -0.2172
     13 C         -25.6880    1.6140   26.4610 C.3     1  UNL1        0.0937
     14 C         -26.2500    2.9200   26.3950 C.2     1  UNL1        0.0589
     15 C         -25.6420    4.0930   27.1230 C.2     1  UNL1        0.2628
     16 N         -25.6140    5.2520   26.4490 N.am    1  UNL1       -0.2000
     17 C         -25.0260    6.4790   26.9630 C.3     1  UNL1        0.1388
     18 O         -25.1430    3.9660   28.2430 O.2     1  UNL1       -0.2686
     19 C         -27.4380    3.0910   25.6450 C.2     1  UNL1        0.1025
     20 N         -28.0750    2.0890   25.0030 N.2     1  UNL1       -0.2118
     21 C         -27.5430    0.8490   25.0790 C.2     1  UNL1        0.2344
     22 O         -28.1930   -0.2080   24.4770 O.2     1  UNL1       -0.4585
     23 C         -29.4600    0.0050   23.8660 C.3     1  UNL1        0.2423
     24 C         -30.0650   -1.3770   23.5730 C.3     1  UNL1        0.2292
     25 O         -30.7290   -1.8780   24.7210 O.3     1  UNL1       -0.2162
     26 C         -26.3540    0.5760   25.7770 C.3     1  UNL1        0.2440
     27 F         -25.8600   -0.6810   25.7950 F       1  UNL1       -0.2265
     28 C         -22.3314    1.6638   27.0981 C.2     1  UNL1        0.3359
     29 C         -26.8832    0.7175   28.7452 C.3     1  UNL1        0.0460
     30 C         -27.6467   -0.4366   29.2161 C.3     1  UNL1        0.0358
     31 C         -23.3797    0.3924   28.8408 C.ar    1  UNL1        0.1563
     32 C         -29.9240   -1.3606   29.8953 C.3     1  UNL1        0.0321
     33 C         -25.3653    0.6458   28.4679 C.ar    1  UNL1        0.0352
     34 O         -29.7879   -0.0998   27.7460 O.3     1  UNL1       -0.3536
     35 C         -29.1050   -0.6042   28.8984 C.3     1  UNL1        0.1158
     36 N         -24.5819   -0.0022   29.2452 N.ar    1  UNL1       -0.3139
     37 C         -23.4917    1.1726   27.7531 C.ar    1  UNL1        0.0983
     38 N         -22.1582    0.1590   29.5393 N.pl3   1  UNL1       -0.1088
     39 F         -22.3877    2.2268   25.9616 F       1  UNL1       -0.1585
     40 C         -24.8019    1.2075   27.5036 C.ar    1  UNL1        0.0048
     41 O         -21.1447    1.5944   27.4867 O.2     1  UNL1       -0.2540
     42 C         -30.3869    1.0979   28.2765 C.3     1  UNL1        0.1740
@<TRIPOS>BOND
     1     1     2    1
     2     2     7    1
     3     3     2    2
     4     4     3    1
     5     4     5    2
     6     5     6    1
     7     6     7    2
     8     8     1    1
     9     8     9    1
    10     8    12    1
    11     9    10    1
    12    10    11    1
    13    12    11    1
    14    13    40    1
    15    14    13    1
    16    14    15    1
    17    15    18    2
    18    16    17    1
    19    16    15    1
    20    19    14    2
    21    20    21    2
    22    20    19    1
    23    21    26    1
    24    22    21    1
    25    23    22    1
    26    24    23    1
    27    24    25    1
    28    26    27    1
    29    26    13    1
    30    28    41    2
    31    28    37    1
    32    29    30    1
    33    31    36   ar
    34    31    38    1
    35    33    29    1
    36    33    36   ar
    37    34    42    1
    38    34    35    1
    39    35    30    1
    40    35    32    1
    41    36     1    1
    42    37    31   ar
    43    39    28    1
    44    40    37   ar
    45    40    33   ar
