@<TRIPOS>MOLECULE
No_4852-gen_results/8p0m/2024-11-27-11-27-31/
 24 26 0 0 0
SMALL
GASTEIGER

@<TRIPOS>ATOM
      1 C         -28.0162   -0.8135   28.8779 C.ar    1  UNL1        0.0842
      2 C         -28.4690   -0.7850   29.8287 C.3     1  UNL1        0.4194
      3 C         -28.1816    0.4277   28.1134 C.ar    1  UNL1        0.0375
      4 C         -27.4498    0.6435   26.8500 C.ar    1  UNL1        0.1736
      5 C         -26.1815    0.0357   26.7145 C.ar    1  UNL1        0.1656
      6 C         -25.7800   -0.9326   27.6938 C.ar    1  UNL1        0.0555
      7 C         -26.5568   -1.2134   28.7413 C.ar    1  UNL1        0.0632
      8 F         -29.6747   -0.4261   29.9581 F       1  UNL1       -0.1658
      9 F         -27.8440   -0.5173   31.0217 F       1  UNL1       -0.1658
     10 F         -28.5985   -2.3037   30.1247 F       1  UNL1       -0.1658
     11 F         -27.7262    1.5466   25.9863 F       1  UNL1       -0.2010
     12 CL        -25.9686   -2.5369   29.7477 Cl      1  UNL1       -0.0824
     13 O         -25.3602    0.2798   25.7516 O.3     1  UNL1       -0.4686
     14 C         -24.3208    1.1428   25.9805 C.3     1  UNL1        0.2319
     15 C         -23.5651    1.1025   27.1074 C.ar    1  UNL1        0.0198
     16 C         -22.4771    1.8589   27.3471 C.ar    1  UNL1       -0.0009
     17 C         -21.8513    1.8681   28.6502 C.ar    1  UNL1       -0.0002
     18 C         -22.4514    1.0631   29.6462 C.ar    1  UNL1       -0.0003
     19 C         -23.5958    0.3301   29.4800 C.ar    1  UNL1       -0.0018
     20 C         -24.2255    0.4099   28.2103 C.ar    1  UNL1        0.0084
     21 C         -25.1359   -0.4416   28.0489 C.3     1  UNL1        0.1651
     22 O         -24.2341   -1.3620   28.6730 O.3     1  UNL1       -0.3287
     23 C         -23.8473   -1.6217   29.7386 C.3     1  UNL1        0.2530
     24 N         -23.6682   -0.6654   30.4123 N.3     1  UNL1       -0.0957
@<TRIPOS>BOND
     1     1     2    1
     2     2     8    1
     3     2     9    1
     4     2    10    1
     5     4    11    1
     6     7    12    1
     7     5    13    1
     8    13    14    1
     9     6    21    1
    10    20    21    1
    11    21    22    1
    12    22    23    1
    13    23    24    1
    14    14    15    1
    15    15    16   ar
    16    16    17   ar
    17    17    18   ar
    18    18    19   ar
    19    19    20   ar
    20    20    15   ar
    21     1     3   ar
    22     3     4   ar
    23     4     5   ar
    24     5     6   ar
    25     6     7   ar
    26     7     1   ar
