@<TRIPOS>MOLECULE
outputs/IAG933/test6/raw/output_4853_IAG933_linker_design_.xyz
 43 48 0 0 0
SMALL
GASTEIGER

@<TRIPOS>ATOM
      1 C         -24.8550   -1.0120   30.1430 C.3     1  UNL1        0.0982
      2 C         -24.9730   -2.5050   29.7880 C.2     1  UNL1       -0.0064
      3 C         -23.9060   -3.1730   29.1460 C.2     1  UNL1       -0.0029
      4 C         -23.9890   -4.5490   28.8530 C.2     1  UNL1       -0.0003
      5 C         -25.1370   -5.2800   29.2050 C.2     1  UNL1       -0.0000
      6 C         -26.2320   -4.6110   29.7840 C.2     1  UNL1       -0.0003
      7 C         -26.1550   -3.2320   30.0650 C.2     1  UNL1       -0.0029
      8 C         -25.3870   -0.6790   31.5710 C.3     1  UNL1        0.0916
      9 C         -25.1890    0.7730   32.0280 C.3     1  UNL1        0.0206
     10 C         -25.3360    0.6840   33.5440 C.3     1  UNL1        0.0203
     11 C         -24.8290   -0.7150   33.9050 C.3     1  UNL1        0.0888
     12 N         -24.7580   -1.4810   32.6460 N.3     1  UNL1       -0.2178
     13 C         -25.6880    1.6140   26.4610 C.2     1  UNL1        0.0923
     14 C         -26.2500    2.9200   26.3950 C.2     1  UNL1        0.0902
     15 C         -25.6420    4.0930   27.1230 C.2     1  UNL1        0.2676
     16 N         -25.6140    5.2520   26.4490 N.am    1  UNL1       -0.1997
     17 C         -25.0260    6.4790   26.9630 C.3     1  UNL1        0.1388
     18 O         -25.1430    3.9660   28.2430 O.2     1  UNL1       -0.2683
     19 C         -27.4380    3.0910   25.6450 C.2     1  UNL1        0.1080
     20 N         -28.0750    2.0890   25.0030 N.2     1  UNL1       -0.2080
     21 C         -27.5430    0.8490   25.0790 C.2     1  UNL1        0.2546
     22 O         -28.1930   -0.2080   24.4770 O.2     1  UNL1       -0.4558
     23 C         -29.4600    0.0050   23.8660 C.3     1  UNL1        0.2426
     24 C         -30.0650   -1.3770   23.5730 C.3     1  UNL1        0.2292
     25 O         -30.7290   -1.8780   24.7210 O.3     1  UNL1       -0.2162
     26 C         -26.3540    0.5760   25.7770 C.2     1  UNL1        0.2066
     27 F         -25.8600   -0.6810   25.7950 F       1  UNL1       -0.1979
     28 N         -24.5205    1.5715   27.0754 N.am    1  UNL1       -0.2525
     29 N         -25.9859   -0.1971   29.3491 N.3     1  UNL1       -0.2430
     30 C         -21.0986   -0.6277   29.1813 C.2     1  UNL1        0.0190
     31 C         -22.9283    0.7635   28.5777 C.2     1  UNL1        0.0106
     32 C         -20.3729    0.1530   28.5749 C.2     1  UNL1        0.1748
     33 O         -20.6108    1.2599   28.1231 O.2     1  UNL1       -0.4551
     34 C         -23.4515    2.2054   26.3633 C.2     1  UNL1        0.2373
     35 C         -22.4724   -0.2322   29.4305 C.3     1  UNL1        0.0557
     36 C         -22.4084    2.3153   27.1056 C.3     1  UNL1        0.1492
     37 C         -24.2724    1.0889   28.2938 C.3     1  UNL1        0.1172
     38 C         -21.8990    1.4335   27.9171 C.2     1  UNL1        0.1261
     39 C         -27.5155    0.0596   29.5696 C.3     1  UNL1        0.2066
     40 C         -28.7775   -0.0472   28.7705 C.3     1  UNL1        0.1904
     41 C         -25.3060    1.0786   29.3666 C.3     1  UNL1        0.0990
     42 O         -28.2228   -1.2040   29.4194 O.3     1  UNL1       -0.3342
     43 O         -22.6159    2.8351   25.1989 O.2     1  UNL1       -0.2740
@<TRIPOS>BOND
     1     1    29    1
     2     2     7    1
     3     2     1    1
     4     3     2    2
     5     4     3    1
     6     4     5    2
     7     5     6    1
     8     6     7    2
     9     8     1    1
    10     8     9    1
    11     8    12    1
    12     9    10    1
    13    10    11    1
    14    12    11    1
    15    13    28    1
    16    14    13    1
    17    14    15    1
    18    15    18    2
    19    16    17    1
    20    16    15    1
    21    19    14    2
    22    20    21    2
    23    20    19    1
    24    21    26    1
    25    22    21    1
    26    23    22    1
    27    24    23    1
    28    24    25    1
    29    26    27    1
    30    26    13    2
    31    28    37    1
    32    29    41    1
    33    30    35    1
    34    31    35    1
    35    32    30    2
    36    33    32    1
    37    34    28   am
    38    34    36    1
    39    36    38    1
    40    37    31    1
    41    37    41    1
    42    38    33    1
    43    38    31    2
    44    39    29    1
    45    40    42    1
    46    40    39    1
    47    42    39    1
    48    43    34    2
