@<TRIPOS>MOLECULE
outputs/IAG933/test6/raw/output_4854_IAG933_linker_design_.xyz
 45 49 0 0 0
SMALL
GASTEIGER

@<TRIPOS>ATOM
      1 C         -24.8550   -1.0120   30.1430 C.3     1  UNL1        0.0450
      2 C         -24.9730   -2.5050   29.7880 C.2     1  UNL1       -0.0207
      3 C         -23.9060   -3.1730   29.1460 C.2     1  UNL1       -0.0042
      4 C         -23.9890   -4.5490   28.8530 C.2     1  UNL1       -0.0003
      5 C         -25.1370   -5.2800   29.2050 C.2     1  UNL1       -0.0000
      6 C         -26.2320   -4.6110   29.7840 C.2     1  UNL1       -0.0003
      7 C         -26.1550   -3.2320   30.0650 C.2     1  UNL1       -0.0042
      8 C         -25.3870   -0.6790   31.5710 C.3     1  UNL1        0.0772
      9 C         -25.1890    0.7730   32.0280 C.3     1  UNL1        0.0192
     10 C         -25.3360    0.6840   33.5440 C.3     1  UNL1        0.0202
     11 C         -24.8290   -0.7150   33.9050 C.3     1  UNL1        0.0887
     12 N         -24.7580   -1.4810   32.6460 N.3     1  UNL1       -0.2191
     13 C         -25.6880    1.6140   26.4610 C.2     1  UNL1        0.0379
     14 C         -26.2500    2.9200   26.3950 C.2     1  UNL1        0.0765
     15 C         -25.6420    4.0930   27.1230 C.2     1  UNL1        0.2664
     16 N         -25.6140    5.2520   26.4490 N.am    1  UNL1       -0.1997
     17 C         -25.0260    6.4790   26.9630 C.3     1  UNL1        0.1388
     18 O         -25.1430    3.9660   28.2430 O.2     1  UNL1       -0.2683
     19 C         -27.4380    3.0910   25.6450 C.2     1  UNL1        0.1067
     20 N         -28.0750    2.0890   25.0030 N.2     1  UNL1       -0.2081
     21 C         -27.5430    0.8490   25.0790 C.2     1  UNL1        0.2533
     22 O         -28.1930   -0.2080   24.4770 O.2     1  UNL1       -0.4558
     23 C         -29.4600    0.0050   23.8660 C.3     1  UNL1        0.2426
     24 C         -30.0650   -1.3770   23.5730 C.3     1  UNL1        0.2292
     25 O         -30.7290   -1.8780   24.7210 O.3     1  UNL1       -0.2162
     26 C         -26.3540    0.5760   25.7770 C.2     1  UNL1        0.1930
     27 F         -25.8600   -0.6810   25.7950 F       1  UNL1       -0.1992
     28 C         -29.3107    2.2203   30.9143 C.3     1  UNL1        0.1088
     29 C         -24.1950    0.6836   28.2429 C.2     1  UNL1        0.0194
     30 C         -27.7852    3.6045   32.1339 C.3     1  UNL1        0.3082
     31 O         -22.2901    0.0361   29.8466 O.2     1  UNL1       -0.2869
     32 C         -25.3916    0.0691   29.0463 C.3     1  UNL1        0.0626
     33 C         -26.9925    5.8464   31.8782 C.3     1  UNL1        0.1783
     34 C         -23.3083    1.8656   26.2347 C.2     1  UNL1       -0.0000
     35 C         -21.7621    1.2369   27.9653 C.2     1  UNL1        0.0417
     36 O         -27.6763    0.3963   29.1681 O.3     1  UNL1       -0.2213
     37 C         -22.8032    0.6448   28.7112 C.2     1  UNL1        0.1918
     38 N         -27.9707    2.8165   30.8834 N.3     1  UNL1       -0.2207
     39 C         -26.5408    1.1167   29.5288 C.3     1  UNL1        0.1724
     40 O         -28.6576    3.0184   33.0936 O.3     1  UNL1       -0.3162
     41 C         -24.3834    1.3648   27.0190 C.2     1  UNL1        0.0017
     42 C         -27.0160    2.4446   30.0830 C.3     1  UNL1        0.1098
     43 O         -28.1210    4.9455   31.8619 O.3     1  UNL1       -0.3149
     44 C         -21.9987    1.8692   26.7612 C.2     1  UNL1        0.0033
     45 C         -29.7594    2.4591   32.3519 C.3     1  UNL1        0.1636
@<TRIPOS>BOND
     1     1    32    1
     2     2     7    1
     3     2     1    1
     4     3     2    2
     5     4     3    1
     6     4     5    2
     7     5     6    1
     8     6     7    2
     9     8     1    1
    10     8     9    1
    11     8    12    1
    12     9    10    1
    13    10    11    1
    14    12    11    1
    15    13    41    1
    16    14    13    1
    17    14    15    1
    18    15    18    2
    19    16    17    1
    20    16    15    1
    21    19    14    2
    22    20    21    2
    23    20    19    1
    24    21    26    1
    25    22    21    1
    26    23    22    1
    27    24    23    1
    28    24    25    1
    29    26    27    1
    30    26    13    2
    31    28    45    1
    32    29    37    1
    33    29    32    1
    34    30    43    1
    35    30    40    1
    36    32    39    1
    37    34    44    2
    38    34    41    1
    39    35    37    2
    40    37    31    1
    41    38    28    1
    42    38    30    1
    43    39    36    1
    44    39    42    1
    45    41    29    2
    46    42    38    1
    47    43    33    1
    48    44    35    1
    49    45    40    1
