@<TRIPOS>MOLECULE
No_486-gen_results/8p0m/2024-11-27-11-27-31/
 23 24 0 0 0
SMALL
GASTEIGER

@<TRIPOS>ATOM
      1 C         -28.0162   -0.8135   28.8779 C.ar    1  UNL1        0.0019
      2 C         -27.0636   -0.1189   28.6079 C.ar    1  UNL1       -0.0253
      3 C         -26.8756    1.1325   28.9134 C.ar    1  UNL1       -0.0218
      4 C         -27.9014    1.8066   29.6436 C.ar    1  UNL1       -0.0040
      5 C         -29.0458   -0.2316   29.7181 C.ar    1  UNL1        0.0753
      6 C         -28.9402    1.0517   30.0597 C.ar    1  UNL1        0.0061
      7 C         -25.8732   -0.7125   27.8045 C.3     1  UNL1        0.0305
      8 C         -24.5444   -0.3956   28.3291 C.3     1  UNL1        0.0290
      9 C         -24.2383    0.9594   28.4494 C.2     1  UNL1       -0.0155
     10 C         -24.8733    1.8736   28.4513 C.2     1  UNL1       -0.0273
     11 C         -25.7970    2.1151   28.8587 C.3     1  UNL1        0.0514
     12 C         -22.6778    0.9246   28.1090 C.3     1  UNL1        0.1885
     13 N         -22.1926    1.8047   27.3015 N.3     1  UNL1       -0.1105
     14 CL        -21.6492   -0.0734   29.0279 Cl      1  UNL1       -0.0894
     15 C         -30.2251   -1.1384   30.0607 C.2     1  UNL1        0.3412
     16 O         -30.1070   -2.0559   30.6179 O.2     1  UNL1       -0.2449
     17 O         -31.3807   -0.5535   30.0768 O.3     1  UNL1       -0.4451
     18 C         -32.4934   -1.2745   29.8004 C.3     1  UNL1        0.2136
     19 C         -32.4749   -1.9450   28.6453 C.3     1  UNL1        0.0783
     20 C         -32.1853   -1.2254   27.4399 C.2     1  UNL1        0.0380
     21 C         -32.2270   -1.9441   26.1856 C.2     1  UNL1        0.2747
     22 F         -31.4923   -1.3268   25.2160 F       1  UNL1       -0.1724
     23 F         -31.6550   -3.1693   26.3166 F       1  UNL1       -0.1724
@<TRIPOS>BOND
     1     2     7    1
     2     7     8    1
     3     8     9    1
     4     9    10    2
     5     3    11    1
     6    10    11    1
     7     9    12    1
     8    12    13    1
     9    12    14    1
    10     5    15    1
    11    15    16    2
    12    15    17    1
    13    17    18    1
    14    18    19    1
    15    19    20    1
    16    20    21    2
    17    21    22    1
    18    21    23    1
    19     1     2   ar
    20     2     3   ar
    21     3     4   ar
    22     4     6   ar
    23     6     5   ar
    24     5     1   ar
