@<TRIPOS>MOLECULE
No_4860-gen_results/8p0m/2024-11-27-11-27-31/
 21 23 0 0 0
SMALL
GASTEIGER

@<TRIPOS>ATOM
      1 C         -28.0162   -0.8135   28.8779 C.ar    1  UNL1        0.0046
      2 C         -27.0636   -0.1190   28.6079 C.ar    1  UNL1        0.0001
      3 C         -25.7647   -0.3897   29.0360 C.ar    1  UNL1        0.0000
      4 C         -25.5296   -1.5302   29.9014 C.ar    1  UNL1        0.0001
      5 C         -26.6577   -2.2915   30.2035 C.ar    1  UNL1        0.0046
      6 C         -27.8548   -1.9555   29.7630 C.ar    1  UNL1        0.0554
      7 C         -24.5349    0.4128   28.7431 C.ar    1  UNL1        0.0000
      8 C         -24.4835    1.2431   27.7398 C.ar    1  UNL1        0.0000
      9 C         -23.2788    1.9376   27.4159 C.ar    1  UNL1        0.0000
     10 C         -22.0791    1.6509   28.0212 C.ar    1  UNL1        0.0000
     11 C         -23.2748    0.1108   29.4386 C.ar    1  UNL1        0.0000
     12 C         -22.0811    0.7712   29.0649 C.ar    1  UNL1        0.0000
     13 C         -29.0182   -2.7946   30.1855 C.2     1  UNL1        0.2690
     14 O         -30.0561   -2.5165   30.0123 O.2     1  UNL1       -0.2680
     15 N         -28.6484   -3.9857   30.8535 N.am    1  UNL1       -0.1754
     16 C         -29.6637   -4.9711   31.2353 C.ar    1  UNL1        0.0737
     17 C         -29.4931   -5.3989   32.4930 C.ar    1  UNL1        0.0166
     18 C         -30.1897   -6.7174   32.7047 C.ar    1  UNL1        0.0013
     19 C         -30.9004   -7.2592   31.6168 C.ar    1  UNL1        0.0001
     20 C         -30.9677   -6.7072   30.4016 C.ar    1  UNL1        0.0013
     21 C         -30.1939   -5.5462   30.1852 C.ar    1  UNL1        0.0166
@<TRIPOS>BOND
     1     3     7    1
     2     6    13    1
     3    13    14    2
     4    13    15   am
     5    15    16    1
     6     7     8   ar
     7     8     9   ar
     8     9    10   ar
     9    10    12   ar
    10    12    11   ar
    11    11     7   ar
    12     1     2   ar
    13     2     3   ar
    14     3     4   ar
    15     4     5   ar
    16     5     6   ar
    17     6     1   ar
    18    16    17   ar
    19    17    18   ar
    20    18    19   ar
    21    19    20   ar
    22    20    21   ar
    23    21    16   ar
