@<TRIPOS>MOLECULE
No_4865-gen_results/8p0m/2024-11-27-11-27-31/
 22 23 0 0 0
SMALL
GASTEIGER

@<TRIPOS>ATOM
      1 C         -28.0162   -0.8135   28.8779 C.ar    1  UNL1        0.0046
      2 C         -27.0636   -0.1189   28.6079 C.ar    1  UNL1        0.0001
      3 C         -25.7647   -0.3897   29.0360 C.ar    1  UNL1        0.0000
      4 C         -25.5296   -1.5302   29.9014 C.ar    1  UNL1        0.0001
      5 C         -26.6577   -2.2915   30.2035 C.ar    1  UNL1        0.0046
      6 C         -27.8548   -1.9555   29.7630 C.ar    1  UNL1        0.0554
      7 C         -24.5349    0.4128   28.7431 C.ar    1  UNL1        0.0000
      8 C         -24.4835    1.2431   27.7398 C.ar    1  UNL1        0.0000
      9 C         -23.4717    1.9016   27.3845 C.ar    1  UNL1        0.0000
     10 C         -22.1793    1.7156   27.9288 C.ar    1  UNL1        0.0000
     11 C         -23.2884    0.1334   29.4280 C.ar    1  UNL1        0.0000
     12 C         -22.1044    0.8262   29.0047 C.ar    1  UNL1        0.0000
     13 C         -29.0103   -2.7995   30.1904 C.2     1  UNL1        0.2690
     14 O         -28.9173   -4.0348   30.2993 O.2     1  UNL1       -0.2680
     15 N         -30.1650   -2.2233   30.5405 N.am    1  UNL1       -0.1741
     16 C         -31.3130   -3.0193   30.9610 C.2     1  UNL1        0.0905
     17 C         -31.2998   -3.6989   31.9424 C.2     1  UNL1        0.0381
     18 C         -30.4891   -3.3111   32.9873 C.2     1  UNL1        0.0949
     19 N         -30.2547   -4.1937   34.0642 N.2     1  UNL1       -0.2641
     20 C         -29.4832   -3.7911   35.1398 C.3     1  UNL1        0.1516
     21 C         -29.5286   -2.5952   35.6682 C.2     1  UNL1       -0.0001
     22 C         -29.6387   -1.5058   34.6408 C.2     1  UNL1       -0.0029
@<TRIPOS>BOND
     1     3     7    1
     2     6    13    1
     3    13    14    2
     4    13    15   am
     5    15    16    1
     6    16    17    2
     7    17    18    1
     8    18    19    2
     9    19    20    1
    10    20    21    1
    11    21    22    2
    12     7     8   ar
    13     8     9   ar
    14     9    10   ar
    15    10    12   ar
    16    12    11   ar
    17    11     7   ar
    18     1     2   ar
    19     2     3   ar
    20     3     4   ar
    21     4     5   ar
    22     5     6   ar
    23     6     1   ar
