@<TRIPOS>MOLECULE
No_4868-gen_results/8p0m/2024-11-27-11-27-31/
 9 9 0 0 0
SMALL
GASTEIGER

@<TRIPOS>ATOM
      1 C         -28.0162   -0.8135   28.8779 C.ar    1  UNL1       -0.0029
      2 C         -28.4690   -0.7850   29.8287 C.ar    1  UNL1       -0.0049
      3 C         -28.1816    0.4277   28.1134 C.ar    1  UNL1       -0.0003
      4 C         -28.9841    1.4155   28.5154 C.ar    1  UNL1       -0.0000
      5 C         -28.3375   -2.0481   30.7873 C.3     1  UNL1        0.1140
      6 C         -29.5615    1.2930   29.7416 C.ar    1  UNL1       -0.0003
      7 C         -29.3196    0.1647   30.4451 C.ar    1  UNL1       -0.0029
      8 N         -27.2484   -2.1259   31.3654 N.3     1  UNL1       -0.1281
      9 C         -29.4234   -2.2616   31.7821 C.3     1  UNL1        0.0253
@<TRIPOS>BOND
     1     2     5    1
     2     5     8    1
     3     5     9    1
     4     1     2   ar
     5     2     7   ar
     6     7     6   ar
     7     6     4   ar
     8     4     3   ar
     9     3     1   ar
