@<TRIPOS>MOLECULE
No_4870-gen_results/8p0m/2024-11-27-11-27-31/
 35 38 0 0 0
SMALL
GASTEIGER

@<TRIPOS>ATOM
      1 C         -28.0162   -0.8135   28.8779 C.ar    1  UNL1        0.0142
      2 C         -28.4690   -0.7850   29.8287 C.ar    1  UNL1        0.0478
      3 C         -26.5455   -0.8762   28.8500 C.ar    1  UNL1       -0.0030
      4 C         -25.8041   -1.0324   30.0571 C.ar    1  UNL1       -0.0218
      5 C         -27.9437   -0.9869   31.2075 C.ar    1  UNL1        0.0142
      6 C         -26.5825   -1.0386   31.2231 C.ar    1  UNL1       -0.0030
      7 N         -29.9648   -0.7353   29.8902 N.pl3   1  UNL1       -0.3073
      8 C         -30.5344   -0.0309   29.0060 C.3     1  UNL1        0.0934
      9 C         -31.8526   -0.4023   28.7249 C.3     1  UNL1        0.0543
     10 C         -30.7345   -1.5680   30.7138 C.3     1  UNL1        0.0934
     11 C         -32.0465   -1.8312   30.4793 C.3     1  UNL1        0.0543
     12 C         -32.6417   -1.1613   29.4973 C.3     1  UNL1        0.1554
     13 C         -24.3697   -1.0705   30.0555 C.3     1  UNL1        0.0307
     14 C         -23.7278    0.2196   30.0665 C.3     1  UNL1        0.0267
     15 C         -23.4640    0.8821   28.8631 C.ar    1  UNL1       -0.0220
     16 C         -22.1917    0.8575   28.4591 C.ar    1  UNL1       -0.0043
     17 C         -21.9135    1.6109   27.1591 C.ar    1  UNL1       -0.0002
     18 C         -22.9699    2.2580   26.5424 C.ar    1  UNL1        0.0045
     19 C         -24.3756    1.6575   28.1299 C.ar    1  UNL1        0.0002
     20 C         -24.1065    2.4043   27.1130 C.ar    1  UNL1        0.0533
     21 C         -23.6748    0.9119   31.3645 C.3     1  UNL1        0.0050
     22 C         -25.1342    3.2373   26.4049 C.2     1  UNL1        0.2490
     23 N         -26.2492    3.6368   26.8463 N.am    1  UNL1       -0.2761
     24 C         -26.3689    4.7204   27.5078 C.3     1  UNL1        0.0937
     25 C         -27.6391    5.1073   28.0337 C.3     1  UNL1        0.0219
     26 C         -27.3342    2.8149   26.6827 C.3     1  UNL1        0.0937
     27 C         -28.6341    3.1010   27.1782 C.3     1  UNL1        0.0219
     28 C         -28.7254    4.3231   27.8763 C.3     1  UNL1        0.0074
     29 O         -24.6860    3.8052   25.3743 O.2     1  UNL1       -0.2699
     30 O         -33.9443   -1.3456   29.2439 O.3     1  UNL1       -0.2230
     31 C         -30.0563    4.6885   28.4391 C.3     1  UNL1        0.0218
     32 C         -30.1232    4.8738   29.7165 C.2     1  UNL1       -0.0310
     33 C         -31.4186    5.1228   30.3213 C.2     1  UNL1       -0.0304
     34 C         -32.5119    5.1551   29.4546 C.3     1  UNL1        0.0303
     35 C         -31.0858    4.7867   27.5271 C.3     1  UNL1        0.0047
@<TRIPOS>BOND
     1     2     7    1
     2     7     8    1
     3     7    10    1
     4     9    12    1
     5    11    12    1
     6     4    13    1
     7    13    14    1
     8    14    15    1
     9    14    21    1
    10    20    22    1
    11    22    23   am
    12    23    24    1
    13    23    26    1
    14    25    28    1
    15    27    28    1
    16    22    29    2
    17    12    30    1
    18    28    31    1
    19    31    32    1
    20    32    33    2
    21    33    34    1
    22    31    35    1
    23    24    25    1
    24    27    26    1
    25     8     9    1
    26    11    10    1
    27    15    16   ar
    28    16    17   ar
    29    17    18   ar
    30    18    20   ar
    31    20    19   ar
    32    19    15   ar
    33     1     2   ar
    34     2     5   ar
    35     5     6   ar
    36     6     4   ar
    37     4     3   ar
    38     3     1   ar
