@<TRIPOS>MOLECULE
outputs/IAG933/test6/raw/output_4871_IAG933_linker_design_.xyz
 43 47 0 0 0
SMALL
GASTEIGER

@<TRIPOS>ATOM
      1 C         -24.8550   -1.0120   30.1430 C.3     1  UNL1        0.0704
      2 C         -24.9730   -2.5050   29.7880 C.2     1  UNL1       -0.0186
      3 C         -23.9060   -3.1730   29.1460 C.2     1  UNL1       -0.0042
      4 C         -23.9890   -4.5490   28.8530 C.2     1  UNL1       -0.0003
      5 C         -25.1370   -5.2800   29.2050 C.2     1  UNL1       -0.0000
      6 C         -26.2320   -4.6110   29.7840 C.2     1  UNL1       -0.0003
      7 C         -26.1550   -3.2320   30.0650 C.2     1  UNL1       -0.0042
      8 C         -25.3870   -0.6790   31.5710 C.3     1  UNL1        0.0793
      9 C         -25.1890    0.7730   32.0280 C.3     1  UNL1        0.0193
     10 C         -25.3360    0.6840   33.5440 C.3     1  UNL1        0.0202
     11 C         -24.8290   -0.7150   33.9050 C.3     1  UNL1        0.0887
     12 N         -24.7580   -1.4810   32.6460 N.3     1  UNL1       -0.2190
     13 C         -25.6880    1.6140   26.4610 C.3     1  UNL1        0.1297
     14 C         -26.2500    2.9200   26.3950 C.2     1  UNL1        0.0696
     15 C         -25.6420    4.0930   27.1230 C.2     1  UNL1        0.2637
     16 N         -25.6140    5.2520   26.4490 N.am    1  UNL1       -0.2000
     17 C         -25.0260    6.4790   26.9630 C.3     1  UNL1        0.1388
     18 O         -25.1430    3.9660   28.2430 O.2     1  UNL1       -0.2686
     19 C         -27.4380    3.0910   25.6450 C.2     1  UNL1        0.1035
     20 N         -28.0750    2.0890   25.0030 N.2     1  UNL1       -0.2118
     21 C         -27.5430    0.8490   25.0790 C.2     1  UNL1        0.2355
     22 O         -28.1930   -0.2080   24.4770 O.2     1  UNL1       -0.4585
     23 C         -29.4600    0.0050   23.8660 C.3     1  UNL1        0.2423
     24 C         -30.0650   -1.3770   23.5730 C.3     1  UNL1        0.2292
     25 O         -30.7290   -1.8780   24.7210 O.3     1  UNL1       -0.2162
     26 C         -26.3540    0.5760   25.7770 C.3     1  UNL1        0.2546
     27 F         -25.8600   -0.6810   25.7950 F       1  UNL1       -0.2254
     28 N         -21.2809    1.4035   27.6688 N.3     1  UNL1       -0.1819
     29 C         -25.7661    1.4316   29.0564 C.3     1  UNL1        0.1125
     30 C         -28.8960    2.6673   30.6882 C.2     1  UNL1       -0.0003
     31 CL        -22.4585    2.2193   25.4714 Cl      1  UNL1       -0.0926
     32 O         -27.2024   -0.4323   28.8140 O.3     1  UNL1       -0.2209
     33 C         -27.2024    4.3688   30.9363 C.2     1  UNL1       -0.0003
     34 C         -27.9293    1.7161   30.3158 C.2     1  UNL1       -0.0029
     35 C         -26.2745    3.4352   30.6212 C.2     1  UNL1       -0.0029
     36 C         -28.5436    3.9917   30.9250 C.2     1  UNL1       -0.0000
     37 C         -26.6533    2.1529   30.0813 C.2     1  UNL1       -0.0053
     38 N         -24.9902    1.4261   27.6582 N.3     1  UNL1       -0.2480
     39 C         -21.7017    0.5243   28.7259 C.3     1  UNL1        0.1807
     40 C         -25.8124   -0.1792   29.2019 C.3     1  UNL1        0.1759
     41 C         -22.5912    1.6305   27.1089 C.3     1  UNL1        0.1845
     42 C         -23.6573    1.1209   27.7514 C.3     1  UNL1        0.1658
     43 N         -23.0212    0.1564   28.7174 N.3     1  UNL1       -0.1821
@<TRIPOS>BOND
     1     1    40    1
     2     2     7    1
     3     2     1    1
     4     3     2    2
     5     4     3    1
     6     4     5    2
     7     5     6    1
     8     6     7    2
     9     8     1    1
    10     8     9    1
    11     8    12    1
    12     9    10    1
    13    10    11    1
    14    12    11    1
    15    13    38    1
    16    14    13    1
    17    14    15    1
    18    15    18    2
    19    16    17    1
    20    16    15    1
    21    19    14    2
    22    20    21    2
    23    20    19    1
    24    21    26    1
    25    22    21    1
    26    23    22    1
    27    24    23    1
    28    24    25    1
    29    26    27    1
    30    26    13    1
    31    28    39    1
    32    29    38    1
    33    29    40    1
    34    29    37    1
    35    30    36    1
    36    34    30    2
    37    35    33    1
    38    36    33    2
    39    37    34    1
    40    37    35    2
    41    40    32    1
    42    41    31    1
    43    41    28    1
    44    41    42    1
    45    42    38    1
    46    42    43    1
    47    43    39    1
