@<TRIPOS>MOLECULE
outputs/IAG933/test6/raw/output_4873_IAG933_linker_design_.xyz
 42 46 0 0 0
SMALL
GASTEIGER

@<TRIPOS>ATOM
      1 C         -24.8550   -1.0120   30.1430 C.3     1  UNL1        0.0402
      2 C         -24.9730   -2.5050   29.7880 C.2     1  UNL1       -0.0211
      3 C         -23.9060   -3.1730   29.1460 C.2     1  UNL1       -0.0042
      4 C         -23.9890   -4.5490   28.8530 C.2     1  UNL1       -0.0003
      5 C         -25.1370   -5.2800   29.2050 C.2     1  UNL1       -0.0000
      6 C         -26.2320   -4.6110   29.7840 C.2     1  UNL1       -0.0003
      7 C         -26.1550   -3.2320   30.0650 C.2     1  UNL1       -0.0042
      8 C         -25.3870   -0.6790   31.5710 C.3     1  UNL1        0.0782
      9 C         -25.1890    0.7730   32.0280 C.3     1  UNL1        0.0339
     10 C         -25.3360    0.6840   33.5440 C.3     1  UNL1        0.0216
     11 C         -24.8290   -0.7150   33.9050 C.3     1  UNL1        0.0887
     12 N         -24.7580   -1.4810   32.6460 N.3     1  UNL1       -0.2191
     13 C         -25.6880    1.6140   26.4610 C.2     1  UNL1        0.1082
     14 C         -26.2500    2.9200   26.3950 C.2     1  UNL1        0.0918
     15 C         -25.6420    4.0930   27.1230 C.2     1  UNL1        0.2677
     16 N         -25.6140    5.2520   26.4490 N.am    1  UNL1       -0.1997
     17 C         -25.0260    6.4790   26.9630 C.3     1  UNL1        0.1388
     18 O         -25.1430    3.9660   28.2430 O.2     1  UNL1       -0.2683
     19 C         -27.4380    3.0910   25.6450 C.2     1  UNL1        0.1080
     20 N         -28.0750    2.0890   25.0030 N.2     1  UNL1       -0.2080
     21 C         -27.5430    0.8490   25.0790 C.2     1  UNL1        0.2546
     22 O         -28.1930   -0.2080   24.4770 O.2     1  UNL1       -0.4558
     23 C         -29.4600    0.0050   23.8660 C.3     1  UNL1        0.2426
     24 C         -30.0650   -1.3770   23.5730 C.3     1  UNL1        0.2292
     25 O         -30.7290   -1.8780   24.7210 O.3     1  UNL1       -0.2162
     26 C         -26.3540    0.5760   25.7770 C.2     1  UNL1        0.2081
     27 F         -25.8600   -0.6810   25.7950 F       1  UNL1       -0.1978
     28 C         -24.8187    2.0719   31.3164 C.3     1  UNL1        0.0760
     29 C         -26.3051    5.3400   34.4003 C.3     1  UNL1        0.1207
     30 C         -22.0788    1.7390   26.8153 C.2     1  UNL1        0.1857
     31 N         -25.7297    4.8699   33.1070 N.3     1  UNL1       -0.1643
     32 C         -23.4352    1.0328   28.8435 C.3     1  UNL1        0.1355
     33 C         -26.0868    3.6167   32.5882 C.3     1  UNL1        0.1025
     34 C         -25.7346    3.1578   31.2743 C.3     1  UNL1        0.0372
     35 O         -21.3355    1.3608   27.8012 O.2     1  UNL1       -0.4695
     36 C         -21.9561    0.8472   28.9879 C.3     1  UNL1        0.2269
     37 N         -24.5692    1.4907   27.0913 N.pl3   1  UNL1       -0.2096
     38 C         -24.3379   -0.2840   28.8742 C.3     1  UNL1        0.0311
     39 C         -24.6313    6.9068   32.5369 C.3     1  UNL1        0.2007
     40 O         -25.5057    5.8347   32.1117 O.3     1  UNL1       -0.2795
     41 C         -23.3361    1.6053   27.4752 C.2     1  UNL1        0.1028
     42 N         -24.3177    1.8052   29.9166 N.3     1  UNL1       -0.2129
@<TRIPOS>BOND
     1     1     2    1
     2     1     8    1
     3     2     7    1
     4     3     2    2
     5     4     3    1
     6     4     5    2
     7     5     6    1
     8     6     7    2
     9     8     9    1
    10     8    12    1
    11     9    10    1
    12    10    11    1
    13    12    11    1
    14    13    37    1
    15    14    13    1
    16    14    15    1
    17    15    18    2
    18    16    17    1
    19    16    15    1
    20    19    14    2
    21    20    21    2
    22    20    19    1
    23    21    26    1
    24    22    21    1
    25    23    22    1
    26    24    23    1
    27    24    25    1
    28    26    27    1
    29    26    13    2
    30    28    34    1
    31    28     9    1
    32    30    41    2
    33    30    35    1
    34    31    29    1
    35    32    38    1
    36    32    36    1
    37    32    42    1
    38    33    31    1
    39    34    33    1
    40    35    36    1
    41    37    41    1
    42    38     1    1
    43    40    39    1
    44    40    31    1
    45    41    32    1
    46    42    28    1
