@<TRIPOS>MOLECULE
outputs/IAG933/test6/raw/output_4875_IAG933_linker_design_.xyz
 39 42 0 0 0
SMALL
GASTEIGER

@<TRIPOS>ATOM
      1 C         -24.8550   -1.0120   30.1430 C.3     1  UNL1        0.1506
      2 C         -24.9730   -2.5050   29.7880 C.2     1  UNL1        0.0017
      3 C         -23.9060   -3.1730   29.1460 C.2     1  UNL1       -0.0023
      4 C         -23.9890   -4.5490   28.8530 C.2     1  UNL1       -0.0003
      5 C         -25.1370   -5.2800   29.2050 C.2     1  UNL1       -0.0000
      6 C         -26.2320   -4.6110   29.7840 C.2     1  UNL1       -0.0003
      7 C         -26.1550   -3.2320   30.0650 C.2     1  UNL1       -0.0023
      8 C         -25.3870   -0.6790   31.5710 C.3     1  UNL1        0.0999
      9 C         -25.1890    0.7730   32.0280 C.3     1  UNL1        0.0212
     10 C         -25.3360    0.6840   33.5440 C.3     1  UNL1        0.0203
     11 C         -24.8290   -0.7150   33.9050 C.3     1  UNL1        0.0888
     12 N         -24.7580   -1.4810   32.6460 N.3     1  UNL1       -0.2171
     13 C         -25.6880    1.6140   26.4610 C.2     1  UNL1        0.0409
     14 C         -26.2500    2.9200   26.3950 C.2     1  UNL1        0.0766
     15 C         -25.6420    4.0930   27.1230 C.2     1  UNL1        0.2664
     16 N         -25.6140    5.2520   26.4490 N.am    1  UNL1       -0.1997
     17 C         -25.0260    6.4790   26.9630 C.3     1  UNL1        0.1388
     18 O         -25.1430    3.9660   28.2430 O.2     1  UNL1       -0.2683
     19 C         -27.4380    3.0910   25.6450 C.2     1  UNL1        0.1067
     20 N         -28.0750    2.0890   25.0030 N.2     1  UNL1       -0.2081
     21 C         -27.5430    0.8490   25.0790 C.2     1  UNL1        0.2533
     22 O         -28.1930   -0.2080   24.4770 O.2     1  UNL1       -0.4558
     23 C         -29.4600    0.0050   23.8660 C.3     1  UNL1        0.2426
     24 C         -30.0650   -1.3770   23.5730 C.3     1  UNL1        0.2292
     25 O         -30.7290   -1.8780   24.7210 O.3     1  UNL1       -0.2162
     26 C         -26.3540    0.5760   25.7770 C.2     1  UNL1        0.1931
     27 F         -25.8600   -0.6810   25.7950 F       1  UNL1       -0.1992
     28 C         -21.8117    1.2265   27.9772 C.ar    1  UNL1        0.2627
     29 C         -23.3621    2.5891   24.9762 C.3     1  UNL1        0.2387
     30 F         -20.5480    1.2437   28.2461 F       1  UNL1       -0.1797
     31 N         -22.0555    1.8403   26.8865 N.ar    1  UNL1       -0.2168
     32 N         -25.2067   -0.0955   29.0111 N.3     1  UNL1       -0.1999
     33 C         -22.7949    0.5751   28.7332 C.ar    1  UNL1        0.2587
     34 O         -22.4061    0.0357   29.8785 O.3     1  UNL1       -0.2808
     35 C         -24.1894    0.5783   28.2961 C.ar    1  UNL1        0.1293
     36 C         -24.4024    1.3721   27.0616 C.ar    1  UNL1        0.0400
     37 C         -23.2949    1.9512   26.3570 C.ar    1  UNL1        0.0985
     38 O         -26.4863   -0.1896   28.5037 O.3     1  UNL1       -0.0838
     39 F         -22.9414    1.5434   24.1143 F       1  UNL1       -0.2274
@<TRIPOS>BOND
     1     1    32    1
     2     2     7    1
     3     2     1    1
     4     3     2    2
     5     4     3    1
     6     4     5    2
     7     5     6    1
     8     6     7    2
     9     8     1    1
    10     8     9    1
    11     8    12    1
    12     9    10    1
    13    10    11    1
    14    12    11    1
    15    13    36    1
    16    14    13    1
    17    14    15    1
    18    15    18    2
    19    16    17    1
    20    16    15    1
    21    19    14    2
    22    20    21    2
    23    20    19    1
    24    21    26    1
    25    22    21    1
    26    23    22    1
    27    24    23    1
    28    24    25    1
    29    26    27    1
    30    26    13    2
    31    28    30    1
    32    28    33   ar
    33    29    37    1
    34    31    28   ar
    35    33    34    1
    36    35    33   ar
    37    35    32    1
    38    36    35   ar
    39    37    31   ar
    40    37    36   ar
    41    38    32    1
    42    39    29    1
