@<TRIPOS>MOLECULE
outputs/IAG933/test6/raw/output_4876_IAG933_linker_design_.xyz
 42 46 0 0 0
SMALL
GASTEIGER

@<TRIPOS>ATOM
      1 C         -24.8550   -1.0120   30.1430 C.3     1  UNL1        0.0641
      2 C         -24.9730   -2.5050   29.7880 C.2     1  UNL1       -0.0191
      3 C         -23.9060   -3.1730   29.1460 C.2     1  UNL1       -0.0042
      4 C         -23.9890   -4.5490   28.8530 C.2     1  UNL1       -0.0003
      5 C         -25.1370   -5.2800   29.2050 C.2     1  UNL1       -0.0000
      6 C         -26.2320   -4.6110   29.7840 C.2     1  UNL1       -0.0003
      7 C         -26.1550   -3.2320   30.0650 C.2     1  UNL1       -0.0042
      8 C         -25.3870   -0.6790   31.5710 C.3     1  UNL1        0.0789
      9 C         -25.1890    0.7730   32.0280 C.3     1  UNL1        0.0193
     10 C         -25.3360    0.6840   33.5440 C.3     1  UNL1        0.0202
     11 C         -24.8290   -0.7150   33.9050 C.3     1  UNL1        0.0887
     12 N         -24.7580   -1.4810   32.6460 N.3     1  UNL1       -0.2191
     13 C         -25.6880    1.6140   26.4610 C.2     1  UNL1        0.0390
     14 C         -26.2500    2.9200   26.3950 C.2     1  UNL1        0.0766
     15 C         -25.6420    4.0930   27.1230 C.2     1  UNL1        0.2664
     16 N         -25.6140    5.2520   26.4490 N.am    1  UNL1       -0.1997
     17 C         -25.0260    6.4790   26.9630 C.3     1  UNL1        0.1388
     18 O         -25.1430    3.9660   28.2430 O.2     1  UNL1       -0.2683
     19 C         -27.4380    3.0910   25.6450 C.2     1  UNL1        0.1067
     20 N         -28.0750    2.0890   25.0030 N.2     1  UNL1       -0.2081
     21 C         -27.5430    0.8490   25.0790 C.2     1  UNL1        0.2533
     22 O         -28.1930   -0.2080   24.4770 O.2     1  UNL1       -0.4558
     23 C         -29.4600    0.0050   23.8660 C.3     1  UNL1        0.2426
     24 C         -30.0650   -1.3770   23.5730 C.3     1  UNL1        0.2292
     25 O         -30.7290   -1.8780   24.7210 O.3     1  UNL1       -0.2162
     26 C         -26.3540    0.5760   25.7770 C.2     1  UNL1        0.1931
     27 F         -25.8600   -0.6810   25.7950 F       1  UNL1       -0.1992
     28 N         -26.2387    2.1474   29.6558 N.pl3   1  UNL1       -0.0419
     29 C         -28.4146    1.6478   29.5944 C.2     1  UNL1        0.1347
     30 C         -24.3645    1.3458   27.1290 C.2     1  UNL1        0.0138
     31 C         -21.8617    1.6238   27.0852 C.2     1  UNL1        0.0164
     32 N         -26.3317    0.8376   29.3102 N.am    1  UNL1       -0.1635
     33 O         -28.0239   -0.5954   28.6441 O.2     1  UNL1       -0.2669
     34 C         -23.2777    2.3431   25.1268 C.3     1  UNL1        0.0311
     35 C         -27.6318    0.5124   29.1769 C.2     1  UNL1        0.2828
     36 N         -22.8604    0.3025   28.8967 N.2     1  UNL1       -0.2465
     37 N         -27.5525    2.6358   29.9259 N.2     1  UNL1       -0.1432
     38 C         -25.2290   -0.1166   29.1106 C.3     1  UNL1        0.1438
     39 C         -29.9972    1.6021   29.5012 C.3     1  UNL1        0.0588
     40 C         -24.1021    0.5319   28.4107 C.2     1  UNL1        0.0790
     41 C         -21.7436    0.8799   28.2513 C.2     1  UNL1        0.0982
     42 C         -23.1235    1.7988   26.5147 C.2     1  UNL1       -0.0190
@<TRIPOS>BOND
     1     1    38    1
     2     2     7    1
     3     2     1    1
     4     3     2    2
     5     4     3    1
     6     4     5    2
     7     5     6    1
     8     6     7    2
     9     8     1    1
    10     8     9    1
    11     8    12    1
    12     9    10    1
    13    10    11    1
    14    12    11    1
    15    13    30    1
    16    14    13    1
    17    14    15    1
    18    15    18    2
    19    16    17    1
    20    16    15    1
    21    19    14    2
    22    20    21    2
    23    20    19    1
    24    21    26    1
    25    22    21    1
    26    23    22    1
    27    24    23    1
    28    24    25    1
    29    26    27    1
    30    26    13    2
    31    28    37    1
    32    29    37    2
    33    30    40    1
    34    31    41    2
    35    32    28    1
    36    33    35    2
    37    34    42    1
    38    35    32   am
    39    35    29    1
    40    38    40    1
    41    38    32    1
    42    39    29    1
    43    40    36    2
    44    41    36    1
    45    42    31    1
    46    42    30    2
