@<TRIPOS>MOLECULE
outputs/IAG933/test6/raw/output_4878_IAG933_linker_design_.xyz
 43 46 0 0 0
SMALL
GASTEIGER

@<TRIPOS>ATOM
      1 C         -24.8550   -1.0120   30.1430 C.3     1  UNL1        0.0439
      2 C         -24.9730   -2.5050   29.7880 C.2     1  UNL1       -0.0208
      3 C         -23.9060   -3.1730   29.1460 C.2     1  UNL1       -0.0042
      4 C         -23.9890   -4.5490   28.8530 C.2     1  UNL1       -0.0003
      5 C         -25.1370   -5.2800   29.2050 C.2     1  UNL1       -0.0000
      6 C         -26.2320   -4.6110   29.7840 C.2     1  UNL1       -0.0003
      7 C         -26.1550   -3.2320   30.0650 C.2     1  UNL1       -0.0042
      8 C         -25.3870   -0.6790   31.5710 C.3     1  UNL1        0.0820
      9 C         -25.1890    0.7730   32.0280 C.3     1  UNL1        0.0742
     10 C         -25.3360    0.6840   33.5440 C.3     1  UNL1        0.0252
     11 C         -24.8290   -0.7150   33.9050 C.3     1  UNL1        0.0889
     12 N         -24.7580   -1.4810   32.6460 N.3     1  UNL1       -0.2189
     13 C         -25.6880    1.6140   26.4610 C.2     1  UNL1        0.0766
     14 C         -26.2500    2.9200   26.3950 C.2     1  UNL1        0.0796
     15 C         -25.6420    4.0930   27.1230 C.2     1  UNL1        0.2665
     16 N         -25.6140    5.2520   26.4490 N.am    1  UNL1       -0.1997
     17 C         -25.0260    6.4790   26.9630 C.3     1  UNL1        0.1388
     18 O         -25.1430    3.9660   28.2430 O.2     1  UNL1       -0.2683
     19 C         -27.4380    3.0910   25.6450 C.2     1  UNL1        0.1068
     20 N         -28.0750    2.0890   25.0030 N.2     1  UNL1       -0.2081
     21 C         -27.5430    0.8490   25.0790 C.2     1  UNL1        0.2534
     22 O         -28.1930   -0.2080   24.4770 O.2     1  UNL1       -0.4558
     23 C         -29.4600    0.0050   23.8660 C.3     1  UNL1        0.2426
     24 C         -30.0650   -1.3770   23.5730 C.3     1  UNL1        0.2292
     25 O         -30.7290   -1.8780   24.7210 O.3     1  UNL1       -0.2162
     26 C         -26.3540    0.5760   25.7770 C.2     1  UNL1        0.1961
     27 F         -25.8600   -0.6810   25.7950 F       1  UNL1       -0.1991
     28 C         -25.3517    1.9401   31.1739 C.3     1  UNL1        0.2363
     29 C         -22.8931    2.2918   25.2103 C.3     1  UNL1        0.0340
     30 C         -22.1648    1.6969   27.5495 C.2     1  UNL1       -0.0246
     31 O         -24.8967    6.7478   33.8281 O.3     1  UNL1       -0.1179
     32 C         -22.2249    1.4439   28.8868 C.3     1  UNL1        0.0579
     33 C         -25.8810    5.2187   30.8266 C.3     1  UNL1        0.0511
     34 C         -24.2778    4.6710   32.5875 C.3     1  UNL1        0.1335
     35 O         -24.8395    1.8204   29.7567 O.3     1  UNL1       -0.3301
     36 C         -23.1497    1.7322   26.7166 C.2     1  UNL1        0.0130
     37 C         -24.3205    1.2550   27.0390 C.2     1  UNL1        0.1938
     38 C         -24.9555    4.2094   31.2900 C.3     1  UNL1        0.1376
     39 O         -25.8041    3.1074   31.7144 O.3     1  UNL1       -0.3314
     40 N         -25.0665    5.8985   32.8848 N.3     1  UNL1       -0.1304
     41 C         -23.3735    1.3732   29.6181 C.3     1  UNL1        0.1494
     42 C         -26.1471    6.1228   31.9691 C.3     1  UNL1        0.1066
     43 O         -24.2218    0.2979   27.5867 O.2     1  UNL1       -0.2868
@<TRIPOS>BOND
     1     2     7    1
     2     2     1    1
     3     3     2    2
     4     4     3    1
     5     4     5    2
     6     5     6    1
     7     6     7    2
     8     8     1    1
     9     8     9    1
    10     8    12    1
    11     9    28    1
    12     9    10    1
    13    10    11    1
    14    12    11    1
    15    13    37    1
    16    14    13    1
    17    14    15    1
    18    15    18    2
    19    16    17    1
    20    16    15    1
    21    19    14    2
    22    20    21    2
    23    20    19    1
    24    21    26    1
    25    22    21    1
    26    23    22    1
    27    24    23    1
    28    24    25    1
    29    26    27    1
    30    26    13    2
    31    28    35    1
    32    28    39    1
    33    29    36    1
    34    30    32    1
    35    32    41    1
    36    33    38    1
    37    33    42    1
    38    34    40    1
    39    36    37    1
    40    36    30    2
    41    37    43    2
    42    38    39    1
    43    38    34    1
    44    40    31    1
    45    41    35    1
    46    42    40    1
