@<TRIPOS>MOLECULE
outputs/IAG933/test6/raw/output_488_IAG933_linker_design_.xyz
 40 44 0 0 0
SMALL
GASTEIGER

@<TRIPOS>ATOM
      1 C         -24.8550   -1.0120   30.1430 C.3     1  UNL1        0.1311
      2 C         -24.9730   -2.5050   29.7880 C.2     1  UNL1       -0.0002
      3 C         -23.9060   -3.1730   29.1460 C.2     1  UNL1       -0.0024
      4 C         -23.9890   -4.5490   28.8530 C.2     1  UNL1       -0.0003
      5 C         -25.1370   -5.2800   29.2050 C.2     1  UNL1       -0.0000
      6 C         -26.2320   -4.6110   29.7840 C.2     1  UNL1       -0.0003
      7 C         -26.1550   -3.2320   30.0650 C.2     1  UNL1       -0.0024
      8 C         -25.3870   -0.6790   31.5710 C.3     1  UNL1        0.0979
      9 C         -25.1890    0.7730   32.0280 C.3     1  UNL1        0.0211
     10 C         -25.3360    0.6840   33.5440 C.3     1  UNL1        0.0203
     11 C         -24.8290   -0.7150   33.9050 C.3     1  UNL1        0.0888
     12 N         -24.7580   -1.4810   32.6460 N.3     1  UNL1       -0.2172
     13 C         -25.6880    1.6140   26.4610 C.3     1  UNL1        0.1597
     14 C         -26.2500    2.9200   26.3950 C.2     1  UNL1        0.0757
     15 C         -25.6420    4.0930   27.1230 C.2     1  UNL1        0.2642
     16 N         -25.6140    5.2520   26.4490 N.am    1  UNL1       -0.1999
     17 C         -25.0260    6.4790   26.9630 C.3     1  UNL1        0.1388
     18 O         -25.1430    3.9660   28.2430 O.2     1  UNL1       -0.2686
     19 C         -27.4380    3.0910   25.6450 C.2     1  UNL1        0.1040
     20 N         -28.0750    2.0890   25.0030 N.2     1  UNL1       -0.2117
     21 C         -27.5430    0.8490   25.0790 C.2     1  UNL1        0.2361
     22 O         -28.1930   -0.2080   24.4770 O.2     1  UNL1       -0.4585
     23 C         -29.4600    0.0050   23.8660 C.3     1  UNL1        0.2423
     24 C         -30.0650   -1.3770   23.5730 C.3     1  UNL1        0.2292
     25 O         -30.7290   -1.8780   24.7210 O.3     1  UNL1       -0.2162
     26 C         -26.3540    0.5760   25.7770 C.3     1  UNL1        0.2607
     27 F         -25.8600   -0.6810   25.7950 F       1  UNL1       -0.2248
     28 N         -24.5024   -0.0766   29.3240 N.ar    1  UNL1       -0.2455
     29 N         -20.3909    1.2238   28.1944 N.3     1  UNL1       -0.0949
     30 F         -23.6301    3.0112   25.5400 F       1  UNL1       -0.1971
     31 O         -21.7325    1.8698   26.2465 O.3     1  UNL1       -0.3021
     32 O         -26.5752   -0.1147   28.5165 O.2     1  UNL1       -0.2462
     33 C         -23.1921    0.2902   29.1965 C.ar    1  UNL1        0.2654
     34 C         -21.5726    1.3716   27.5690 C.3     1  UNL1        0.2381
     35 C         -23.7433    1.5784   27.4071 C.ar    1  UNL1        0.1070
     36 N         -24.8506    1.2466   27.5315 N.ar    1  UNL1       -0.2745
     37 O         -22.3688   -0.0176   30.0214 O.2     1  UNL1       -0.2670
     38 C         -25.4476    0.3372   28.4650 C.ar    1  UNL1        0.3342
     39 C         -22.7897    1.0638   28.1425 C.ar    1  UNL1        0.0960
     40 C         -23.1651    2.2221   26.4466 C.3     1  UNL1        0.3192
@<TRIPOS>BOND
     1     1     2    1
     2     2     7    1
     3     3     2    2
     4     4     3    1
     5     4     5    2
     6     5     6    1
     7     6     7    2
     8     8     1    1
     9     8     9    1
    10     8    12    1
    11     9    10    1
    12    10    11    1
    13    12    11    1
    14    13    36    1
    15    14    13    1
    16    14    15    1
    17    15    18    2
    18    16    17    1
    19    16    15    1
    20    19    14    2
    21    20    21    2
    22    20    19    1
    23    21    26    1
    24    22    21    1
    25    23    22    1
    26    24    23    1
    27    24    25    1
    28    26    27    1
    29    26    13    1
    30    28     1    1
    31    31    40    1
    32    31    34    1
    33    33    28   ar
    34    33    37    2
    35    34    39    1
    36    34    29    1
    37    35    36   ar
    38    35    39   ar
    39    36    38   ar
    40    38    32    2
    41    38    28   ar
    42    39    33   ar
    43    40    30    1
    44    40    35    1
