@<TRIPOS>MOLECULE
No_4881-gen_results/8p0m/2024-11-27-11-27-31/
 28 30 0 0 0
SMALL
GASTEIGER

@<TRIPOS>ATOM
      1 C         -28.0162   -0.8135   28.8779 C.ar    1  UNL1        0.0374
      2 C         -27.0636   -0.1190   28.6079 C.ar    1  UNL1        0.1416
      3 C         -26.9716    0.7139   27.5060 C.ar    1  UNL1        0.0166
      4 C         -28.1053    0.7744   26.6421 C.ar    1  UNL1        0.0056
      5 C         -29.2041    0.1179   27.0477 C.ar    1  UNL1        0.0797
      6 C         -30.3488    0.2568   26.2203 C.2     1  UNL1        0.3877
      7 C         -29.1817   -0.6758   28.1173 C.ar    1  UNL1        0.0097
      8 O         -31.3387   -0.2347   26.5001 O.co2   1  UNL1       -0.2406
      9 O         -30.2776    0.8652   25.0275 O.co2   1  UNL1       -0.2406
     10 C         -25.6595    1.4147   27.1427 C.3     1  UNL1        0.0516
     11 C         -25.1496    2.3427   28.1439 C.2     1  UNL1       -0.0334
     12 C         -25.6073    2.7461   28.9577 C.2     1  UNL1        0.0514
     13 C         -25.9259    3.6443   29.7407 C.2     1  UNL1        0.2644
     14 N         -26.7538    3.5715   30.6032 N.am    1  UNL1       -0.1998
     15 C         -27.3422    4.4448   31.3225 C.3     1  UNL1        0.1388
     16 C         -23.6143    2.5673   27.7911 C.3     1  UNL1        0.0458
     17 C         -22.6951    1.6062   28.4297 C.3     1  UNL1        0.1167
     18 N         -22.4939    0.5544   28.0512 N.pl3   1  UNL1       -0.2329
     19 C         -23.0011   -0.4551   28.1946 C.2     1  UNL1        0.1175
     20 O         -25.3438    4.7849   29.5148 O.2     1  UNL1       -0.2684
     21 C         -24.2785   -0.5995   28.8243 C.2     1  UNL1        0.1612
     22 C         -24.7388   -1.8961   29.2439 C.ar    1  UNL1        0.0359
     23 C         -24.7573   -2.9200   28.3856 C.ar    1  UNL1        0.0031
     24 C         -25.1614   -4.2290   28.9198 C.ar    1  UNL1        0.0001
     25 C         -26.1493   -4.2334   29.9678 C.ar    1  UNL1        0.0000
     26 C         -26.4345   -3.0602   30.6583 C.ar    1  UNL1        0.0001
     27 C         -25.7196   -1.8397   30.3553 C.ar    1  UNL1        0.0031
     28 O         -25.3686    0.1078   28.1350 O.3     1  UNL1       -0.4525
@<TRIPOS>BOND
     1     5     6    1
     2     6     8   ar
     3     6     9   ar
     4     3    10    1
     5    10    11    1
     6    11    12    2
     7    12    13    1
     8    13    14   am
     9    14    15    1
    10    11    16    1
    11    16    17    1
    12    17    18    1
    13    18    19    1
    14    13    20    2
    15    19    21    2
    16    21    22    1
    17     2    28    1
    18    21    28    1
    19    22    23   ar
    20    23    24   ar
    21    24    25   ar
    22    25    26   ar
    23    26    27   ar
    24    27    22   ar
    25     1     2   ar
    26     2     3   ar
    27     3     4   ar
    28     4     5   ar
    29     5     7   ar
    30     7     1   ar
