@<TRIPOS>MOLECULE
outputs/IAG933/test6/raw/output_4885_IAG933_linker_design_.xyz
 42 45 0 0 0
SMALL
GASTEIGER

@<TRIPOS>ATOM
      1 C         -24.8550   -1.0120   30.1430 C.3     1  UNL1        0.0533
      2 C         -24.9730   -2.5050   29.7880 C.2     1  UNL1       -0.0198
      3 C         -23.9060   -3.1730   29.1460 C.2     1  UNL1       -0.0042
      4 C         -23.9890   -4.5490   28.8530 C.2     1  UNL1       -0.0003
      5 C         -25.1370   -5.2800   29.2050 C.2     1  UNL1       -0.0000
      6 C         -26.2320   -4.6110   29.7840 C.2     1  UNL1       -0.0003
      7 C         -26.1550   -3.2320   30.0650 C.2     1  UNL1       -0.0042
      8 C         -25.3870   -0.6790   31.5710 C.3     1  UNL1        0.0781
      9 C         -25.1890    0.7730   32.0280 C.3     1  UNL1        0.0192
     10 C         -25.3360    0.6840   33.5440 C.3     1  UNL1        0.0202
     11 C         -24.8290   -0.7150   33.9050 C.3     1  UNL1        0.0887
     12 N         -24.7580   -1.4810   32.6460 N.3     1  UNL1       -0.2191
     13 C         -25.6880    1.6140   26.4610 C.2     1  UNL1        0.0303
     14 C         -26.2500    2.9200   26.3950 C.2     1  UNL1        0.0738
     15 C         -25.6420    4.0930   27.1230 C.2     1  UNL1        0.2662
     16 N         -25.6140    5.2520   26.4490 N.am    1  UNL1       -0.1997
     17 C         -25.0260    6.4790   26.9630 C.3     1  UNL1        0.1388
     18 O         -25.1430    3.9660   28.2430 O.2     1  UNL1       -0.2683
     19 C         -27.4380    3.0910   25.6450 C.2     1  UNL1        0.1065
     20 N         -28.0750    2.0890   25.0030 N.2     1  UNL1       -0.2081
     21 C         -27.5430    0.8490   25.0790 C.2     1  UNL1        0.2530
     22 O         -28.1930   -0.2080   24.4770 O.2     1  UNL1       -0.4558
     23 C         -29.4600    0.0050   23.8660 C.3     1  UNL1        0.2426
     24 C         -30.0650   -1.3770   23.5730 C.3     1  UNL1        0.2292
     25 O         -30.7290   -1.8780   24.7210 O.3     1  UNL1       -0.2162
     26 C         -26.3540    0.5760   25.7770 C.2     1  UNL1        0.1904
     27 F         -25.8600   -0.6810   25.7950 F       1  UNL1       -0.1995
     28 C         -26.5773    1.1825   29.3898 C.3     1  UNL1        0.0455
     29 O         -22.3887    1.3484   28.7674 O.2     1  UNL1       -0.2868
     30 C         -28.9908    0.2515   29.8693 C.2     1  UNL1        0.0391
     31 O         -30.3452    2.1923   30.3119 O.2     1  UNL1       -0.4550
     32 C         -28.0299    1.3605   29.9222 C.2     1  UNL1        0.0126
     33 C         -23.3321    0.0713   28.7782 C.3     1  UNL1        0.1456
     34 C         -27.6814    3.7285   30.7848 C.3     1  UNL1        0.0721
     35 C         -24.4605    1.1165   27.2187 C.3     1  UNL1        0.0829
     36 C         -22.4156    0.6270   28.5394 C.2     1  UNL1        0.2249
     37 C         -28.5913    2.5558   30.3041 C.2     1  UNL1        0.1195
     38 C         -30.3663    0.7663   30.1788 C.2     1  UNL1        0.1788
     39 C         -22.0380    2.0381   26.1904 C.3     1  UNL1        0.0018
     40 C         -23.3088    1.3789   26.6895 C.3     1  UNL1        0.0206
     41 N         -24.5311    0.3280   28.2755 N.3     1  UNL1       -0.2643
     42 C         -25.6232   -0.0589   29.0894 C.3     1  UNL1        0.0679
@<TRIPOS>BOND
     1     1    42    1
     2     2     7    1
     3     2     1    1
     4     3     2    2
     5     4     3    1
     6     4     5    2
     7     5     6    1
     8     6     7    2
     9     8     1    1
    10     8     9    1
    11     8    12    1
    12     9    10    1
    13    10    11    1
    14    12    11    1
    15    13    35    1
    16    14    13    1
    17    14    15    1
    18    15    18    2
    19    16    17    1
    20    16    15    1
    21    19    14    2
    22    20    21    2
    23    20    19    1
    24    21    26    1
    25    22    21    1
    26    23    22    1
    27    24    23    1
    28    24    25    1
    29    26    27    1
    30    26    13    2
    31    28    32    1
    32    30    32    1
    33    30    38    2
    34    32    37    2
    35    35    40    1
    36    35    41    1
    37    36    29    2
    38    36    33    1
    39    37    31    1
    40    37    34    1
    41    38    31    1
    42    39    40    1
    43    41    33    1
    44    41    42    1
    45    42    28    1
