@<TRIPOS>MOLECULE
outputs/IAG933/test6/raw/output_4886_IAG933_linker_design_.xyz
 40 44 0 0 0
SMALL
GASTEIGER

@<TRIPOS>ATOM
      1 C         -24.8550   -1.0120   30.1430 C.3     1  UNL1        0.0982
      2 C         -24.9730   -2.5050   29.7880 C.2     1  UNL1       -0.0064
      3 C         -23.9060   -3.1730   29.1460 C.2     1  UNL1       -0.0029
      4 C         -23.9890   -4.5490   28.8530 C.2     1  UNL1       -0.0003
      5 C         -25.1370   -5.2800   29.2050 C.2     1  UNL1       -0.0000
      6 C         -26.2320   -4.6110   29.7840 C.2     1  UNL1       -0.0003
      7 C         -26.1550   -3.2320   30.0650 C.2     1  UNL1       -0.0029
      8 C         -25.3870   -0.6790   31.5710 C.3     1  UNL1        0.0916
      9 C         -25.1890    0.7730   32.0280 C.3     1  UNL1        0.0206
     10 C         -25.3360    0.6840   33.5440 C.3     1  UNL1        0.0203
     11 C         -24.8290   -0.7150   33.9050 C.3     1  UNL1        0.0888
     12 N         -24.7580   -1.4810   32.6460 N.3     1  UNL1       -0.2178
     13 C         -25.6880    1.6140   26.4610 C.2     1  UNL1        0.0242
     14 C         -26.2500    2.9200   26.3950 C.2     1  UNL1        0.0730
     15 C         -25.6420    4.0930   27.1230 C.2     1  UNL1        0.2661
     16 N         -25.6140    5.2520   26.4490 N.am    1  UNL1       -0.1997
     17 C         -25.0260    6.4790   26.9630 C.3     1  UNL1        0.1388
     18 O         -25.1430    3.9660   28.2430 O.2     1  UNL1       -0.2683
     19 C         -27.4380    3.0910   25.6450 C.2     1  UNL1        0.1064
     20 N         -28.0750    2.0890   25.0030 N.2     1  UNL1       -0.2081
     21 C         -27.5430    0.8490   25.0790 C.2     1  UNL1        0.2530
     22 O         -28.1930   -0.2080   24.4770 O.2     1  UNL1       -0.4558
     23 C         -29.4600    0.0050   23.8660 C.3     1  UNL1        0.2426
     24 C         -30.0650   -1.3770   23.5730 C.3     1  UNL1        0.2292
     25 O         -30.7290   -1.8780   24.7210 O.3     1  UNL1       -0.2162
     26 C         -26.3540    0.5760   25.7770 C.2     1  UNL1        0.1896
     27 F         -25.8600   -0.6810   25.7950 F       1  UNL1       -0.1996
     28 N         -24.3432   -0.0072   29.3563 N.3     1  UNL1       -0.2412
     29 C         -22.2251    0.6154   29.0681 C.3     1  UNL1        0.2329
     30 C         -21.0481    1.6766   26.8954 C.3     1  UNL1        0.3457
     31 C         -24.9371   -0.1179   27.9643 C.3     1  UNL1        0.0868
     32 F         -19.9297    1.7912   27.6332 F       1  UNL1       -0.1949
     33 C         -23.4833    1.2186   29.8112 C.3     1  UNL1        0.2498
     34 F         -21.7441   -0.3528   29.9547 F       1  UNL1       -0.2282
     35 O         -24.3491    2.2672   29.8189 O.3     1  UNL1       -0.2015
     36 C         -22.1897    1.1868   27.7259 C.2     1  UNL1        0.0901
     37 C         -24.5105    1.0653   27.1652 C.3     1  UNL1        0.1011
     38 O         -21.4128    1.9700   25.6429 O.3     1  UNL1       -0.1348
     39 C         -23.2579    1.3604   26.8695 C.2     1  UNL1        0.1652
     40 O         -22.8309    1.8242   25.6031 O.2     1  UNL1       -0.3351
@<TRIPOS>BOND
     1     1     2    1
     2     2     7    1
     3     3     2    2
     4     4     3    1
     5     4     5    2
     6     5     6    1
     7     6     7    2
     8     8     1    1
     9     8     9    1
    10     8    12    1
    11     9    10    1
    12    10    11    1
    13    12    11    1
    14    14    13    1
    15    14    15    1
    16    15    18    2
    17    16    17    1
    18    16    15    1
    19    19    14    2
    20    20    21    2
    21    20    19    1
    22    21    26    1
    23    22    21    1
    24    23    22    1
    25    24    23    1
    26    24    25    1
    27    26    27    1
    28    26    13    2
    29    28    33    1
    30    28     1    1
    31    29    33    1
    32    29    34    1
    33    30    32    1
    34    30    36    1
    35    31    28    1
    36    33    35    1
    37    36    29    1
    38    37    13    1
    39    37    31    1
    40    38    30    1
    41    39    37    1
    42    39    36    2
    43    40    38    1
    44    40    39    1
