@<TRIPOS>MOLECULE
No_4887-gen_results/8p0m/2024-11-27-11-27-31/
 25 27 0 0 0
SMALL
GASTEIGER

@<TRIPOS>ATOM
      1 C         -28.0162   -0.8135   28.8779 C.ar    1  UNL1        0.0178
      2 C         -27.0636   -0.1189   28.6079 C.ar    1  UNL1        0.0769
      3 C         -25.7647   -0.3897   29.0360 C.ar    1  UNL1        0.0064
      4 C         -25.5296   -1.5302   29.9014 C.ar    1  UNL1        0.0010
      5 C         -26.6888   -2.2893   30.1810 C.ar    1  UNL1        0.0114
      6 C         -27.8727   -1.9508   29.7373 C.ar    1  UNL1        0.0579
      7 C         -24.5491    0.4100   28.7341 C.ar    1  UNL1        0.0048
      8 C         -23.3309    0.0437   29.0569 C.ar    1  UNL1        0.0567
      9 C         -23.1912   -1.2209   29.7412 C.ar    1  UNL1        0.0046
     10 C         -24.2188   -1.9602   30.2014 C.ar    1  UNL1        0.0002
     11 C         -22.0328    0.5695   28.7024 C.2     1  UNL1        0.2842
     12 N         -21.9728    1.7815   28.0847 N.am    1  UNL1       -0.0837
     13 O         -20.9264   -0.0329   28.8418 O.2     1  UNL1       -0.2667
     14 CL        -29.2144   -2.9712   30.3126 Cl      1  UNL1       -0.0822
     15 C         -27.1956    1.0716   27.6712 C.2     1  UNL1        0.3458
     16 O         -27.4260    0.8687   26.4905 O.2     1  UNL1       -0.2445
     17 O         -27.0135    2.2651   28.1543 O.3     1  UNL1       -0.4179
     18 C         -26.6712    3.3208   27.3932 C.2     1  UNL1        0.1831
     19 C         -27.0772    4.4110   27.5343 C.2     1  UNL1        0.0423
     20 C         -28.0723    4.8239   28.1825 C.ar    1  UNL1        0.0223
     21 C         -28.8043    4.0252   28.9437 C.ar    1  UNL1        0.0989
     22 N         -29.9117    4.5837   29.5523 N.ar    1  UNL1       -0.2423
     23 C         -30.4562    5.5003   29.2512 C.ar    1  UNL1        0.0989
     24 C         -29.8800    6.4933   28.3887 C.ar    1  UNL1        0.0207
     25 C         -28.6794    6.1662   27.7856 C.ar    1  UNL1        0.0032
@<TRIPOS>BOND
     1     8    11    1
     2    11    12   am
     3    11    13    2
     4     6    14    1
     5     2    15    1
     6    15    16    2
     7    15    17    1
     8    17    18    1
     9    18    19    2
    10    19    20    1
    11     1     2   ar
    12     2     3   ar
    13     4     5   ar
    14     5     6   ar
    15     6     1   ar
    16     3     4   ar
    17     4    10   ar
    18    10     9   ar
    19     9     8   ar
    20     8     7   ar
    21     7     3   ar
    22    20    21   ar
    23    21    22   ar
    24    22    23   ar
    25    23    24   ar
    26    24    25   ar
    27    25    20   ar
