@<TRIPOS>MOLECULE
outputs/IAG933/test6/raw/output_4888_IAG933_linker_design_.xyz
 47 51 0 0 0
SMALL
GASTEIGER

@<TRIPOS>ATOM
      1 C         -24.8550   -1.0120   30.1430 C.3     1  UNL1        0.0400
      2 C         -24.9730   -2.5050   29.7880 C.2     1  UNL1       -0.0211
      3 C         -23.9060   -3.1730   29.1460 C.2     1  UNL1       -0.0042
      4 C         -23.9890   -4.5490   28.8530 C.2     1  UNL1       -0.0003
      5 C         -25.1370   -5.2800   29.2050 C.2     1  UNL1       -0.0000
      6 C         -26.2320   -4.6110   29.7840 C.2     1  UNL1       -0.0003
      7 C         -26.1550   -3.2320   30.0650 C.2     1  UNL1       -0.0042
      8 C         -25.3870   -0.6790   31.5710 C.3     1  UNL1        0.0769
      9 C         -25.1890    0.7730   32.0280 C.3     1  UNL1        0.0192
     10 C         -25.3360    0.6840   33.5440 C.3     1  UNL1        0.0202
     11 C         -24.8290   -0.7150   33.9050 C.3     1  UNL1        0.0887
     12 N         -24.7580   -1.4810   32.6460 N.3     1  UNL1       -0.2191
     13 C         -25.6880    1.6140   26.4610 C.3     1  UNL1        0.1424
     14 C         -26.2500    2.9200   26.3950 C.2     1  UNL1        0.0709
     15 C         -25.6420    4.0930   27.1230 C.2     1  UNL1        0.2638
     16 N         -25.6140    5.2520   26.4490 N.am    1  UNL1       -0.2000
     17 C         -25.0260    6.4790   26.9630 C.3     1  UNL1        0.1388
     18 O         -25.1430    3.9660   28.2430 O.2     1  UNL1       -0.2686
     19 C         -27.4380    3.0910   25.6450 C.2     1  UNL1        0.1035
     20 N         -28.0750    2.0890   25.0030 N.2     1  UNL1       -0.2118
     21 C         -27.5430    0.8490   25.0790 C.2     1  UNL1        0.2356
     22 O         -28.1930   -0.2080   24.4770 O.2     1  UNL1       -0.4585
     23 C         -29.4600    0.0050   23.8660 C.3     1  UNL1        0.2423
     24 C         -30.0650   -1.3770   23.5730 C.3     1  UNL1        0.2292
     25 O         -30.7290   -1.8780   24.7210 O.3     1  UNL1       -0.2162
     26 C         -26.3540    0.5760   25.7770 C.3     1  UNL1        0.2559
     27 F         -25.8600   -0.6810   25.7950 F       1  UNL1       -0.2253
     28 C         -28.2408    5.0377   31.0679 C.3     1  UNL1        0.2311
     29 C         -24.6585    0.9459   28.7587 C.3     1  UNL1        0.0738
     30 C         -25.6775   -0.0693   29.1374 C.3     1  UNL1        0.0255
     31 C         -27.6176    2.7109   30.0188 C.2     1  UNL1       -0.0061
     32 C         -31.7180    2.9520   28.5956 C.3     1  UNL1        0.0911
     33 C         -27.1580    0.4300   28.9071 C.3     1  UNL1        0.0254
     34 N         -26.8563    5.1635   31.6928 N.3     1  UNL1       -0.0952
     35 N         -24.9110    1.6652   27.4616 N.3     1  UNL1       -0.2129
     36 C         -29.5922    5.1992   33.0750 C.3     1  UNL1        0.1762
     37 C         -31.6874    1.8032   27.5384 C.3     1  UNL1        0.0235
     38 C         -23.0808    1.1016   29.0941 C.3     1  UNL1        0.0174
     39 C         -21.9630    1.8359   26.9487 C.3     1  UNL1        0.0000
     40 C         -29.4779    1.7611   28.7232 C.3     1  UNL1        0.0915
     41 C         -29.9409    3.4794   30.2959 C.2     1  UNL1        0.0610
     42 C         -22.0949    0.7376   28.0002 C.3     1  UNL1        0.0014
     43 O         -29.4107    5.3723   31.8247 O.3     1  UNL1       -0.3323
     44 C         -30.4504    0.9137   27.8940 C.3     1  UNL1        0.0257
     45 C         -28.5739    3.6208   30.5067 C.2     1  UNL1        0.0368
     46 C         -28.0211    1.6128   29.1706 C.2     1  UNL1       -0.0266
     47 N         -30.3484    2.8288   29.1889 N.pl3   1  UNL1       -0.3049
@<TRIPOS>BOND
     1     1    30    1
     2     2     7    1
     3     2     1    1
     4     3     2    2
     5     4     3    1
     6     4     5    2
     7     5     6    1
     8     6     7    2
     9     8     1    1
    10     8     9    1
    11     8    12    1
    12     9    10    1
    13    10    11    1
    14    12    11    1
    15    13    35    1
    16    14    13    1
    17    14    15    1
    18    15    18    2
    19    16    17    1
    20    16    15    1
    21    19    14    2
    22    20    21    2
    23    20    19    1
    24    21    26    1
    25    22    21    1
    26    23    22    1
    27    24    23    1
    28    24    25    1
    29    26    27    1
    30    26    13    1
    31    28    34    1
    32    28    43    1
    33    29    38    1
    34    29    30    1
    35    30    33    1
    36    31    45    1
    37    32    47    1
    38    33    46    1
    39    35    29    1
    40    37    44    1
    41    37    32    1
    42    39    42    1
    43    40    44    1
    44    40    46    1
    45    40    47    1
    46    41    45    2
    47    42    38    1
    48    43    36    1
    49    45    28    1
    50    46    31    2
    51    47    41    1
