@<TRIPOS>MOLECULE
outputs/IAG933/test6/raw/output_4889_IAG933_linker_design_.xyz
 42 45 0 0 0
SMALL
GASTEIGER

@<TRIPOS>ATOM
      1 C         -24.8550   -1.0120   30.1430 C.3     1  UNL1        0.1138
      2 C         -24.9730   -2.5050   29.7880 C.2     1  UNL1       -0.0029
      3 C         -23.9060   -3.1730   29.1460 C.2     1  UNL1       -0.0026
      4 C         -23.9890   -4.5490   28.8530 C.2     1  UNL1       -0.0003
      5 C         -25.1370   -5.2800   29.2050 C.2     1  UNL1       -0.0000
      6 C         -26.2320   -4.6110   29.7840 C.2     1  UNL1       -0.0003
      7 C         -26.1550   -3.2320   30.0650 C.2     1  UNL1       -0.0026
      8 C         -25.3870   -0.6790   31.5710 C.3     1  UNL1        0.0951
      9 C         -25.1890    0.7730   32.0280 C.3     1  UNL1        0.0209
     10 C         -25.3360    0.6840   33.5440 C.3     1  UNL1        0.0203
     11 C         -24.8290   -0.7150   33.9050 C.3     1  UNL1        0.0888
     12 N         -24.7580   -1.4810   32.6460 N.3     1  UNL1       -0.2174
     13 C         -25.6880    1.6140   26.4610 C.3     1  UNL1        0.0811
     14 C         -26.2500    2.9200   26.3950 C.2     1  UNL1        0.0554
     15 C         -25.6420    4.0930   27.1230 C.2     1  UNL1        0.2625
     16 N         -25.6140    5.2520   26.4490 N.am    1  UNL1       -0.2000
     17 C         -25.0260    6.4790   26.9630 C.3     1  UNL1        0.1388
     18 O         -25.1430    3.9660   28.2430 O.2     1  UNL1       -0.2687
     19 C         -27.4380    3.0910   25.6450 C.2     1  UNL1        0.1022
     20 N         -28.0750    2.0890   25.0030 N.2     1  UNL1       -0.2119
     21 C         -27.5430    0.8490   25.0790 C.2     1  UNL1        0.2341
     22 O         -28.1930   -0.2080   24.4770 O.2     1  UNL1       -0.4585
     23 C         -29.4600    0.0050   23.8660 C.3     1  UNL1        0.2423
     24 C         -30.0650   -1.3770   23.5730 C.3     1  UNL1        0.2292
     25 O         -30.7290   -1.8780   24.7210 O.3     1  UNL1       -0.2162
     26 C         -26.3540    0.5760   25.7770 C.3     1  UNL1        0.2405
     27 F         -25.8600   -0.6810   25.7950 F       1  UNL1       -0.2269
     28 C         -21.3838    1.1671   27.9264 C.2     1  UNL1        0.1801
     29 C         -23.7956    1.6492   26.6612 C.3     1  UNL1        0.1126
     30 C         -22.5902   -0.2525   29.3046 C.2     1  UNL1        0.1210
     31 C         -22.5983    0.6170   28.2498 C.2     1  UNL1        0.0383
     32 O         -21.3608    2.0556   26.7620 O.3     1  UNL1       -0.4212
     33 N         -22.3192   -0.4072   30.4064 N.2     1  UNL1       -0.1466
     34 C         -23.8239    1.0070   27.6338 C.3     1  UNL1        0.0578
     35 C         -24.6242    0.6311   28.4864 C.3     1  UNL1        0.0988
     36 C         -27.8547   -0.5434   28.6466 C.3     1  UNL1        0.2665
     37 C         -26.8539    0.4990   29.0927 C.2     1  UNL1        0.2595
     38 O         -27.2770    1.6827   29.1995 O.2     1  UNL1       -0.2720
     39 C         -22.6081    2.3074   26.0761 C.2     1  UNL1        0.3218
     40 O         -28.7052    0.1065   27.8219 O.3     1  UNL1       -0.2099
     41 O         -22.4546    2.8309   24.9237 O.2     1  UNL1       -0.2497
     42 N         -25.5002   -0.0361   29.1914 N.am    1  UNL1       -0.2735
@<TRIPOS>BOND
     1     1    42    1
     2     2     7    1
     3     2     1    1
     4     3     2    2
     5     4     3    1
     6     4     5    2
     7     5     6    1
     8     6     7    2
     9     8     1    1
    10     8     9    1
    11     8    12    1
    12     9    10    1
    13    10    11    1
    14    12    11    1
    15    13    14    1
    16    13    29    1
    17    14    15    1
    18    15    18    2
    19    16    17    1
    20    16    15    1
    21    19    14    2
    22    20    21    2
    23    20    19    1
    24    21    26    1
    25    22    21    1
    26    23    22    1
    27    24    23    1
    28    24    25    1
    29    26    27    1
    30    26    13    1
    31    28    31    2
    32    29    39    1
    33    29    34    1
    34    30    33    2
    35    31    30    1
    36    32    28    1
    37    34    31    1
    38    34    35    1
    39    35    42    1
    40    36    37    1
    41    37    42   am
    42    37    38    2
    43    39    32    1
    44    40    36    1
    45    41    39    2
