@<TRIPOS>MOLECULE
No_4890-gen_results/8p0m/2024-11-27-11-27-31/
 16 17 0 0 0
SMALL
GASTEIGER

@<TRIPOS>ATOM
      1 C         -28.0162   -0.8135   28.8779 C.ar    1  UNL1        0.0293
      2 C         -27.0636   -0.1190   28.6079 C.ar    1  UNL1       -0.0012
      3 C         -25.7902   -0.2340   29.1297 C.ar    1  UNL1       -0.0109
      4 C         -25.5192   -1.2814   30.1157 C.ar    1  UNL1       -0.0012
      5 C         -26.6422   -2.0927   30.4241 C.ar    1  UNL1        0.0293
      6 C         -27.8262   -1.8900   29.8536 C.ar    1  UNL1        0.1401
      7 F         -28.8165   -2.7089   30.1810 F       1  UNL1       -0.2042
      8 C         -24.5856    0.6149   28.8714 C.3     1  UNL1        0.1093
      9 C         -24.5413    1.4105   27.8267 C.ar    1  UNL1       -0.0110
     10 C         -25.0717    2.1956   27.3313 C.ar    1  UNL1       -0.0035
     11 C         -24.6789    3.0304   26.1503 C.ar    1  UNL1       -0.0003
     12 C         -23.4737    2.7301   25.5858 C.ar    1  UNL1       -0.0000
     13 C         -22.6322    1.8563   26.1654 C.ar    1  UNL1       -0.0003
     14 C         -22.9845    1.1248   27.3130 C.ar    1  UNL1       -0.0035
     15 C         -23.5892    0.6127   29.9480 C.2     1  UNL1        0.2157
     16 O         -22.4965    0.0994   29.7788 O.2     1  UNL1       -0.2876
@<TRIPOS>BOND
     1     6     7    1
     2     3     8    1
     3     8     9    1
     4     8    15    1
     5    15    16    2
     6     1     2   ar
     7     2     3   ar
     8     3     4   ar
     9     4     5   ar
    10     5     6   ar
    11     6     1   ar
    12     9    10   ar
    13    10    11   ar
    14    11    12   ar
    15    12    13   ar
    16    13    14   ar
    17    14     9   ar
