@<TRIPOS>MOLECULE
No_4891-gen_results/8p0m/2024-11-27-11-27-31/
 26 29 0 0 0
SMALL
GASTEIGER

@<TRIPOS>ATOM
      1 C         -28.0162   -0.8135   28.8779 C.ar    1  UNL1        0.0375
      2 C         -27.0636   -0.1190   28.6079 C.ar    1  UNL1        0.0031
      3 C         -25.7647   -0.3897   29.0360 C.ar    1  UNL1        0.0002
      4 C         -24.5516    0.4058   28.7646 C.ar    1  UNL1        0.0002
      5 C         -23.2300    0.1178   29.2575 C.ar    1  UNL1        0.0000
      6 C         -23.0942   -1.1309   29.8730 C.ar    1  UNL1        0.0000
      7 C         -27.7980   -1.9341   29.8560 C.ar    1  UNL1        0.1453
      8 C         -26.5420   -2.3269   30.2580 C.ar    1  UNL1        0.0375
      9 C         -25.4514   -1.5516   29.9079 C.ar    1  UNL1        0.0030
     10 C         -24.1562   -1.9097   30.2809 C.ar    1  UNL1        0.0001
     11 C         -24.6450    1.6582   27.9464 C.ar    1  UNL1        0.0064
     12 C         -24.8958    2.7559   28.5615 C.ar    1  UNL1        0.0798
     13 C         -25.1728    3.9344   27.8439 C.ar    1  UNL1        0.0066
     14 C         -23.9675    1.6906   26.7066 C.ar    1  UNL1        0.0002
     15 C         -24.1372    2.7505   26.0218 C.ar    1  UNL1        0.0000
     16 C         -24.6075    3.9868   26.5068 C.ar    1  UNL1        0.0002
     17 C         -25.4599    2.8518   30.0006 C.2     1  UNL1        0.3878
     18 O         -26.4052    2.3610   30.3179 O.co2   1  UNL1       -0.2406
     19 O         -24.8994    3.8017   30.8066 O.co2   1  UNL1       -0.2406
     20 O         -28.9015   -2.6705   30.2044 O.3     1  UNL1       -0.4535
     21 C         -29.1863   -2.8785   31.5469 C.ar    1  UNL1        0.1453
     22 C         -30.5812   -2.8037   31.8332 C.ar    1  UNL1        0.0375
     23 C         -30.9248   -2.9956   33.0367 C.ar    1  UNL1        0.0031
     24 C         -29.9850   -3.2943   34.1241 C.ar    1  UNL1        0.0002
     25 C         -28.6753   -3.3684   33.7698 C.ar    1  UNL1        0.0031
     26 C         -28.2521   -3.1578   32.5096 C.ar    1  UNL1        0.0375
@<TRIPOS>BOND
     1     4    11    1
     2    12    17    1
     3    17    18   ar
     4    17    19   ar
     5     7    20    1
     6    20    21    1
     7    21    22   ar
     8    22    23   ar
     9    23    24   ar
    10    24    25   ar
    11    25    26   ar
    12    26    21   ar
    13     1     2   ar
    14     2     3   ar
    15     9     8   ar
    16     8     7   ar
    17     7     1   ar
    18    11    12   ar
    19    12    13   ar
    20    13    16   ar
    21    16    15   ar
    22    15    14   ar
    23    14    11   ar
    24     3     4   ar
    25     4     5   ar
    26     5     6   ar
    27     6    10   ar
    28    10     9   ar
    29     9     3   ar
