@<TRIPOS>MOLECULE
outputs/IAG933/test6/raw/output_4893_IAG933_linker_design_.xyz
 48 52 0 0 0
SMALL
GASTEIGER

@<TRIPOS>ATOM
      1 C         -24.8550   -1.0120   30.1430 C.3     1  UNL1        0.0387
      2 C         -24.9730   -2.5050   29.7880 C.2     1  UNL1       -0.0211
      3 C         -23.9060   -3.1730   29.1460 C.2     1  UNL1       -0.0042
      4 C         -23.9890   -4.5490   28.8530 C.2     1  UNL1       -0.0003
      5 C         -25.1370   -5.2800   29.2050 C.2     1  UNL1       -0.0000
      6 C         -26.2320   -4.6110   29.7840 C.2     1  UNL1       -0.0003
      7 C         -26.1550   -3.2320   30.0650 C.2     1  UNL1       -0.0042
      8 C         -25.3870   -0.6790   31.5710 C.3     1  UNL1        0.0768
      9 C         -25.1890    0.7730   32.0280 C.3     1  UNL1        0.0192
     10 C         -25.3360    0.6840   33.5440 C.3     1  UNL1        0.0202
     11 C         -24.8290   -0.7150   33.9050 C.3     1  UNL1        0.0887
     12 N         -24.7580   -1.4810   32.6460 N.3     1  UNL1       -0.2191
     13 C         -25.6880    1.6140   26.4610 C.2     1  UNL1        0.0168
     14 C         -26.2500    2.9200   26.3950 C.2     1  UNL1        0.0726
     15 C         -25.6420    4.0930   27.1230 C.2     1  UNL1        0.2661
     16 N         -25.6140    5.2520   26.4490 N.am    1  UNL1       -0.1997
     17 C         -25.0260    6.4790   26.9630 C.3     1  UNL1        0.1388
     18 O         -25.1430    3.9660   28.2430 O.2     1  UNL1       -0.2683
     19 C         -27.4380    3.0910   25.6450 C.2     1  UNL1        0.1064
     20 N         -28.0750    2.0890   25.0030 N.2     1  UNL1       -0.2081
     21 C         -27.5430    0.8490   25.0790 C.2     1  UNL1        0.2530
     22 O         -28.1930   -0.2080   24.4770 O.2     1  UNL1       -0.4558
     23 C         -29.4600    0.0050   23.8660 C.3     1  UNL1        0.2426
     24 C         -30.0650   -1.3770   23.5730 C.3     1  UNL1        0.2292
     25 O         -30.7290   -1.8780   24.7210 O.3     1  UNL1       -0.2162
     26 C         -26.3540    0.5760   25.7770 C.2     1  UNL1        0.1891
     27 F         -25.8600   -0.6810   25.7950 F       1  UNL1       -0.1996
     28 C         -31.3427    1.9740   27.0205 C.3     1  UNL1        0.2084
     29 C         -22.2489    0.3709   28.9590 C.3     1  UNL1        0.0366
     30 F         -30.3011    4.6866   29.0438 F       1  UNL1       -0.2290
     31 C         -27.2197   -0.3739   28.5666 C.3     1  UNL1        0.0268
     32 C         -23.2350    1.4698   26.9189 C.3     1  UNL1        0.1164
     33 C         -25.7079   -0.1852   29.0924 C.3     1  UNL1        0.0101
     34 F         -28.7694    3.4374   30.8188 F       1  UNL1       -0.2044
     35 C         -29.5809    0.5646   28.0268 C.2     1  UNL1       -0.0061
     36 C         -24.4924    1.2854   27.3213 C.3     1  UNL1        0.0427
     37 C         -28.4680    0.4844   28.8921 C.2     1  UNL1       -0.0202
     38 C         -24.6793    0.9059   28.7561 C.3     1  UNL1        0.0062
     39 CL        -22.7575    2.4352   25.4549 Cl      1  UNL1       -0.1118
     40 C         -31.1948    3.6758   29.5065 C.3     1  UNL1        0.2217
     41 C         -23.3988    1.0485   29.7206 C.3     1  UNL1        0.0032
     42 C         -30.2554    2.5422   29.2110 C.2     1  UNL1        0.0389
     43 O         -31.8425    0.7635   26.5116 O.3     1  UNL1       -0.2152
     44 C         -29.1459    2.4157   30.0334 C.2     1  UNL1        0.1382
     45 F         -20.9376    1.8562   27.4468 F       1  UNL1       -0.2360
     46 C         -30.3863    1.6819   28.1431 C.2     1  UNL1        0.0111
     47 C         -28.3832    1.2734   30.0054 C.2     1  UNL1        0.0251
     48 C         -21.9735    0.9901   27.4930 C.3     1  UNL1        0.1762
@<TRIPOS>BOND
     1     1    33    1
     2     2     7    1
     3     2     1    1
     4     3     2    2
     5     4     3    1
     6     4     5    2
     7     5     6    1
     8     6     7    2
     9     8     1    1
    10     8     9    1
    11     8    12    1
    12     9    10    1
    13    10    11    1
    14    12    11    1
    15    14    13    1
    16    14    15    1
    17    15    18    2
    18    16    17    1
    19    16    15    1
    20    19    14    2
    21    20    21    2
    22    20    19    1
    23    21    26    1
    24    22    21    1
    25    23    22    1
    26    24    23    1
    27    24    25    1
    28    26    27    1
    29    26    13    2
    30    28    46    1
    31    29    41    1
    32    30    40    1
    33    31    37    1
    34    32    39    1
    35    32    36    1
    36    32    48    1
    37    33    31    1
    38    35    46    2
    39    35    37    1
    40    36    13    1
    41    36    38    1
    42    37    47    2
    43    38    33    1
    44    38    41    1
    45    42    40    1
    46    42    44    2
    47    43    28    1
    48    44    34    1
    49    46    42    1
    50    47    44    1
    51    48    45    1
    52    48    29    1
