@<TRIPOS>MOLECULE
outputs/IAG933/test6/raw/output_4896_IAG933_linker_design_.xyz
 47 51 0 0 0
SMALL
GASTEIGER

@<TRIPOS>ATOM
      1 C         -24.8550   -1.0120   30.1430 C.3     1  UNL1        0.0718
      2 C         -24.9730   -2.5050   29.7880 C.2     1  UNL1       -0.0184
      3 C         -23.9060   -3.1730   29.1460 C.2     1  UNL1       -0.0041
      4 C         -23.9890   -4.5490   28.8530 C.2     1  UNL1       -0.0003
      5 C         -25.1370   -5.2800   29.2050 C.2     1  UNL1       -0.0000
      6 C         -26.2320   -4.6110   29.7840 C.2     1  UNL1       -0.0003
      7 C         -26.1550   -3.2320   30.0650 C.2     1  UNL1       -0.0041
      8 C         -25.3870   -0.6790   31.5710 C.3     1  UNL1        0.0796
      9 C         -25.1890    0.7730   32.0280 C.3     1  UNL1        0.0193
     10 C         -25.3360    0.6840   33.5440 C.3     1  UNL1        0.0202
     11 C         -24.8290   -0.7150   33.9050 C.3     1  UNL1        0.0887
     12 N         -24.7580   -1.4810   32.6460 N.3     1  UNL1       -0.2190
     13 C         -25.6880    1.6140   26.4610 C.2     1  UNL1        0.0409
     14 C         -26.2500    2.9200   26.3950 C.2     1  UNL1        0.0766
     15 C         -25.6420    4.0930   27.1230 C.2     1  UNL1        0.2664
     16 N         -25.6140    5.2520   26.4490 N.am    1  UNL1       -0.1997
     17 C         -25.0260    6.4790   26.9630 C.3     1  UNL1        0.1388
     18 O         -25.1430    3.9660   28.2430 O.2     1  UNL1       -0.2683
     19 C         -27.4380    3.0910   25.6450 C.2     1  UNL1        0.1067
     20 N         -28.0750    2.0890   25.0030 N.2     1  UNL1       -0.2081
     21 C         -27.5430    0.8490   25.0790 C.2     1  UNL1        0.2533
     22 O         -28.1930   -0.2080   24.4770 O.2     1  UNL1       -0.4558
     23 C         -29.4600    0.0050   23.8660 C.3     1  UNL1        0.2426
     24 C         -30.0650   -1.3770   23.5730 C.3     1  UNL1        0.2292
     25 O         -30.7290   -1.8780   24.7210 O.3     1  UNL1       -0.2162
     26 C         -26.3540    0.5760   25.7770 C.2     1  UNL1        0.1931
     27 F         -25.8600   -0.6810   25.7950 F       1  UNL1       -0.1992
     28 C         -21.8992    2.0430   27.1235 C.2     1  UNL1        0.0412
     29 N         -27.5253    0.4101   28.1801 N.3     1  UNL1       -0.0776
     30 C         -25.1299   -0.2482   28.7488 C.3     1  UNL1        0.1669
     31 C         -21.8259    1.5994   28.4312 C.2     1  UNL1        0.0030
     32 O         -29.6917   -0.8235   29.0390 O.3     1  UNL1       -0.2184
     33 C         -28.6454    5.0123   29.6284 C.2     1  UNL1        0.0989
     34 C         -23.0626    1.9457   26.3959 C.2     1  UNL1        0.1887
     35 C         -27.6140    2.8880   29.9404 C.2     1  UNL1        0.0004
     36 C         -28.6602    1.0239   28.7508 C.3     1  UNL1        0.1595
     37 O         -22.8136    2.3593   25.0857 O.2     1  UNL1       -0.2920
     38 F         -23.4071    1.5675   24.4061 F       1  UNL1        0.0138
     39 C         -24.1433    0.7766   28.3014 C.2     1  UNL1        0.0101
     40 C         -29.6924    3.1347   28.7065 C.2     1  UNL1        0.0961
     41 C         -27.6097    4.2486   30.1473 C.2     1  UNL1        0.0204
     42 C         -24.2977    1.4487   27.0514 C.2     1  UNL1        0.0391
     43 O         -26.5336   -0.0179   28.9010 O.3     1  UNL1       -0.2636
     44 C         -29.7030    0.4037   29.6871 C.3     1  UNL1        0.2065
     45 N         -29.6591    4.4773   28.9352 N.2     1  UNL1       -0.2426
     46 C         -28.6088    2.3918   29.1372 C.2     1  UNL1        0.0178
     47 C         -22.9422    1.0078   29.0274 C.2     1  UNL1       -0.0017
@<TRIPOS>BOND
     1     1    30    1
     2     2     7    1
     3     2     1    1
     4     3     2    2
     5     4     3    1
     6     4     5    2
     7     5     6    1
     8     6     7    2
     9     8     1    1
    10     8     9    1
    11     8    12    1
    12     9    10    1
    13    10    11    1
    14    12    11    1
    15    13    42    1
    16    14    13    1
    17    14    15    1
    18    15    18    2
    19    16    17    1
    20    16    15    1
    21    19    14    2
    22    20    21    2
    23    20    19    1
    24    21    26    1
    25    22    21    1
    26    23    22    1
    27    24    23    1
    28    24    25    1
    29    26    27    1
    30    26    13    2
    31    28    31    1
    32    29    36    1
    33    29    43    1
    34    30    43    1
    35    31    47    2
    36    32    44    1
    37    33    41    1
    38    34    42    1
    39    34    28    2
    40    35    41    2
    41    36    46    1
    42    36    44    1
    43    37    34    1
    44    38    37    1
    45    39    30    1
    46    39    47    1
    47    40    45    1
    48    40    46    2
    49    42    39    2
    50    45    33    2
    51    46    35    1
