@<TRIPOS>MOLECULE
No_4897-gen_results/8p0m/2024-11-27-11-27-31/
 17 18 0 0 0
SMALL
GASTEIGER

@<TRIPOS>ATOM
      1 C         -28.0162   -0.8135   28.8779 C.ar    1  UNL1        0.0369
      2 C         -28.4690   -0.7850   29.8287 C.ar    1  UNL1        0.0031
      3 C         -26.5455   -0.8762   28.8500 C.ar    1  UNL1        0.1389
      4 C         -25.8041   -1.0324   30.0571 C.ar    1  UNL1        0.0369
      5 C         -26.5373   -1.0386   31.2171 C.ar    1  UNL1        0.0031
      6 C         -27.8929   -0.9601   31.1743 C.ar    1  UNL1        0.0002
      7 O         -25.8001   -0.8259   27.7108 O.3     1  UNL1       -0.4744
      8 C         -25.7838    0.3630   27.0424 C.3     1  UNL1        0.1921
      9 C         -24.5590    0.8791   26.9823 C.2     1  UNL1        0.0169
     10 C         -24.2281    1.8214   27.5279 C.2     1  UNL1       -0.0013
     11 C         -24.9648    2.5652   28.5640 C.2     1  UNL1       -0.0048
     12 C         -26.2286    2.7626   28.1675 C.2     1  UNL1       -0.0257
     13 C         -26.9123    1.2228   26.9202 C.3     1  UNL1        0.0704
     14 C         -27.1667    2.2828   27.7124 C.3     1  UNL1        0.0343
     15 C         -27.8118    0.6850   25.8903 C.2     1  UNL1       -0.0267
     16 C         -29.1779    0.9694   25.8723 C.2     1  UNL1       -0.0302
     17 C         -29.9701    0.5279   24.9050 C.3     1  UNL1        0.0303
@<TRIPOS>BOND
     1     3     7    1
     2     7     8    1
     3     8     9    1
     4     9    10    2
     5    10    11    1
     6    11    12    2
     7     8    13    1
     8    12    14    1
     9    13    14    1
    10    13    15    1
    11    15    16    2
    12    16    17    1
    13     1     2   ar
    14     2     6   ar
    15     6     5   ar
    16     5     4   ar
    17     4     3   ar
    18     3     1   ar
