@<TRIPOS>MOLECULE
outputs/IAG933/test6/raw/output_49_IAG933_linker_design_.xyz
 40 43 0 0 0
SMALL
GASTEIGER

@<TRIPOS>ATOM
      1 C         -24.8550   -1.0120   30.1430 C.3     1  UNL1        0.1141
      2 C         -24.9730   -2.5050   29.7880 C.2     1  UNL1       -0.0029
      3 C         -23.9060   -3.1730   29.1460 C.2     1  UNL1       -0.0026
      4 C         -23.9890   -4.5490   28.8530 C.2     1  UNL1       -0.0003
      5 C         -25.1370   -5.2800   29.2050 C.2     1  UNL1       -0.0000
      6 C         -26.2320   -4.6110   29.7840 C.2     1  UNL1       -0.0003
      7 C         -26.1550   -3.2320   30.0650 C.2     1  UNL1       -0.0026
      8 C         -25.3870   -0.6790   31.5710 C.3     1  UNL1        0.0951
      9 C         -25.1890    0.7730   32.0280 C.3     1  UNL1        0.0209
     10 C         -25.3360    0.6840   33.5440 C.3     1  UNL1        0.0203
     11 C         -24.8290   -0.7150   33.9050 C.3     1  UNL1        0.0888
     12 N         -24.7580   -1.4810   32.6460 N.3     1  UNL1       -0.2174
     13 C         -25.6880    1.6140   26.4610 C.3     1  UNL1        0.0785
     14 C         -26.2500    2.9200   26.3950 C.2     1  UNL1        0.0551
     15 C         -25.6420    4.0930   27.1230 C.2     1  UNL1        0.2624
     16 N         -25.6140    5.2520   26.4490 N.am    1  UNL1       -0.2000
     17 C         -25.0260    6.4790   26.9630 C.3     1  UNL1        0.1388
     18 O         -25.1430    3.9660   28.2430 O.2     1  UNL1       -0.2687
     19 C         -27.4380    3.0910   25.6450 C.2     1  UNL1        0.1021
     20 N         -28.0750    2.0890   25.0030 N.2     1  UNL1       -0.2119
     21 C         -27.5430    0.8490   25.0790 C.2     1  UNL1        0.2341
     22 O         -28.1930   -0.2080   24.4770 O.2     1  UNL1       -0.4585
     23 C         -29.4600    0.0050   23.8660 C.3     1  UNL1        0.2423
     24 C         -30.0650   -1.3770   23.5730 C.3     1  UNL1        0.2292
     25 O         -30.7290   -1.8780   24.7210 O.3     1  UNL1       -0.2162
     26 C         -26.3540    0.5760   25.7770 C.3     1  UNL1        0.2403
     27 F         -25.8600   -0.6810   25.7950 F       1  UNL1       -0.2269
     28 N         -23.9848   -0.0360   29.6577 N.am    1  UNL1       -0.2702
     29 O         -22.7410    1.6939   28.4618 O.3     1  UNL1       -0.3424
     30 C         -23.3993    1.5632   25.6220 C.3     1  UNL1        0.3217
     31 C         -21.5871    0.9037   28.1236 C.3     1  UNL1        0.1666
     32 C         -22.6244   -0.0003   30.2766 C.3     1  UNL1        0.1187
     33 O         -24.9522   -0.8310   27.6738 O.2     1  UNL1       -0.2722
     34 C         -20.5704   -0.2416   28.4034 C.2     1  UNL1       -0.0050
     35 C         -24.3674    1.5207   26.6553 C.3     1  UNL1        0.1103
     36 F         -22.5960    2.6566   25.5917 F       1  UNL1       -0.1983
     37 F         -23.4246    1.0268   24.5018 F       1  UNL1       -0.1983
     38 C         -24.4241   -0.0844   28.5564 C.2     1  UNL1        0.2535
     39 C         -24.0635    1.2338   27.9968 C.3     1  UNL1        0.1972
     40 C         -21.3664   -0.0968   29.0997 C.2     1  UNL1        0.0049
@<TRIPOS>BOND
     1     1     2    1
     2     2     7    1
     3     3     2    2
     4     4     3    1
     5     4     5    2
     6     5     6    1
     7     6     7    2
     8     8     1    1
     9     8     9    1
    10     8    12    1
    11     9    10    1
    12    10    11    1
    13    12    11    1
    14    13    35    1
    15    14    13    1
    16    14    15    1
    17    15    18    2
    18    16    17    1
    19    16    15    1
    20    19    14    2
    21    20    21    2
    22    20    19    1
    23    21    26    1
    24    22    21    1
    25    23    22    1
    26    24    23    1
    27    24    25    1
    28    26    27    1
    29    26    13    1
    30    28     1    1
    31    28    32    1
    32    31    29    1
    33    31    40    1
    34    33    38    2
    35    34    40    2
    36    35    30    1
    37    36    30    1
    38    37    30    1
    39    38    28   am
    40    39    35    1
    41    39    29    1
    42    39    38    1
    43    40    32    1
