@<TRIPOS>MOLECULE
outputs/IAG933/test6/raw/output_490_IAG933_linker_design_.xyz
 38 41 0 0 0
SMALL
GASTEIGER

@<TRIPOS>ATOM
      1 C         -24.8550   -1.0120   30.1430 C.3     1  UNL1        0.1017
      2 C         -24.9730   -2.5050   29.7880 C.2     1  UNL1       -0.0138
      3 C         -23.9060   -3.1730   29.1460 C.2     1  UNL1       -0.0038
      4 C         -23.9890   -4.5490   28.8530 C.2     1  UNL1       -0.0003
      5 C         -25.1370   -5.2800   29.2050 C.2     1  UNL1       -0.0000
      6 C         -26.2320   -4.6110   29.7840 C.2     1  UNL1       -0.0003
      7 C         -26.1550   -3.2320   30.0650 C.2     1  UNL1       -0.0038
      8 C         -25.3870   -0.6790   31.5710 C.3     1  UNL1        0.0842
      9 C         -25.1890    0.7730   32.0280 C.3     1  UNL1        0.0196
     10 C         -25.3360    0.6840   33.5440 C.3     1  UNL1        0.0203
     11 C         -24.8290   -0.7150   33.9050 C.3     1  UNL1        0.0887
     12 N         -24.7580   -1.4810   32.6460 N.3     1  UNL1       -0.2187
     13 C         -25.6880    1.6140   26.4610 C.2     1  UNL1        0.0558
     14 C         -26.2500    2.9200   26.3950 C.2     1  UNL1        0.0779
     15 C         -25.6420    4.0930   27.1230 C.2     1  UNL1        0.2665
     16 N         -25.6140    5.2520   26.4490 N.am    1  UNL1       -0.1997
     17 C         -25.0260    6.4790   26.9630 C.3     1  UNL1        0.1388
     18 O         -25.1430    3.9660   28.2430 O.2     1  UNL1       -0.2683
     19 C         -27.4380    3.0910   25.6450 C.2     1  UNL1        0.1068
     20 N         -28.0750    2.0890   25.0030 N.2     1  UNL1       -0.2081
     21 C         -27.5430    0.8490   25.0790 C.2     1  UNL1        0.2533
     22 O         -28.1930   -0.2080   24.4770 O.2     1  UNL1       -0.4558
     23 C         -29.4600    0.0050   23.8660 C.3     1  UNL1        0.2426
     24 C         -30.0650   -1.3770   23.5730 C.3     1  UNL1        0.2292
     25 O         -30.7290   -1.8780   24.7210 O.3     1  UNL1       -0.2162
     26 C         -26.3540    0.5760   25.7770 C.2     1  UNL1        0.1944
     27 F         -25.8600   -0.6810   25.7950 F       1  UNL1       -0.1992
     28 O         -26.5402   -0.3602   28.7217 O.2     1  UNL1       -0.2893
     29 F         -20.4301    1.5527   27.7301 F       1  UNL1       -0.2011
     30 N         -23.5253    2.1264   26.4747 N.pl3   1  UNL1       -0.1323
     31 C         -22.4436    2.0563   26.9306 C.2     1  UNL1        0.1302
     32 C         -25.4297   -0.2403   29.0433 C.2     1  UNL1        0.1968
     33 N         -23.3019    0.0652   28.8034 N.2     1  UNL1       -0.2372
     34 F         -23.7815    2.8266   25.4165 F       1  UNL1       -0.1035
     35 C         -21.7744    1.3152   27.8106 C.2     1  UNL1        0.1765
     36 C         -24.4090    0.5155   28.2652 C.2     1  UNL1        0.1324
     37 C         -24.5153    1.3257   27.1512 C.2     1  UNL1        0.1060
     38 C         -22.2388    0.4081   28.6510 C.2     1  UNL1        0.1299
@<TRIPOS>BOND
     1     1    32    1
     2     2     7    1
     3     2     1    1
     4     3     2    2
     5     4     3    1
     6     4     5    2
     7     5     6    1
     8     6     7    2
     9     8     1    1
    10     8     9    1
    11     8    12    1
    12     9    10    1
    13    10    11    1
    14    12    11    1
    15    13    37    1
    16    14    13    1
    17    14    15    1
    18    15    18    2
    19    16    17    1
    20    16    15    1
    21    19    14    2
    22    20    21    2
    23    20    19    1
    24    21    26    1
    25    22    21    1
    26    23    22    1
    27    24    23    1
    28    24    25    1
    29    26    27    1
    30    26    13    2
    31    28    32    2
    32    29    35    1
    33    30    31    1
    34    30    37    1
    35    31    35    2
    36    34    30    1
    37    35    38    1
    38    36    33    1
    39    36    32    1
    40    37    36    2
    41    38    33    2
