@<TRIPOS>MOLECULE
outputs/IAG933/test6/raw/output_4902_IAG933_linker_design_.xyz
 41 45 0 0 0
SMALL
GASTEIGER

@<TRIPOS>ATOM
      1 C         -24.8550   -1.0120   30.1430 C.3     1  UNL1        0.1194
      2 C         -24.9730   -2.5050   29.7880 C.2     1  UNL1       -0.0027
      3 C         -23.9060   -3.1730   29.1460 C.2     1  UNL1       -0.0026
      4 C         -23.9890   -4.5490   28.8530 C.2     1  UNL1       -0.0003
      5 C         -25.1370   -5.2800   29.2050 C.2     1  UNL1       -0.0000
      6 C         -26.2320   -4.6110   29.7840 C.2     1  UNL1       -0.0003
      7 C         -26.1550   -3.2320   30.0650 C.2     1  UNL1       -0.0026
      8 C         -25.3870   -0.6790   31.5710 C.3     1  UNL1        0.0953
      9 C         -25.1890    0.7730   32.0280 C.3     1  UNL1        0.0209
     10 C         -25.3360    0.6840   33.5440 C.3     1  UNL1        0.0203
     11 C         -24.8290   -0.7150   33.9050 C.3     1  UNL1        0.0888
     12 N         -24.7580   -1.4810   32.6460 N.3     1  UNL1       -0.2174
     13 C         -25.6880    1.6140   26.4610 C.3     1  UNL1        0.1512
     14 C         -26.2500    2.9200   26.3950 C.2     1  UNL1        0.0735
     15 C         -25.6420    4.0930   27.1230 C.2     1  UNL1        0.2640
     16 N         -25.6140    5.2520   26.4490 N.am    1  UNL1       -0.1999
     17 C         -25.0260    6.4790   26.9630 C.3     1  UNL1        0.1388
     18 O         -25.1430    3.9660   28.2430 O.2     1  UNL1       -0.2686
     19 C         -27.4380    3.0910   25.6450 C.2     1  UNL1        0.1038
     20 N         -28.0750    2.0890   25.0030 N.2     1  UNL1       -0.2118
     21 C         -27.5430    0.8490   25.0790 C.2     1  UNL1        0.2359
     22 O         -28.1930   -0.2080   24.4770 O.2     1  UNL1       -0.4585
     23 C         -29.4600    0.0050   23.8660 C.3     1  UNL1        0.2423
     24 C         -30.0650   -1.3770   23.5730 C.3     1  UNL1        0.2292
     25 O         -30.7290   -1.8780   24.7210 O.3     1  UNL1       -0.2162
     26 C         -26.3540    0.5760   25.7770 C.3     1  UNL1        0.2585
     27 F         -25.8600   -0.6810   25.7950 F       1  UNL1       -0.2250
     28 N         -22.4551    0.1175   29.2722 N.2     1  UNL1       -0.0343
     29 N         -24.8484    1.0685   27.4308 N.am    1  UNL1       -0.2329
     30 C         -22.6024    3.0430   24.7182 C.3     1  UNL1        0.2525
     31 N         -24.7704   -0.1865   29.2201 N.am    1  UNL1       -0.2157
     32 C         -21.3348    0.2272   28.7034 C.2     1  UNL1        0.4127
     33 N         -20.7480   -0.6683   29.1812 N.pl3   1  UNL1        0.2159
     34 O         -23.3462    2.0033   25.3534 O.2     1  UNL1       -0.4703
     35 C         -23.3842    0.3983   28.7229 C.3     1  UNL1        0.3360
     36 C         -20.8050    1.1267   27.8078 C.2     1  UNL1        0.1008
     37 C         -21.4583    1.8011   26.8295 C.2     1  UNL1        0.0460
     38 O         -26.7931   -0.1827   28.2991 O.2     1  UNL1       -0.2519
     39 C         -25.5680    0.1228   28.3332 C.2     1  UNL1        0.3147
     40 C         -23.6213    1.0948   27.4887 C.2     1  UNL1        0.1362
     41 C         -22.7794    1.6622   26.5559 C.2     1  UNL1        0.1544
@<TRIPOS>BOND
     1     1     2    1
     2     2     7    1
     3     3     2    2
     4     4     3    1
     5     4     5    2
     6     5     6    1
     7     6     7    2
     8     8     1    1
     9     8     9    1
    10     8    12    1
    11     9    10    1
    12    10    11    1
    13    12    11    1
    14    13    29    1
    15    14    13    1
    16    14    15    1
    17    15    18    2
    18    16    17    1
    19    16    15    1
    20    19    14    2
    21    20    21    2
    22    20    19    1
    23    21    26    1
    24    22    21    1
    25    23    22    1
    26    24    23    1
    27    24    25    1
    28    26    27    1
    29    26    13    1
    30    29    40    1
    31    29    39   am
    32    30    34    1
    33    31     1    1
    34    32    33    1
    35    32    28    2
    36    34    41    1
    37    35    40    1
    38    35    31    1
    39    35    28    1
    40    36    32    1
    41    37    36    2
    42    38    39    2
    43    39    31   am
    44    41    37    1
    45    41    40    2
