@<TRIPOS>MOLECULE
outputs/IAG933/test6/raw/output_4903_IAG933_linker_design_.xyz
 46 50 0 0 0
SMALL
GASTEIGER

@<TRIPOS>ATOM
      1 C         -24.8550   -1.0120   30.1430 C.3     1  UNL1        0.0424
      2 C         -24.9730   -2.5050   29.7880 C.2     1  UNL1       -0.0208
      3 C         -23.9060   -3.1730   29.1460 C.2     1  UNL1       -0.0042
      4 C         -23.9890   -4.5490   28.8530 C.2     1  UNL1       -0.0003
      5 C         -25.1370   -5.2800   29.2050 C.2     1  UNL1       -0.0000
      6 C         -26.2320   -4.6110   29.7840 C.2     1  UNL1       -0.0003
      7 C         -26.1550   -3.2320   30.0650 C.2     1  UNL1       -0.0042
      8 C         -25.3870   -0.6790   31.5710 C.3     1  UNL1        0.0771
      9 C         -25.1890    0.7730   32.0280 C.3     1  UNL1        0.0192
     10 C         -25.3360    0.6840   33.5440 C.3     1  UNL1        0.0202
     11 C         -24.8290   -0.7150   33.9050 C.3     1  UNL1        0.0887
     12 N         -24.7580   -1.4810   32.6460 N.3     1  UNL1       -0.2191
     13 C         -25.6880    1.6140   26.4610 C.2     1  UNL1        0.0401
     14 C         -26.2500    2.9200   26.3950 C.2     1  UNL1        0.0766
     15 C         -25.6420    4.0930   27.1230 C.2     1  UNL1        0.2664
     16 N         -25.6140    5.2520   26.4490 N.am    1  UNL1       -0.1997
     17 C         -25.0260    6.4790   26.9630 C.3     1  UNL1        0.1388
     18 O         -25.1430    3.9660   28.2430 O.2     1  UNL1       -0.2683
     19 C         -27.4380    3.0910   25.6450 C.2     1  UNL1        0.1067
     20 N         -28.0750    2.0890   25.0030 N.2     1  UNL1       -0.2081
     21 C         -27.5430    0.8490   25.0790 C.2     1  UNL1        0.2533
     22 O         -28.1930   -0.2080   24.4770 O.2     1  UNL1       -0.4558
     23 C         -29.4600    0.0050   23.8660 C.3     1  UNL1        0.2426
     24 C         -30.0650   -1.3770   23.5730 C.3     1  UNL1        0.2292
     25 O         -30.7290   -1.8780   24.7210 O.3     1  UNL1       -0.2162
     26 C         -26.3540    0.5760   25.7770 C.2     1  UNL1        0.1931
     27 F         -25.8600   -0.6810   25.7950 F       1  UNL1       -0.1992
     28 F         -21.2610    2.2261   25.5965 F       1  UNL1       -0.2017
     29 C         -29.6132    2.7336   28.4453 C.2     1  UNL1        0.0138
     30 C         -24.2520    0.6860   28.1212 C.2     1  UNL1        0.0077
     31 C         -29.1812    1.4844   28.8630 C.3     1  UNL1        0.0293
     32 C         -22.8756    0.8094   28.5529 C.2     1  UNL1        0.1385
     33 C         -29.0645    2.2612   31.5180 C.3     1  UNL1        0.0473
     34 C         -28.6804    0.9433   30.9242 C.3     1  UNL1        0.0042
     35 C         -25.3596   -0.0314   28.9792 C.3     1  UNL1        0.0300
     36 F         -23.4310    1.0288   24.7032 F       1  UNL1       -0.2018
     37 F         -22.6104    0.5872   29.8590 F       1  UNL1       -0.2044
     38 C         -28.0004    1.0609   29.5836 C.3     1  UNL1        0.0049
     39 C         -29.4522    4.1248   29.0045 C.2     1  UNL1        0.1676
     40 C         -27.0101    0.1624   28.6950 C.3     1  UNL1        0.0051
     41 C         -23.3904    1.3427   25.9916 C.2     1  UNL1        0.1672
     42 C         -22.1217    1.6399   26.4496 C.2     1  UNL1        0.1696
     43 C         -21.8136    1.3201   27.7637 C.2     1  UNL1        0.0612
     44 C         -27.9517    3.3052   31.0099 C.3     1  UNL1        0.2055
     45 O         -28.5172    4.2728   30.1140 O.2     1  UNL1       -0.4727
     46 C         -24.4833    1.2335   26.8879 C.2     1  UNL1        0.0304
@<TRIPOS>BOND
     1     1    35    1
     2     2     7    1
     3     2     1    1
     4     3     2    2
     5     4     3    1
     6     4     5    2
     7     5     6    1
     8     6     7    2
     9     8     1    1
    10     8     9    1
    11     8    12    1
    12     9    10    1
    13    10    11    1
    14    12    11    1
    15    13    46    1
    16    14    13    1
    17    14    15    1
    18    15    18    2
    19    16    17    1
    20    16    15    1
    21    19    14    2
    22    20    21    2
    23    20    19    1
    24    21    26    1
    25    22    21    1
    26    23    22    1
    27    24    23    1
    28    24    25    1
    29    26    27    1
    30    26    13    2
    31    28    42    1
    32    29    31    1
    33    29    39    2
    34    30    32    1
    35    30    35    1
    36    31    38    1
    37    32    37    1
    38    34    33    1
    39    35    40    1
    40    36    41    1
    41    38    40    1
    42    38    34    1
    43    39    45    1
    44    41    42    2
    45    41    46    1
    46    42    43    1
    47    43    32    2
    48    44    33    1
    49    45    44    1
    50    46    30    2
