@<TRIPOS>MOLECULE
No_4913-gen_results/8p0m/2024-11-27-11-27-31/
 20 21 0 0 0
SMALL
GASTEIGER

@<TRIPOS>ATOM
      1 C         -28.0162   -0.8135   28.8779 C.3     1  UNL1        0.0411
      2 C         -27.0636   -0.1190   28.6079 C.3     1  UNL1        0.0451
      3 C         -25.7923   -0.4302   29.0761 C.2     1  UNL1       -0.0397
      4 C         -25.2700   -0.0487   30.0123 C.2     1  UNL1       -0.0293
      5 C         -27.8851   -1.6684   30.1122 C.2     1  UNL1        0.0542
      6 C         -26.9250   -1.6038   31.1803 C.2     1  UNL1       -0.0192
      7 C         -25.6359   -1.0992   31.0559 C.3     1  UNL1        0.0512
      8 C         -26.9888    0.4581   27.2012 C.ar    1  UNL1       -0.0184
      9 C         -26.8304    1.8440   27.1828 C.ar    1  UNL1       -0.0040
     10 C         -27.2223   -0.1673   26.0108 C.ar    1  UNL1       -0.0040
     11 C         -27.2848    0.4586   24.7556 C.ar    1  UNL1       -0.0003
     12 C         -26.8386    2.5972   25.9790 C.ar    1  UNL1       -0.0003
     13 C         -27.1109    1.9168   24.7818 C.ar    1  UNL1       -0.0000
     14 C         -29.0287   -2.6261   30.4399 C.2     1  UNL1        0.3836
     15 O         -28.7630   -3.8488   30.3337 O.co2   1  UNL1       -0.2409
     16 O         -30.1591   -2.2509   30.5821 O.co2   1  UNL1       -0.2409
     17 C         -24.7747   -0.9534   28.0885 C.3     1  UNL1        0.0476
     18 C         -23.4197   -0.5025   28.3604 C.2     1  UNL1       -0.0263
     19 C         -22.5938   -0.5063   29.1146 C.2     1  UNL1       -0.0300
     20 C         -22.7854   -1.1345   30.3958 C.3     1  UNL1        0.0304
@<TRIPOS>BOND
     1     1     2    1
     2     2     3    1
     3     3     4    2
     4     1     5    1
     5     5     6    2
     6     4     7    1
     7     6     7    1
     8     2     8    1
     9     5    14    1
    10    14    15   ar
    11    14    16   ar
    12     3    17    1
    13    17    18    1
    14    18    19    2
    15    19    20    1
    16     8     9   ar
    17     9    12   ar
    18    12    13   ar
    19    13    11   ar
    20    11    10   ar
    21    10     8   ar
