@<TRIPOS>MOLECULE
outputs/IAG933/test6/raw/output_4914_IAG933_linker_design_.xyz
 48 51 0 0 0
SMALL
GASTEIGER

@<TRIPOS>ATOM
      1 C         -24.8550   -1.0120   30.1430 C.3     1  UNL1        0.0963
      2 C         -24.9730   -2.5050   29.7880 C.2     1  UNL1       -0.0064
      3 C         -23.9060   -3.1730   29.1460 C.2     1  UNL1       -0.0029
      4 C         -23.9890   -4.5490   28.8530 C.2     1  UNL1       -0.0003
      5 C         -25.1370   -5.2800   29.2050 C.2     1  UNL1       -0.0000
      6 C         -26.2320   -4.6110   29.7840 C.2     1  UNL1       -0.0003
      7 C         -26.1550   -3.2320   30.0650 C.2     1  UNL1       -0.0029
      8 C         -25.3870   -0.6790   31.5710 C.3     1  UNL1        0.0916
      9 C         -25.1890    0.7730   32.0280 C.3     1  UNL1        0.0206
     10 C         -25.3360    0.6840   33.5440 C.3     1  UNL1        0.0203
     11 C         -24.8290   -0.7150   33.9050 C.3     1  UNL1        0.0888
     12 N         -24.7580   -1.4810   32.6460 N.3     1  UNL1       -0.2178
     13 C         -25.6880    1.6140   26.4610 C.3     1  UNL1        0.0702
     14 C         -26.2500    2.9200   26.3950 C.2     1  UNL1        0.0548
     15 C         -25.6420    4.0930   27.1230 C.2     1  UNL1        0.2624
     16 N         -25.6140    5.2520   26.4490 N.am    1  UNL1       -0.2000
     17 C         -25.0260    6.4790   26.9630 C.3     1  UNL1        0.1388
     18 O         -25.1430    3.9660   28.2430 O.2     1  UNL1       -0.2687
     19 C         -27.4380    3.0910   25.6450 C.2     1  UNL1        0.1021
     20 N         -28.0750    2.0890   25.0030 N.2     1  UNL1       -0.2119
     21 C         -27.5430    0.8490   25.0790 C.2     1  UNL1        0.2341
     22 O         -28.1930   -0.2080   24.4770 O.2     1  UNL1       -0.4585
     23 C         -29.4600    0.0050   23.8660 C.3     1  UNL1        0.2423
     24 C         -30.0650   -1.3770   23.5730 C.3     1  UNL1        0.2292
     25 O         -30.7290   -1.8780   24.7210 O.3     1  UNL1       -0.2162
     26 C         -26.3540    0.5760   25.7770 C.3     1  UNL1        0.2400
     27 F         -25.8600   -0.6810   25.7950 F       1  UNL1       -0.2269
     28 N         -25.5743   -0.2671   28.8900 N.3     1  UNL1       -0.2681
     29 C         -32.1505    3.9813   29.5419 C.3     1  UNL1        0.0000
     30 C         -31.3650    3.5925   31.8145 C.3     1  UNL1        0.0000
     31 O         -29.3964    0.6292   29.8366 O.3     1  UNL1       -0.3312
     32 O         -31.5834   -0.4336   28.0000 O.3     1  UNL1       -0.2149
     33 C         -27.3396   -0.1240   29.1387 C.3     1  UNL1        0.0902
     34 C         -30.2400   -0.8540   27.7744 C.3     1  UNL1        0.2407
     35 O         -30.2889   -1.3629   30.1830 O.3     1  UNL1       -0.1924
     36 C         -21.3783    1.7205   27.1335 C.3     1  UNL1        0.0001
     37 C         -29.7092    3.5751   29.7757 C.3     1  UNL1        0.0001
     38 C         -29.6380    4.2294   28.3558 C.3     1  UNL1        0.0000
     39 C         -24.1126    1.7191   26.3071 C.3     1  UNL1        0.0079
     40 C         -23.3516    1.0288   28.6603 C.3     1  UNL1        0.0173
     41 C         -28.4993    3.2692   30.4465 C.3     1  UNL1        0.0025
     42 C         -28.2421   -1.4344   29.1742 C.3     1  UNL1        0.0803
     43 C         -28.0443    0.9141   29.7519 C.3     1  UNL1        0.1324
     44 C         -27.6194    2.2896   30.2537 C.3     1  UNL1        0.0310
     45 C         -22.9703    1.8001   27.3950 C.3     1  UNL1        0.0018
     46 C         -24.1302   -0.1122   28.0678 C.3     1  UNL1        0.0724
     47 C         -31.0708    3.3499   30.3539 C.3     1  UNL1        0.0000
     48 C         -29.5533   -0.6167   29.2196 C.3     1  UNL1        0.2512
@<TRIPOS>BOND
     1     1    28    1
     2     2     7    1
     3     2     1    1
     4     3     2    2
     5     4     3    1
     6     4     5    2
     7     5     6    1
     8     6     7    2
     9     8     1    1
    10     8     9    1
    11     8    12    1
    12     9    10    1
    13    10    11    1
    14    12    11    1
    15    13    39    1
    16    14    13    1
    17    14    15    1
    18    15    18    2
    19    16    17    1
    20    16    15    1
    21    19    14    2
    22    20    21    2
    23    20    19    1
    24    21    26    1
    25    22    21    1
    26    23    22    1
    27    24    23    1
    28    24    25    1
    29    26    27    1
    30    26    13    1
    31    29    47    1
    32    33    28    1
    33    33    42    1
    34    33    43    1
    35    34    32    1
    36    34    48    1
    37    37    38    1
    38    37    47    1
    39    37    41    1
    40    39    45    1
    41    42    48    1
    42    43    31    1
    43    43    44    1
    44    44    41    1
    45    45    36    1
    46    45    40    1
    47    46    40    1
    48    46    28    1
    49    47    30    1
    50    48    31    1
    51    48    35    1
