@<TRIPOS>MOLECULE
outputs/IAG933/test6/raw/output_4915_IAG933_linker_design_.xyz
 49 54 0 0 0
SMALL
GASTEIGER

@<TRIPOS>ATOM
      1 C         -24.8550   -1.0120   30.1430 C.3     1  UNL1        0.1155
      2 C         -24.9730   -2.5050   29.7880 C.2     1  UNL1       -0.0029
      3 C         -23.9060   -3.1730   29.1460 C.2     1  UNL1       -0.0026
      4 C         -23.9890   -4.5490   28.8530 C.2     1  UNL1       -0.0003
      5 C         -25.1370   -5.2800   29.2050 C.2     1  UNL1       -0.0000
      6 C         -26.2320   -4.6110   29.7840 C.2     1  UNL1       -0.0003
      7 C         -26.1550   -3.2320   30.0650 C.2     1  UNL1       -0.0026
      8 C         -25.3870   -0.6790   31.5710 C.3     1  UNL1        0.0952
      9 C         -25.1890    0.7730   32.0280 C.3     1  UNL1        0.0209
     10 C         -25.3360    0.6840   33.5440 C.3     1  UNL1        0.0203
     11 C         -24.8290   -0.7150   33.9050 C.3     1  UNL1        0.0888
     12 N         -24.7580   -1.4810   32.6460 N.3     1  UNL1       -0.2174
     13 C         -25.6880    1.6140   26.4610 C.3     1  UNL1        0.0904
     14 C         -26.2500    2.9200   26.3950 C.2     1  UNL1        0.0565
     15 C         -25.6420    4.0930   27.1230 C.2     1  UNL1        0.2625
     16 N         -25.6140    5.2520   26.4490 N.am    1  UNL1       -0.2000
     17 C         -25.0260    6.4790   26.9630 C.3     1  UNL1        0.1388
     18 O         -25.1430    3.9660   28.2430 O.2     1  UNL1       -0.2687
     19 C         -27.4380    3.0910   25.6450 C.2     1  UNL1        0.1022
     20 N         -28.0750    2.0890   25.0030 N.2     1  UNL1       -0.2119
     21 C         -27.5430    0.8490   25.0790 C.2     1  UNL1        0.2341
     22 O         -28.1930   -0.2080   24.4770 O.2     1  UNL1       -0.4585
     23 C         -29.4600    0.0050   23.8660 C.3     1  UNL1        0.2423
     24 C         -30.0650   -1.3770   23.5730 C.3     1  UNL1        0.2292
     25 O         -30.7290   -1.8780   24.7210 O.3     1  UNL1       -0.2162
     26 C         -26.3540    0.5760   25.7770 C.3     1  UNL1        0.2417
     27 F         -25.8600   -0.6810   25.7950 F       1  UNL1       -0.2268
     28 C         -30.4505    3.1931   28.6769 C.3     1  UNL1        0.2279
     29 O         -30.4873    3.9505   29.8943 O.3     1  UNL1       -0.4467
     30 N         -23.5989    1.3676   27.8061 N.am    1  UNL1       -0.2414
     31 C         -29.6896   -0.6179   28.1727 C.3     1  UNL1        0.0289
     32 C         -30.0556    3.3820   31.1384 C.2     1  UNL1        0.3171
     33 N         -25.0837    0.1427   29.2975 N.am    1  UNL1       -0.2569
     34 C         -23.9089    0.5702   28.7636 C.2     1  UNL1        0.3114
     35 C         -28.9416    4.2467   31.6562 C.3     1  UNL1        0.1113
     36 C         -27.7897    4.2160   30.6619 C.3     1  UNL1        0.0314
     37 N         -28.6059    1.7539   29.6286 N.pl3   1  UNL1       -0.3094
     38 C         -21.0642    1.0984   28.1989 C.2     1  UNL1        0.0175
     39 C         -26.2608    1.0856   29.3187 C.3     1  UNL1        0.1141
     40 C         -24.2001    1.5663   26.5965 C.3     1  UNL1        0.1076
     41 O         -30.3321    2.2935   31.8421 O.2     1  UNL1       -0.2501
     42 C         -27.5974    0.8374   29.0213 C.2     1  UNL1        0.0390
     43 C         -30.0767    1.7479   29.0745 C.3     1  UNL1        0.1167
     44 C         -28.1609   -0.3167   28.1343 C.2     1  UNL1       -0.0144
     45 C         -27.6658    2.9686   29.7647 C.3     1  UNL1        0.0752
     46 C         -22.0846    1.6598   27.5009 C.2     1  UNL1        0.0690
     47 C         -30.4379    0.7113   27.9279 C.3     1  UNL1        0.0282
     48 C         -26.2657    2.4394   29.9447 C.3     1  UNL1        0.0454
     49 O         -22.8162   -0.0267   29.4296 O.2     1  UNL1       -0.2520
@<TRIPOS>BOND
     1     1    33    1
     2     2     7    1
     3     2     1    1
     4     3     2    2
     5     4     3    1
     6     4     5    2
     7     5     6    1
     8     6     7    2
     9     8     1    1
    10     8     9    1
    11     8    12    1
    12     9    10    1
    13    10    11    1
    14    12    11    1
    15    13    40    1
    16    14    13    1
    17    14    15    1
    18    15    18    2
    19    16    17    1
    20    16    15    1
    21    19    14    2
    22    20    21    2
    23    20    19    1
    24    21    26    1
    25    22    21    1
    26    23    22    1
    27    24    23    1
    28    24    25    1
    29    26    27    1
    30    26    13    1
    31    28    43    1
    32    28    29    1
    33    29    32    1
    34    30    34   am
    35    32    35    1
    36    32    41    2
    37    34    33   am
    38    34    49    2
    39    36    35    1
    40    37    45    1
    41    39    33    1
    42    39    48    1
    43    40    30    1
    44    42    39    1
    45    42    37    1
    46    43    47    1
    47    43    37    1
    48    44    31    1
    49    44    42    2
    50    45    48    1
    51    45    36    1
    52    46    30    1
    53    46    38    2
    54    47    31    1
