@<TRIPOS>MOLECULE
No_4917-gen_results/8p0m/2024-11-27-11-27-31/
 34 37 0 0 0
SMALL
GASTEIGER

@<TRIPOS>ATOM
      1 C         -28.0162   -0.8135   28.8779 C.ar    1  UNL1        0.0066
      2 C         -28.4690   -0.7850   29.8287 C.ar    1  UNL1        0.0798
      3 C         -26.5455   -0.8762   28.8500 C.ar    1  UNL1        0.0003
      4 C         -25.8041   -1.0324   30.0571 C.ar    1  UNL1        0.0015
      5 C         -27.9437   -0.9869   31.2075 C.ar    1  UNL1        0.0066
      6 C         -26.5825   -1.0386   31.2231 C.ar    1  UNL1        0.0003
      7 C         -24.3810   -1.1082   30.0855 C.ar    1  UNL1        0.0189
      8 C         -23.6421   -1.1177   29.0486 C.ar    1  UNL1       -0.0012
      9 C         -22.4003   -0.5056   29.0274 C.ar    1  UNL1       -0.0027
     10 C         -21.6769   -0.1194   27.8941 C.3     1  UNL1        0.0326
     11 C         -21.6133    1.2694   27.7806 C.3     1  UNL1        0.0312
     12 C         -30.0910   -0.6910   29.8946 C.2     1  UNL1        0.3878
     13 O         -30.6621    0.0758   30.7922 O.co2   1  UNL1       -0.2406
     14 O         -30.7186   -1.2897   29.0447 O.co2   1  UNL1       -0.2406
     15 C         -23.7077   -1.1486   31.4121 C.ar    1  UNL1        0.0988
     16 N         -22.3703   -0.7963   31.4356 N.ar    1  UNL1       -0.2426
     17 C         -21.7302   -0.3512   30.4021 C.ar    1  UNL1        0.0946
     18 C         -22.7545    2.1633   27.4648 C.ar    1  UNL1       -0.0188
     19 C         -23.3530    2.1898   26.1924 C.ar    1  UNL1       -0.0041
     20 C         -24.5672    2.8508   25.9693 C.ar    1  UNL1        0.0028
     21 C         -25.1691    3.5367   27.1011 C.ar    1  UNL1        0.0376
     22 C         -24.6540    3.4093   28.3686 C.ar    1  UNL1        0.1485
     23 C         -23.5046    2.6640   28.6256 C.ar    1  UNL1        0.0334
     24 O         -25.3132    3.9893   29.4028 O.3     1  UNL1       -0.4210
     25 C         -26.5773    3.4955   29.7433 C.2     1  UNL1        0.3459
     26 C         -26.7715    3.1451   31.0631 C.2     1  UNL1        0.0823
     27 C         -27.4065    3.9803   31.8319 C.2     1  UNL1        0.0067
     28 C         -27.6186    5.1715   31.4917 C.ar    1  UNL1        0.0002
     29 C         -28.4054    5.7147   31.1951 C.ar    1  UNL1        0.0000
     30 C         -28.5904    7.1260   30.7759 C.ar    1  UNL1        0.0000
     31 C         -27.4183    7.8881   30.8350 C.ar    1  UNL1        0.0000
     32 C         -26.2212    7.2887   31.2255 C.ar    1  UNL1        0.0000
     33 C         -26.2567    5.9715   31.5783 C.ar    1  UNL1        0.0000
     34 O         -27.5277    3.5141   28.8928 O.2     1  UNL1       -0.2445
@<TRIPOS>BOND
     1     4     7    1
     2    10    11    1
     3     2    12    1
     4    12    13   ar
     5    12    14   ar
     6    11    18    1
     7    22    24    1
     8    24    25    1
     9    25    26    1
    10    26    27    2
    11    27    28    1
    12    25    34    2
    13    10     9    1
    14    18    19   ar
    15    19    20   ar
    16    20    21   ar
    17    21    22   ar
    18    22    23   ar
    19    23    18   ar
    20    28    29   ar
    21    29    30   ar
    22    30    31   ar
    23    31    32   ar
    24    32    33   ar
    25    33    28   ar
    26     7     8   ar
    27     8     9   ar
    28     9    17   ar
    29    17    16   ar
    30    16    15   ar
    31    15     7   ar
    32     1     2   ar
    33     2     5   ar
    34     5     6   ar
    35     6     4   ar
    36     4     3   ar
    37     3     1   ar
