@<TRIPOS>MOLECULE
outputs/IAG933/test6/raw/output_4922_IAG933_linker_design_.xyz
 47 50 0 0 0
SMALL
GASTEIGER

@<TRIPOS>ATOM
      1 C         -24.8550   -1.0120   30.1430 C.3     1  UNL1        0.1334
      2 C         -24.9730   -2.5050   29.7880 C.2     1  UNL1       -0.0012
      3 C         -23.9060   -3.1730   29.1460 C.2     1  UNL1       -0.0026
      4 C         -23.9890   -4.5490   28.8530 C.2     1  UNL1       -0.0003
      5 C         -25.1370   -5.2800   29.2050 C.2     1  UNL1       -0.0000
      6 C         -26.2320   -4.6110   29.7840 C.2     1  UNL1       -0.0003
      7 C         -26.1550   -3.2320   30.0650 C.2     1  UNL1       -0.0026
      8 C         -25.3870   -0.6790   31.5710 C.3     1  UNL1        0.0969
      9 C         -25.1890    0.7730   32.0280 C.3     1  UNL1        0.0210
     10 C         -25.3360    0.6840   33.5440 C.3     1  UNL1        0.0203
     11 C         -24.8290   -0.7150   33.9050 C.3     1  UNL1        0.0888
     12 N         -24.7580   -1.4810   32.6460 N.3     1  UNL1       -0.2174
     13 C         -25.6880    1.6140   26.4610 C.2     1  UNL1        0.0407
     14 C         -26.2500    2.9200   26.3950 C.2     1  UNL1        0.0745
     15 C         -25.6420    4.0930   27.1230 C.2     1  UNL1        0.2241
     16 N         -25.6140    5.2520   26.4490 N.2     1  UNL1       -0.2356
     17 C         -25.0260    6.4790   26.9630 C.3     1  UNL1        0.1550
     18 O         -25.1430    3.9660   28.2430 O.2     1  UNL1       -0.4345
     19 C         -27.4380    3.0910   25.6450 C.2     1  UNL1        0.1068
     20 N         -28.0750    2.0890   25.0030 N.2     1  UNL1       -0.2081
     21 C         -27.5430    0.8490   25.0790 C.2     1  UNL1        0.2533
     22 O         -28.1930   -0.2080   24.4770 O.2     1  UNL1       -0.4558
     23 C         -29.4600    0.0050   23.8660 C.3     1  UNL1        0.2426
     24 C         -30.0650   -1.3770   23.5730 C.3     1  UNL1        0.2292
     25 O         -30.7290   -1.8780   24.7210 O.3     1  UNL1       -0.2162
     26 C         -26.3540    0.5760   25.7770 C.2     1  UNL1        0.1931
     27 F         -25.8600   -0.6810   25.7950 F       1  UNL1       -0.1992
     28 C         -25.9316    2.9957   30.1754 C.3     1  UNL1        0.1938
     29 C         -29.5235    1.3050   31.6190 C.3     1  UNL1        0.2574
     30 C         -25.0846    4.1540   32.2114 C.2     1  UNL1        0.0008
     31 C         -26.5634    5.5018   30.8930 C.2     1  UNL1        0.1935
     32 O         -27.4334    5.6171   29.9074 O.2     1  UNL1       -0.2868
     33 C         -24.8187    5.2347   33.0273 C.2     1  UNL1       -0.0001
     34 C         -21.3464    1.3623   27.6996 C.3     1  UNL1        0.0422
     35 C         -22.4222    1.3877   28.7135 C.3     1  UNL1        0.1962
     36 C         -28.1136    2.1373   29.8061 C.2     1  UNL1        0.4217
     37 C         -24.7982    2.8482   29.1244 C.3     1  UNL1        0.3142
     38 O         -28.4799    2.1849   31.1343 O.3     1  UNL1       -0.4294
     39 C         -25.8800    4.2360   31.0742 C.2     1  UNL1        0.0427
     40 O         -22.0581   -0.5697   29.9275 O.2     1  UNL1       -0.2707
     41 O         -23.3975    2.3912   28.4733 O.3     1  UNL1       -0.3121
     42 N         -27.1865    2.9978   29.4610 N.am    1  UNL1       -0.1593
     43 C         -25.3693    6.4885   32.7359 C.2     1  UNL1        0.0033
     44 N         -24.1143   -0.0017   29.6083 N.am    1  UNL1       -0.1992
     45 O         -28.5498    1.3037   29.0399 O.2     1  UNL1       -0.2245
     46 C         -22.8589    0.2244   29.4251 C.2     1  UNL1        0.2689
     47 C         -26.3178    6.6114   31.7212 C.2     1  UNL1        0.0418
@<TRIPOS>BOND
     1     1    44    1
     2     2     7    1
     3     2     1    1
     4     3     2    2
     5     4     3    1
     6     4     5    2
     7     5     6    1
     8     6     7    2
     9     8     1    1
    10     8     9    1
    11     8    12    1
    12     9    10    1
    13    10    11    1
    14    12    11    1
    15    14    13    1
    16    14    15    1
    17    15    18    1
    18    16    17    1
    19    16    15    2
    20    19    14    2
    21    20    21    2
    22    20    19    1
    23    21    26    1
    24    22    21    1
    25    23    22    1
    26    24    23    1
    27    24    25    1
    28    26    27    1
    29    26    13    2
    30    28    42    1
    31    28    39    1
    32    30    33    1
    33    31    39    1
    34    31    47    2
    35    32    31    1
    36    35    34    1
    37    35    46    1
    38    36    38    1
    39    37    18    1
    40    37    28    1
    41    38    29    1
    42    39    30    2
    43    41    35    1
    44    41    37    1
    45    42    36    1
    46    43    33    2
    47    45    36    2
    48    46    44    1
    49    46    40    2
    50    47    43    1
