@<TRIPOS>MOLECULE
outputs/IAG933/test6/raw/output_4923_IAG933_linker_design_.xyz
 47 51 0 0 0
SMALL
GASTEIGER

@<TRIPOS>ATOM
      1 C         -24.8550   -1.0120   30.1430 C.3     1  UNL1        0.0408
      2 C         -24.9730   -2.5050   29.7880 C.2     1  UNL1       -0.0211
      3 C         -23.9060   -3.1730   29.1460 C.2     1  UNL1       -0.0042
      4 C         -23.9890   -4.5490   28.8530 C.2     1  UNL1       -0.0003
      5 C         -25.1370   -5.2800   29.2050 C.2     1  UNL1       -0.0000
      6 C         -26.2320   -4.6110   29.7840 C.2     1  UNL1       -0.0003
      7 C         -26.1550   -3.2320   30.0650 C.2     1  UNL1       -0.0042
      8 C         -25.3870   -0.6790   31.5710 C.3     1  UNL1        0.0769
      9 C         -25.1890    0.7730   32.0280 C.3     1  UNL1        0.0192
     10 C         -25.3360    0.6840   33.5440 C.3     1  UNL1        0.0202
     11 C         -24.8290   -0.7150   33.9050 C.3     1  UNL1        0.0887
     12 N         -24.7580   -1.4810   32.6460 N.3     1  UNL1       -0.2191
     13 C         -25.6880    1.6140   26.4610 C.3     1  UNL1        0.1849
     14 C         -26.2500    2.9200   26.3950 C.2     1  UNL1        0.0819
     15 C         -25.6420    4.0930   27.1230 C.2     1  UNL1        0.2647
     16 N         -25.6140    5.2520   26.4490 N.am    1  UNL1       -0.1999
     17 C         -25.0260    6.4790   26.9630 C.3     1  UNL1        0.1388
     18 O         -25.1430    3.9660   28.2430 O.2     1  UNL1       -0.2686
     19 C         -27.4380    3.0910   25.6450 C.2     1  UNL1        0.1045
     20 N         -28.0750    2.0890   25.0030 N.2     1  UNL1       -0.2117
     21 C         -27.5430    0.8490   25.0790 C.2     1  UNL1        0.2367
     22 O         -28.1930   -0.2080   24.4770 O.2     1  UNL1       -0.4585
     23 C         -29.4600    0.0050   23.8660 C.3     1  UNL1        0.2423
     24 C         -30.0650   -1.3770   23.5730 C.3     1  UNL1        0.2292
     25 O         -30.7290   -1.8780   24.7210 O.3     1  UNL1       -0.2162
     26 C         -26.3540    0.5760   25.7770 C.3     1  UNL1        0.2670
     27 F         -25.8600   -0.6810   25.7950 F       1  UNL1       -0.2242
     28 C         -33.4634    1.5000   29.7845 C.2     1  UNL1        0.0989
     29 O         -24.7216    1.3692   27.6113 O.3     1  UNL1       -0.3482
     30 C         -21.0878    1.6750   27.4663 C.3     1  UNL1        0.0052
     31 C         -30.2161   -0.0580   28.6790 C.2     1  UNL1        0.1941
     32 C         -29.0844   -0.2399   30.9295 C.2     1  UNL1       -0.0186
     33 C         -33.6402    1.0045   31.1134 C.2     1  UNL1        0.0207
     34 C         -31.4680    0.0108   30.9366 C.2     1  UNL1        0.0202
     35 C         -27.4947   -0.1900   28.8121 C.3     1  UNL1        0.0122
     36 N         -32.4463    1.0847   28.9624 N.2     1  UNL1       -0.2409
     37 O         -30.1401   -0.2469   27.4292 O.2     1  UNL1       -0.2894
     38 C         -23.0841    0.4438   29.1310 C.3     1  UNL1        0.1546
     39 C         -26.2823    0.6985   29.3371 C.3     1  UNL1        0.0037
     40 C         -28.9310   -0.1460   29.4813 C.3     1  UNL1        0.0854
     41 C         -30.2831   -0.2296   31.6438 C.2     1  UNL1       -0.0026
     42 C         -24.6848    0.1205   29.0541 C.3     1  UNL1        0.0359
     43 C         -23.4106    1.6363   26.9390 C.3     1  UNL1        0.1451
     44 O         -22.4926    0.4537   30.3936 O.3     1  UNL1       -0.2231
     45 C         -22.3768    0.9018   27.8562 C.3     1  UNL1        0.0601
     46 C         -31.4154    0.3116   29.4913 C.2     1  UNL1        0.1161
     47 C         -32.7404    0.1113   31.6443 C.2     1  UNL1        0.0032
@<TRIPOS>BOND
     1     1    42    1
     2     2     7    1
     3     2     1    1
     4     3     2    2
     5     4     3    1
     6     4     5    2
     7     5     6    1
     8     6     7    2
     9     8     1    1
    10     8     9    1
    11     8    12    1
    12     9    10    1
    13    10    11    1
    14    12    11    1
    15    13    29    1
    16    14    13    1
    17    14    15    1
    18    15    18    2
    19    16    17    1
    20    16    15    1
    21    19    14    2
    22    20    21    2
    23    20    19    1
    24    21    26    1
    25    22    21    1
    26    23    22    1
    27    24    23    1
    28    24    25    1
    29    26    27    1
    30    26    13    1
    31    28    33    1
    32    31    40    1
    33    31    46    1
    34    32    41    2
    35    33    47    2
    36    34    41    1
    37    34    47    1
    38    35    39    1
    39    36    46    1
    40    36    28    2
    41    37    31    2
    42    38    44    1
    43    40    35    1
    44    40    32    1
    45    42    38    1
    46    42    39    1
    47    43    29    1
    48    43    45    1
    49    45    30    1
    50    45    38    1
    51    46    34    2
