@<TRIPOS>MOLECULE
No_4924-gen_results/8p0m/2024-11-27-11-27-31/
 18 19 0 0 0
SMALL
GASTEIGER

@<TRIPOS>ATOM
      1 C         -28.0162   -0.8135   28.8779 C.ar    1  UNL1       -0.0031
      2 C         -27.0636   -0.1190   28.6079 C.ar    1  UNL1       -0.0175
      3 C         -26.9287    1.1713   29.0083 C.ar    1  UNL1        0.0035
      4 C         -27.9560    1.7411   29.7840 C.ar    1  UNL1        0.0900
      5 C         -28.7721   -0.4537   29.8696 C.ar    1  UNL1        0.0113
      6 C         -28.8636    0.8725   30.2920 C.ar    1  UNL1        0.0640
      7 C         -25.9326   -0.5497   27.6464 C.3     1  UNL1        0.0535
      8 C         -24.6553   -0.8280   28.3603 C.ar    1  UNL1       -0.0072
      9 C         -23.6063    0.0641   28.5126 C.ar    1  UNL1        0.0540
     10 C         -22.4381   -0.3504   29.1919 C.ar    1  UNL1        0.0111
     11 C         -24.6325   -1.9653   29.2263 C.ar    1  UNL1       -0.0031
     12 C         -23.4702   -2.3343   29.8759 C.ar    1  UNL1       -0.0003
     13 C         -22.3767   -1.4908   29.8543 C.ar    1  UNL1        0.0008
     14 CL        -30.1127    1.3822   31.3987 Cl      1  UNL1       -0.0820
     15 CL        -23.6134    1.5802   27.6437 Cl      1  UNL1       -0.0826
     16 C         -27.8246    3.1648   30.2476 C.2     1  UNL1        0.3886
     17 O         -28.6877    3.8925   30.2692 O.co2   1  UNL1       -0.2405
     18 O         -26.5376    3.5009   30.4975 O.co2   1  UNL1       -0.2405
@<TRIPOS>BOND
     1     2     7    1
     2     7     8    1
     3     6    14    1
     4     9    15    1
     5     4    16    1
     6    16    17   ar
     7    16    18   ar
     8     8     9   ar
     9     9    10   ar
    10    10    13   ar
    11    13    12   ar
    12    12    11   ar
    13    11     8   ar
    14     1     2   ar
    15     2     3   ar
    16     3     4   ar
    17     4     6   ar
    18     6     5   ar
    19     5     1   ar
