@<TRIPOS>MOLECULE
outputs/IAG933/test6/raw/output_4925_IAG933_linker_design_.xyz
 42 45 0 0 0
SMALL
GASTEIGER

@<TRIPOS>ATOM
      1 C         -24.8550   -1.0120   30.1430 C.3     1  UNL1        0.0966
      2 C         -24.9730   -2.5050   29.7880 C.2     1  UNL1       -0.0064
      3 C         -23.9060   -3.1730   29.1460 C.2     1  UNL1       -0.0029
      4 C         -23.9890   -4.5490   28.8530 C.2     1  UNL1       -0.0003
      5 C         -25.1370   -5.2800   29.2050 C.2     1  UNL1       -0.0000
      6 C         -26.2320   -4.6110   29.7840 C.2     1  UNL1       -0.0003
      7 C         -26.1550   -3.2320   30.0650 C.2     1  UNL1       -0.0029
      8 C         -25.3870   -0.6790   31.5710 C.3     1  UNL1        0.0916
      9 C         -25.1890    0.7730   32.0280 C.3     1  UNL1        0.0206
     10 C         -25.3360    0.6840   33.5440 C.3     1  UNL1        0.0203
     11 C         -24.8290   -0.7150   33.9050 C.3     1  UNL1        0.0888
     12 N         -24.7580   -1.4810   32.6460 N.3     1  UNL1       -0.2178
     13 C         -25.6880    1.6140   26.4610 C.2     1  UNL1        0.0175
     14 C         -26.2500    2.9200   26.3950 C.2     1  UNL1        0.0726
     15 C         -25.6420    4.0930   27.1230 C.2     1  UNL1        0.2661
     16 N         -25.6140    5.2520   26.4490 N.am    1  UNL1       -0.1997
     17 C         -25.0260    6.4790   26.9630 C.3     1  UNL1        0.1388
     18 O         -25.1430    3.9660   28.2430 O.2     1  UNL1       -0.2683
     19 C         -27.4380    3.0910   25.6450 C.2     1  UNL1        0.1064
     20 N         -28.0750    2.0890   25.0030 N.2     1  UNL1       -0.2081
     21 C         -27.5430    0.8490   25.0790 C.2     1  UNL1        0.2530
     22 O         -28.1930   -0.2080   24.4770 O.2     1  UNL1       -0.4558
     23 C         -29.4600    0.0050   23.8660 C.3     1  UNL1        0.2426
     24 C         -30.0650   -1.3770   23.5730 C.3     1  UNL1        0.2292
     25 O         -30.7290   -1.8780   24.7210 O.3     1  UNL1       -0.2162
     26 C         -26.3540    0.5760   25.7770 C.2     1  UNL1        0.1892
     27 F         -25.8600   -0.6810   25.7950 F       1  UNL1       -0.1996
     28 F         -20.4752    1.9505   27.7109 F       1  UNL1       -0.1540
     29 C         -22.3807    1.0335   28.0725 C.1     1  UNL1        0.0043
     30 O         -22.4585   -0.1473   30.0788 O.2     1  UNL1       -0.2813
     31 N         -25.1231    0.0687   29.1644 N.3     1  UNL1       -0.2633
     32 O         -21.9159    2.4461   26.1606 O.3     1  UNL1       -0.3920
     33 C         -21.6182    1.7251   27.3079 C.2     1  UNL1        0.3303
     34 C         -24.8678   -0.3037   27.7963 C.3     1  UNL1        0.0777
     35 C         -22.9937    0.6639   29.2774 C.2     1  UNL1        0.2268
     36 O         -23.6545    3.1682   24.8303 O.2     1  UNL1       -0.2496
     37 C         -23.1825    2.3534   25.6939 C.2     1  UNL1        0.3239
     38 C         -24.2257    1.1477   29.6539 C.3     1  UNL1        0.1281
     39 C         -23.8142    1.2601   26.0673 C.3     1  UNL1        0.1158
     40 C         -24.9090    3.2712   31.5771 C.3     1  UNL1        0.0019
     41 C         -24.6201    2.3994   30.4609 C.3     1  UNL1        0.0246
     42 C         -24.6514    0.9197   26.9249 C.3     1  UNL1        0.0520
@<TRIPOS>BOND
     1     1     2    1
     2     2     7    1
     3     3     2    2
     4     4     3    1
     5     4     5    2
     6     5     6    1
     7     6     7    2
     8     8     1    1
     9     8     9    1
    10     8    12    1
    11     9    10    1
    12    10    11    1
    13    12    11    1
    14    14    13    1
    15    14    15    1
    16    15    18    2
    17    16    17    1
    18    16    15    1
    19    19    14    2
    20    20    21    2
    21    20    19    1
    22    21    26    1
    23    22    21    1
    24    23    22    1
    25    24    23    1
    26    24    25    1
    27    26    27    1
    28    26    13    2
    29    29    35    2
    30    31    38    1
    31    31     1    1
    32    32    33    1
    33    33    28    1
    34    33    29    2
    35    34    31    1
    36    35    38    1
    37    35    30    1
    38    36    37    2
    39    37    39    1
    40    37    32    1
    41    38    41    1
    42    39    42    1
    43    41    40    1
    44    42    13    1
    45    42    34    1
