@<TRIPOS>MOLECULE
outputs/IAG933/test6/raw/output_4927_IAG933_linker_design_.xyz
 42 44 0 0 0
SMALL
GASTEIGER

@<TRIPOS>ATOM
      1 C         -24.8550   -1.0120   30.1430 C.3     1  UNL1        0.1030
      2 C         -24.9730   -2.5050   29.7880 C.2     1  UNL1       -0.0062
      3 C         -23.9060   -3.1730   29.1460 C.2     1  UNL1       -0.0029
      4 C         -23.9890   -4.5490   28.8530 C.2     1  UNL1       -0.0003
      5 C         -25.1370   -5.2800   29.2050 C.2     1  UNL1       -0.0000
      6 C         -26.2320   -4.6110   29.7840 C.2     1  UNL1       -0.0003
      7 C         -26.1550   -3.2320   30.0650 C.2     1  UNL1       -0.0029
      8 C         -25.3870   -0.6790   31.5710 C.3     1  UNL1        0.0918
      9 C         -25.1890    0.7730   32.0280 C.3     1  UNL1        0.0206
     10 C         -25.3360    0.6840   33.5440 C.3     1  UNL1        0.0203
     11 C         -24.8290   -0.7150   33.9050 C.3     1  UNL1        0.0888
     12 N         -24.7580   -1.4810   32.6460 N.3     1  UNL1       -0.2177
     13 C         -25.6880    1.6140   26.4610 C.2     1  UNL1        0.1805
     14 C         -26.2500    2.9200   26.3950 C.2     1  UNL1        0.1106
     15 C         -25.6420    4.0930   27.1230 C.2     1  UNL1        0.2694
     16 N         -25.6140    5.2520   26.4490 N.am    1  UNL1       -0.1996
     17 C         -25.0260    6.4790   26.9630 C.3     1  UNL1        0.1388
     18 O         -25.1430    3.9660   28.2430 O.2     1  UNL1       -0.2682
     19 C         -27.4380    3.0910   25.6450 C.2     1  UNL1        0.1098
     20 N         -28.0750    2.0890   25.0030 N.2     1  UNL1       -0.2079
     21 C         -27.5430    0.8490   25.0790 C.2     1  UNL1        0.2564
     22 O         -28.1930   -0.2080   24.4770 O.2     1  UNL1       -0.4558
     23 C         -29.4600    0.0050   23.8660 C.3     1  UNL1        0.2426
     24 C         -30.0650   -1.3770   23.5730 C.3     1  UNL1        0.2292
     25 O         -30.7290   -1.8780   24.7210 O.3     1  UNL1       -0.2162
     26 C         -26.3540    0.5760   25.7770 C.2     1  UNL1        0.2268
     27 F         -25.8600   -0.6810   25.7950 F       1  UNL1       -0.1960
     28 C         -22.1012    0.6878   28.8003 C.3     1  UNL1        0.1819
     29 N         -25.3202   -0.2263   28.8975 N.3     1  UNL1       -0.1879
     30 C         -22.6628    2.1404   25.7036 C.2     1  UNL1        0.3688
     31 C         -21.4584    1.0085   27.6366 C.2     1  UNL1        0.0528
     32 O         -24.5830    1.4252   27.2959 O.2     1  UNL1       -0.4375
     33 F         -22.0400    2.3632   24.5901 F       1  UNL1       -0.1502
     34 S         -27.9400    0.4842   29.1385 S.O2    1  UNL1        0.0898
     35 C         -24.4445    0.5609   28.3447 C.3     1  UNL1        0.3649
     36 C         -21.9515    1.4303   26.6076 C.1     1  UNL1       -0.0318
     37 N         -27.5625    1.7671   29.9695 N.3     1  UNL1        0.0359
     38 O         -28.3762   -0.5702   30.0026 O.2     1  UNL1       -0.1535
     39 O         -29.1655    0.8665   28.3826 O.2     1  UNL1       -0.1535
     40 O         -23.6687    2.8088   25.6808 O.2     1  UNL1       -0.2452
     41 O         -23.3866    0.4748   28.8962 O.3     1  UNL1       -0.3017
     42 C         -26.6512   -0.3184   28.2956 C.3     1  UNL1        0.2525
@<TRIPOS>BOND
     1     1    29    1
     2     2     7    1
     3     2     1    1
     4     3     2    2
     5     4     3    1
     6     4     5    2
     7     5     6    1
     8     6     7    2
     9     8     1    1
    10     8     9    1
    11     8    12    1
    12     9    10    1
    13    10    11    1
    14    12    11    1
    15    13    32    1
    16    14    13    1
    17    14    15    1
    18    15    18    2
    19    16    17    1
    20    16    15    1
    21    19    14    2
    22    20    21    2
    23    20    19    1
    24    21    26    1
    25    22    21    1
    26    23    22    1
    27    24    23    1
    28    24    25    1
    29    26    27    1
    30    26    13    2
    31    28    41    1
    32    30    36    2
    33    31    28    1
    34    33    30    1
    35    34    37    1
    36    34    38    2
    37    35    32    1
    38    35    41    1
    39    35    29    1
    40    36    31    2
    41    39    34    2
    42    40    30    1
    43    42    29    1
    44    42    34    1
