@<TRIPOS>MOLECULE
outputs/IAG933/test6/raw/output_493_IAG933_linker_design_.xyz
 42 46 0 0 0
SMALL
GASTEIGER

@<TRIPOS>ATOM
      1 C         -24.8550   -1.0120   30.1430 C.3     1  UNL1        0.0425
      2 C         -24.9730   -2.5050   29.7880 C.2     1  UNL1       -0.0208
      3 C         -23.9060   -3.1730   29.1460 C.2     1  UNL1       -0.0042
      4 C         -23.9890   -4.5490   28.8530 C.2     1  UNL1       -0.0003
      5 C         -25.1370   -5.2800   29.2050 C.2     1  UNL1       -0.0000
      6 C         -26.2320   -4.6110   29.7840 C.2     1  UNL1       -0.0003
      7 C         -26.1550   -3.2320   30.0650 C.2     1  UNL1       -0.0042
      8 C         -25.3870   -0.6790   31.5710 C.3     1  UNL1        0.0771
      9 C         -25.1890    0.7730   32.0280 C.3     1  UNL1        0.0192
     10 C         -25.3360    0.6840   33.5440 C.3     1  UNL1        0.0202
     11 C         -24.8290   -0.7150   33.9050 C.3     1  UNL1        0.0887
     12 N         -24.7580   -1.4810   32.6460 N.3     1  UNL1       -0.2191
     13 C         -25.6880    1.6140   26.4610 C.2     1  UNL1        0.0555
     14 C         -26.2500    2.9200   26.3950 C.2     1  UNL1        0.0780
     15 C         -25.6420    4.0930   27.1230 C.2     1  UNL1        0.2665
     16 N         -25.6140    5.2520   26.4490 N.am    1  UNL1       -0.1997
     17 C         -25.0260    6.4790   26.9630 C.3     1  UNL1        0.1388
     18 O         -25.1430    3.9660   28.2430 O.2     1  UNL1       -0.2683
     19 C         -27.4380    3.0910   25.6450 C.2     1  UNL1        0.1068
     20 N         -28.0750    2.0890   25.0030 N.2     1  UNL1       -0.2081
     21 C         -27.5430    0.8490   25.0790 C.2     1  UNL1        0.2533
     22 O         -28.1930   -0.2080   24.4770 O.2     1  UNL1       -0.4558
     23 C         -29.4600    0.0050   23.8660 C.3     1  UNL1        0.2426
     24 C         -30.0650   -1.3770   23.5730 C.3     1  UNL1        0.2292
     25 O         -30.7290   -1.8780   24.7210 O.3     1  UNL1       -0.2162
     26 C         -26.3540    0.5760   25.7770 C.2     1  UNL1        0.1945
     27 F         -25.8600   -0.6810   25.7950 F       1  UNL1       -0.1992
     28 C         -24.5254    1.2831   27.1376 C.2     1  UNL1        0.0823
     29 F         -20.7342    0.9993   28.2260 F       1  UNL1       -0.2001
     30 C         -29.3858    2.0079   28.8136 C.3     1  UNL1        0.0346
     31 C         -21.9825    0.9412   27.9098 C.2     1  UNL1        0.1855
     32 C         -23.0059    0.3709   28.6631 C.2     1  UNL1        0.0308
     33 C         -22.3181    1.5809   26.6977 C.2     1  UNL1        0.2498
     34 O         -29.3221   -0.3500   28.7827 O.3     1  UNL1       -0.3562
     35 F         -21.2838    1.8884   25.8736 F       1  UNL1       -0.1808
     36 C         -28.0171    0.0281   29.3794 C.3     1  UNL1        0.1156
     37 C         -28.0851    1.5490   29.4827 C.3     1  UNL1        0.0321
     38 N         -23.4813    1.7984   26.2781 N.2     1  UNL1       -0.2163
     39 C         -25.4561   -0.0242   29.1649 C.3     1  UNL1        0.0317
     40 C         -29.9398    0.7601   28.1092 C.3     1  UNL1        0.1421
     41 C         -26.8214   -0.3475   28.4664 C.3     1  UNL1        0.0343
     42 C         -24.3255    0.5568   28.2667 C.2     1  UNL1       -0.0019
@<TRIPOS>BOND
     1     1    39    1
     2     2     7    1
     3     2     1    1
     4     3     2    2
     5     4     3    1
     6     4     5    2
     7     5     6    1
     8     6     7    2
     9     8     1    1
    10     8     9    1
    11     8    12    1
    12     9    10    1
    13    10    11    1
    14    12    11    1
    15    13    28    1
    16    14    13    1
    17    14    15    1
    18    15    18    2
    19    16    17    1
    20    16    15    1
    21    19    14    2
    22    20    21    2
    23    20    19    1
    24    21    26    1
    25    22    21    1
    26    23    22    1
    27    24    23    1
    28    24    25    1
    29    26    27    1
    30    26    13    2
    31    28    42    1
    32    30    37    1
    33    31    29    1
    34    31    32    1
    35    33    31    2
    36    34    36    1
    37    35    33    1
    38    36    41    1
    39    36    37    1
    40    38    33    1
    41    38    28    2
    42    39    41    1
    43    40    34    1
    44    40    30    1
    45    42    32    2
    46    42    39    1
