@<TRIPOS>MOLECULE
No_4934-gen_results/8p0m/2024-11-27-11-27-31/
 8 8 0 0 0
SMALL
GASTEIGER

@<TRIPOS>ATOM
      1 C         -28.0162   -0.8135   28.8779 C.2     1  UNL1        0.0608
      2 N         -27.1876   -0.3590   28.4524 N.pl3   1  UNL1       -0.2851
      3 C         -29.1992    0.0398   28.9632 C.2     1  UNL1       -0.0083
      4 C         -27.3288    0.8806   27.8664 C.3     1  UNL1        0.1003
      5 C         -28.6331    1.1276   28.1656 C.3     1  UNL1        0.0492
      6 C         -25.7101   -0.9230   28.3374 C.2     1  UNL1        0.0608
      7 C         -25.3555   -1.7462   29.1549 C.2     1  UNL1       -0.0097
      8 C         -23.9949   -2.3335   29.0504 C.3     1  UNL1        0.0321
@<TRIPOS>BOND
     1     1     2    1
     2     1     3    2
     3     2     4    1
     4     3     5    1
     5     4     5    1
     6     2     6    1
     7     6     7    2
     8     7     8    1
