@<TRIPOS>MOLECULE
No_4936-gen_results/8p0m/2024-11-27-11-27-31/
 34 37 0 0 0
SMALL
GASTEIGER

@<TRIPOS>ATOM
      1 C         -28.0162   -0.8135   28.8779 C.ar    1  UNL1        0.1389
      2 C         -27.0636   -0.1189   28.6079 C.ar    1  UNL1        0.0366
      3 C         -26.9716    0.7139   27.5060 C.ar    1  UNL1        0.0384
      4 C         -28.1053    0.7744   26.6421 C.ar    1  UNL1        0.0076
      5 C         -29.2008    0.1044   27.0527 C.ar    1  UNL1        0.0567
      6 C         -29.2096   -0.6029   28.1853 C.ar    1  UNL1        0.0414
      7 C         -30.3702    0.2264   26.1604 C.2     1  UNL1        0.2492
      8 N         -30.2991    0.2342   24.9383 N.am    1  UNL1       -0.2726
      9 O         -31.5326    0.1001   26.7070 O.2     1  UNL1       -0.2699
     10 C         -25.7010   -0.2218   29.4257 C.ar    1  UNL1        0.0027
     11 C         -25.5116   -0.8122   30.2529 C.ar    1  UNL1        0.0000
     12 C         -24.4879   -1.0508   30.9000 C.ar    1  UNL1        0.0031
     13 C         -23.2264   -0.3749   30.5809 C.ar    1  UNL1        0.0372
     14 C         -23.3420    0.4280   29.4925 C.ar    1  UNL1        0.1421
     15 C         -24.6055    0.5561   28.7663 C.ar    1  UNL1        0.0237
     16 O         -22.2363    1.0978   29.0583 O.3     1  UNL1       -0.4510
     17 C         -22.3037    1.6141   27.7284 C.2     1  UNL1        0.1757
     18 C         -31.4277    0.1655   24.0000 C.3     1  UNL1        0.1152
     19 C         -29.2194   -0.5773   24.2515 C.3     1  UNL1        0.1152
     20 C         -23.4082    2.0909   27.1157 C.2     1  UNL1        0.0264
     21 C         -24.5947    1.3775   27.6037 C.3     1  UNL1        0.1120
     22 C         -25.8964    1.4628   26.9354 C.2     1  UNL1        0.1810
     23 O         -26.0766    2.4534   26.1448 O.2     1  UNL1       -0.2907
     24 O         -28.1763   -1.5427   29.9839 O.3     1  UNL1       -0.4714
     25 C         -28.3445   -2.9168   29.9132 C.3     1  UNL1        0.2525
     26 C         -29.2376   -3.3927   30.9535 C.3     1  UNL1        0.2526
     27 O         -29.3133   -4.6493   30.9773 O.2     1  UNL1       -0.4684
     28 C         -29.5510   -5.4522   31.6459 C.2     1  UNL1        0.1724
     29 C         -29.8823   -5.1608   32.9086 C.2     1  UNL1        0.0400
     30 C         -30.8191   -4.5375   32.9739 C.2     1  UNL1        0.0032
     31 C         -31.4194   -4.2505   34.2088 C.2     1  UNL1       -0.0002
     32 C         -32.5089   -3.2652   34.4635 C.2     1  UNL1       -0.0046
     33 C         -32.9114   -2.5742   33.3137 C.2     1  UNL1       -0.0258
     34 C         -32.2946   -2.7519   32.0915 C.3     1  UNL1        0.0307
@<TRIPOS>BOND
     1     5     7    1
     2     7     8   am
     3     7     9    2
     4     2    10    1
     5    14    16    1
     6    16    17    1
     7     8    18    1
     8     8    19    1
     9    17    20    2
    10    15    21    1
    11    20    21    1
    12     3    22    1
    13    21    22    1
    14    22    23    2
    15     1    24    1
    16    24    25    1
    17    25    26    1
    18    26    27    1
    19    27    28    1
    20    28    29    2
    21    29    30    1
    22    30    31    2
    23    31    32    1
    24    32    33    2
    25    33    34    1
    26     1     2   ar
    27     2     3   ar
    28     3     4   ar
    29     4     5   ar
    30     5     6   ar
    31     6     1   ar
    32    10    11   ar
    33    11    12   ar
    34    12    13   ar
    35    13    14   ar
    36    14    15   ar
    37    15    10   ar
