@<TRIPOS>MOLECULE
outputs/IAG933/test6/raw/output_4938_IAG933_linker_design_.xyz
 39 43 0 0 0
SMALL
GASTEIGER

@<TRIPOS>ATOM
      1 C         -24.8550   -1.0120   30.1430 C.3     1  UNL1        0.1175
      2 C         -24.9730   -2.5050   29.7880 C.2     1  UNL1       -0.0026
      3 C         -23.9060   -3.1730   29.1460 C.2     1  UNL1       -0.0026
      4 C         -23.9890   -4.5490   28.8530 C.2     1  UNL1       -0.0003
      5 C         -25.1370   -5.2800   29.2050 C.2     1  UNL1       -0.0000
      6 C         -26.2320   -4.6110   29.7840 C.2     1  UNL1       -0.0003
      7 C         -26.1550   -3.2320   30.0650 C.2     1  UNL1       -0.0026
      8 C         -25.3870   -0.6790   31.5710 C.3     1  UNL1        0.0954
      9 C         -25.1890    0.7730   32.0280 C.3     1  UNL1        0.0209
     10 C         -25.3360    0.6840   33.5440 C.3     1  UNL1        0.0203
     11 C         -24.8290   -0.7150   33.9050 C.3     1  UNL1        0.0888
     12 N         -24.7580   -1.4810   32.6460 N.3     1  UNL1       -0.2174
     13 C         -25.6880    1.6140   26.4610 C.3     1  UNL1        0.0969
     14 C         -26.2500    2.9200   26.3950 C.2     1  UNL1        0.0570
     15 C         -25.6420    4.0930   27.1230 C.2     1  UNL1        0.2625
     16 N         -25.6140    5.2520   26.4490 N.am    1  UNL1       -0.2000
     17 C         -25.0260    6.4790   26.9630 C.3     1  UNL1        0.1388
     18 O         -25.1430    3.9660   28.2430 O.2     1  UNL1       -0.2687
     19 C         -27.4380    3.0910   25.6450 C.2     1  UNL1        0.1022
     20 N         -28.0750    2.0890   25.0030 N.2     1  UNL1       -0.2119
     21 C         -27.5430    0.8490   25.0790 C.2     1  UNL1        0.2342
     22 O         -28.1930   -0.2080   24.4770 O.2     1  UNL1       -0.4585
     23 C         -29.4600    0.0050   23.8660 C.3     1  UNL1        0.2423
     24 C         -30.0650   -1.3770   23.5730 C.3     1  UNL1        0.2292
     25 O         -30.7290   -1.8780   24.7210 O.3     1  UNL1       -0.2162
     26 C         -26.3540    0.5760   25.7770 C.3     1  UNL1        0.2422
     27 F         -25.8600   -0.6810   25.7950 F       1  UNL1       -0.2268
     28 C         -23.6570    0.8603   27.2873 C.2     1  UNL1        0.0614
     29 C         -22.2854    1.0717   27.4330 C.2     1  UNL1        0.1023
     30 N         -20.2911    0.2804   28.5067 N.pl3   1  UNL1       -0.1251
     31 C         -24.3427   -0.0654   28.0412 C.2     1  UNL1        0.1953
     32 N         -23.8927   -0.3773   29.3005 N.pl3   1  UNL1       -0.2586
     33 C         -21.6805    0.4181   28.5097 C.2     1  UNL1        0.1214
     34 F         -25.3518   -0.7301   27.7068 F       1  UNL1       -0.1877
     35 C         -24.2773    1.5896   26.3743 C.3     1  UNL1        0.1394
     36 N         -23.6502    2.3525   25.4746 N.2     1  UNL1       -0.2470
     37 C         -22.5353   -0.1754   29.4862 C.2     1  UNL1        0.0871
     38 C         -22.3052    2.3864   25.5168 C.2     1  UNL1        0.1944
     39 N         -21.6163    1.8276   26.5320 N.2     1  UNL1       -0.2230
@<TRIPOS>BOND
     1     1     2    1
     2     2     7    1
     3     3     2    2
     4     4     3    1
     5     4     5    2
     6     5     6    1
     7     6     7    2
     8     8     1    1
     9     8     9    1
    10     8    12    1
    11     9    10    1
    12    10    11    1
    13    12    11    1
    14    13    14    1
    15    14    15    1
    16    15    18    2
    17    16    17    1
    18    16    15    1
    19    19    14    2
    20    20    21    2
    21    20    19    1
    22    21    26    1
    23    22    21    1
    24    23    22    1
    25    24    23    1
    26    24    25    1
    27    26    27    1
    28    26    13    1
    29    28    29    1
    30    28    31    2
    31    29    33    1
    32    30    33    1
    33    31    32    1
    34    32    37    1
    35    32     1    1
    36    33    37    2
    37    34    31    1
    38    35    36    1
    39    35    13    1
    40    35    28    1
    41    36    38    2
    42    38    39    1
    43    39    29    2
