@<TRIPOS>MOLECULE
outputs/IAG933/test6/raw/output_4939_IAG933_linker_design_.xyz
 41 43 0 0 0
SMALL
GASTEIGER

@<TRIPOS>ATOM
      1 C         -24.8550   -1.0120   30.1430 C.3     1  UNL1        0.2069
      2 C         -24.9730   -2.5050   29.7880 C.2     1  UNL1        0.0187
      3 C         -23.9060   -3.1730   29.1460 C.2     1  UNL1       -0.0008
      4 C         -23.9890   -4.5490   28.8530 C.2     1  UNL1       -0.0002
      5 C         -25.1370   -5.2800   29.2050 C.2     1  UNL1       -0.0000
      6 C         -26.2320   -4.6110   29.7840 C.2     1  UNL1       -0.0002
      7 C         -26.1550   -3.2320   30.0650 C.2     1  UNL1       -0.0008
      8 C         -25.3870   -0.6790   31.5710 C.3     1  UNL1        0.1171
      9 C         -25.1890    0.7730   32.0280 C.3     1  UNL1        0.0229
     10 C         -25.3360    0.6840   33.5440 C.3     1  UNL1        0.0204
     11 C         -24.8290   -0.7150   33.9050 C.3     1  UNL1        0.0888
     12 N         -24.7580   -1.4810   32.6460 N.3     1  UNL1       -0.2154
     13 C         -25.6880    1.6140   26.4610 C.2     1  UNL1        0.0770
     14 C         -26.2500    2.9200   26.3950 C.2     1  UNL1        0.0796
     15 C         -25.6420    4.0930   27.1230 C.2     1  UNL1        0.2665
     16 N         -25.6140    5.2520   26.4490 N.am    1  UNL1       -0.1997
     17 C         -25.0260    6.4790   26.9630 C.3     1  UNL1        0.1388
     18 O         -25.1430    3.9660   28.2430 O.2     1  UNL1       -0.2683
     19 C         -27.4380    3.0910   25.6450 C.2     1  UNL1        0.1068
     20 N         -28.0750    2.0890   25.0030 N.2     1  UNL1       -0.2081
     21 C         -27.5430    0.8490   25.0790 C.2     1  UNL1        0.2534
     22 O         -28.1930   -0.2080   24.4770 O.2     1  UNL1       -0.4558
     23 C         -29.4600    0.0050   23.8660 C.3     1  UNL1        0.2426
     24 C         -30.0650   -1.3770   23.5730 C.3     1  UNL1        0.2292
     25 O         -30.7290   -1.8780   24.7210 O.3     1  UNL1       -0.2162
     26 C         -26.3540    0.5760   25.7770 C.2     1  UNL1        0.1961
     27 F         -25.8600   -0.6810   25.7950 F       1  UNL1       -0.1991
     28 C         -22.9163    0.5783   29.5534 C.2     1  UNL1        0.3479
     29 C         -21.8207    0.4385   28.4596 C.3     1  UNL1        0.2510
     30 C         -24.6468    1.2138   27.3105 C.2     1  UNL1        0.2032
     31 O         -21.1323   -0.8373   28.5147 O.3     1  UNL1       -0.3402
     32 O         -22.9344    2.9351   25.3261 O.co2   1  UNL1       -0.2407
     33 C         -23.4091    1.7967   25.5064 C.2     1  UNL1        0.3896
     34 O         -23.4638   -0.5756   30.0746 O.3     1  UNL1       -0.4445
     35 C         -20.2508   -0.1766   28.1510 C.3     1  UNL1        0.1749
     36 O         -23.1294    1.7235   29.9536 O.2     1  UNL1       -0.2473
     37 F         -20.9843    1.6709   26.7057 F       1  UNL1       -0.2288
     38 O         -23.8953    1.1185   24.6015 O.co2   1  UNL1       -0.2407
     39 C         -21.9795    1.0570   27.2804 C.3     1  UNL1        0.2306
     40 O         -25.2751    0.9028   28.5116 O.2     1  UNL1       -0.2865
     41 C         -23.3167    1.3306   26.7677 C.2     1  UNL1        0.1315
@<TRIPOS>BOND
     1     1    34    1
     2     2     7    1
     3     2     1    1
     4     3     2    2
     5     4     3    1
     6     4     5    2
     7     5     6    1
     8     6     7    2
     9     8     1    1
    10     8     9    1
    11     8    12    1
    12     9    10    1
    13    10    11    1
    14    12    11    1
    15    13    30    1
    16    14    13    1
    17    14    15    1
    18    15    18    2
    19    16    17    1
    20    16    15    1
    21    19    14    2
    22    20    21    2
    23    20    19    1
    24    21    26    1
    25    22    21    1
    26    23    22    1
    27    24    23    1
    28    24    25    1
    29    26    27    1
    30    26    13    2
    31    28    36    2
    32    28    34    1
    33    29    31    1
    34    29    28    1
    35    30    40    1
    36    32    33   ar
    37    33    41    1
    38    35    31    1
    39    38    33   ar
    40    39    37    1
    41    39    29    1
    42    41    39    1
    43    41    30    2
