@<TRIPOS>MOLECULE
outputs/IAG933/test6/raw/output_4940_IAG933_linker_design_.xyz
 44 47 0 0 0
SMALL
GASTEIGER

@<TRIPOS>ATOM
      1 C         -24.8550   -1.0120   30.1430 C.3     1  UNL1        0.1108
      2 C         -24.9730   -2.5050   29.7880 C.2     1  UNL1       -0.0051
      3 C         -23.9060   -3.1730   29.1460 C.2     1  UNL1       -0.0029
      4 C         -23.9890   -4.5490   28.8530 C.2     1  UNL1       -0.0003
      5 C         -25.1370   -5.2800   29.2050 C.2     1  UNL1       -0.0000
      6 C         -26.2320   -4.6110   29.7840 C.2     1  UNL1       -0.0003
      7 C         -26.1550   -3.2320   30.0650 C.2     1  UNL1       -0.0029
      8 C         -25.3870   -0.6790   31.5710 C.3     1  UNL1        0.0929
      9 C         -25.1890    0.7730   32.0280 C.3     1  UNL1        0.0206
     10 C         -25.3360    0.6840   33.5440 C.3     1  UNL1        0.0203
     11 C         -24.8290   -0.7150   33.9050 C.3     1  UNL1        0.0888
     12 N         -24.7580   -1.4810   32.6460 N.3     1  UNL1       -0.2177
     13 C         -25.6880    1.6140   26.4610 C.3     1  UNL1        0.0738
     14 C         -26.2500    2.9200   26.3950 C.2     1  UNL1        0.0549
     15 C         -25.6420    4.0930   27.1230 C.2     1  UNL1        0.2624
     16 N         -25.6140    5.2520   26.4490 N.am    1  UNL1       -0.2000
     17 C         -25.0260    6.4790   26.9630 C.3     1  UNL1        0.1388
     18 O         -25.1430    3.9660   28.2430 O.2     1  UNL1       -0.2687
     19 C         -27.4380    3.0910   25.6450 C.2     1  UNL1        0.1021
     20 N         -28.0750    2.0890   25.0030 N.2     1  UNL1       -0.2119
     21 C         -27.5430    0.8490   25.0790 C.2     1  UNL1        0.2341
     22 O         -28.1930   -0.2080   24.4770 O.2     1  UNL1       -0.4585
     23 C         -29.4600    0.0050   23.8660 C.3     1  UNL1        0.2423
     24 C         -30.0650   -1.3770   23.5730 C.3     1  UNL1        0.2292
     25 O         -30.7290   -1.8780   24.7210 O.3     1  UNL1       -0.2162
     26 C         -26.3540    0.5760   25.7770 C.3     1  UNL1        0.2401
     27 F         -25.8600   -0.6810   25.7950 F       1  UNL1       -0.2269
     28 N         -25.0460    0.2285   29.3033 N.3     1  UNL1       -0.2149
     29 N         -33.0287    3.1676   28.7672 N.am    1  UNL1       -0.0878
     30 C         -25.9963    0.3847   28.6338 C.3     1  UNL1        0.0772
     31 C         -22.4201    0.9220   29.1106 C.3     1  UNL1        0.0321
     32 C         -23.2050    1.3536   27.8787 C.3     1  UNL1        0.1171
     33 C         -29.8659    2.7770   28.9046 C.3     1  UNL1        0.0279
     34 O         -22.7342    1.5663   26.5987 O.3     1  UNL1       -0.3535
     35 N         -29.0910    0.5989   28.6766 N.3     1  UNL1       -0.2722
     36 C         -28.5980    1.9926   28.6006 C.3     1  UNL1        0.0726
     37 C         -32.1776    2.1999   29.1278 C.2     1  UNL1        0.2617
     38 C         -24.8275    1.1386   27.7251 C.3     1  UNL1        0.0507
     39 C         -28.3572   -0.3901   28.2084 C.3     1  UNL1        0.0735
     40 C         -31.0296    1.9418   28.2773 C.3     1  UNL1        0.0971
     41 C         -26.9787   -0.4537   28.7054 C.3     1  UNL1        0.0348
     42 C         -22.9194    2.2862   25.5314 C.3     1  UNL1        0.1740
     43 C         -30.5583    0.4898   28.3275 C.3     1  UNL1        0.0814
     44 O         -32.3209    1.5465   30.1780 O.2     1  UNL1       -0.2716
@<TRIPOS>BOND
     1     1    28    1
     2     2     7    1
     3     2     1    1
     4     3     2    2
     5     4     3    1
     6     4     5    2
     7     5     6    1
     8     6     7    2
     9     8     1    1
    10     8     9    1
    11     8    12    1
    12     9    10    1
    13    10    11    1
    14    12    11    1
    15    13    38    1
    16    14    13    1
    17    14    15    1
    18    15    18    2
    19    16    17    1
    20    16    15    1
    21    19    14    2
    22    20    21    2
    23    20    19    1
    24    21    26    1
    25    22    21    1
    26    23    22    1
    27    24    23    1
    28    24    25    1
    29    26    27    1
    30    26    13    1
    31    29    37    1
    32    30    41    1
    33    30    28    1
    34    32    31    1
    35    34    32    1
    36    36    35    1
    37    36    33    1
    38    37    44    2
    39    38    32    1
    40    38    30    1
    41    39    35    1
    42    39    41    1
    43    40    43    1
    44    40    33    1
    45    40    37    1
    46    42    34    1
    47    43    35    1
