@<TRIPOS>MOLECULE
No_4941-gen_results/8p0m/2024-11-27-11-27-31/
 35 38 0 0 0
SMALL
GASTEIGER

@<TRIPOS>ATOM
      1 C         -28.0162   -0.8135   28.8779 C.ar    1  UNL1        0.0023
      2 C         -28.4690   -0.7850   29.8287 C.ar    1  UNL1        0.0795
      3 C         -26.5042   -0.7777   28.8766 C.ar    1  UNL1       -0.0213
      4 C         -25.6540   -0.6597   27.7191 C.3     1  UNL1        0.0351
      5 C         -27.9180   -0.9374   31.1824 C.ar    1  UNL1        0.0066
      6 C         -26.5424   -0.9399   31.2606 C.ar    1  UNL1       -0.0001
      7 C         -25.7832   -0.8935   30.1201 C.ar    1  UNL1       -0.0042
      8 C         -25.2134    0.6923   27.3830 C.3     1  UNL1        0.0486
      9 C         -23.9202    0.9215   27.7698 C.ar    1  UNL1       -0.0181
     10 C         -23.1557    0.4097   28.7608 C.ar    1  UNL1       -0.0039
     11 C         -21.7718    0.6605   28.9557 C.ar    1  UNL1       -0.0003
     12 C         -21.1031    1.4706   28.0703 C.ar    1  UNL1       -0.0000
     13 C         -23.1513    1.8543   26.8178 C.ar    1  UNL1       -0.0039
     14 C         -21.7871    2.0480   27.0006 C.ar    1  UNL1       -0.0003
     15 C         -26.0094    1.5476   26.6874 C.ar    1  UNL1       -0.0220
     16 C         -26.5151    1.1050   25.4680 C.ar    1  UNL1       -0.0043
     17 C         -27.7595    1.6345   25.0607 C.ar    1  UNL1       -0.0003
     18 C         -26.3076    2.8075   27.2213 C.ar    1  UNL1       -0.0255
     19 C         -27.4546    3.5324   26.6528 C.ar    1  UNL1       -0.0046
     20 C         -28.0839    2.9610   25.5041 C.ar    1  UNL1       -0.0003
     21 C         -25.7409    3.4277   28.3854 C.3     1  UNL1        0.0307
     22 C         -26.7239    3.8956   29.3733 C.3     1  UNL1        0.0310
     23 C         -27.0711    3.1144   30.2494 C.ar    1  UNL1       -0.0218
     24 C         -26.2355    3.0028   31.4704 C.ar    1  UNL1       -0.0043
     25 C         -26.7933    2.4481   32.6493 C.ar    1  UNL1       -0.0003
     26 C         -28.5013    3.4071   30.7967 C.ar    1  UNL1       -0.0043
     27 C         -29.0189    2.6799   31.9711 C.ar    1  UNL1       -0.0003
     28 C         -28.0678    2.7811   33.0905 C.ar    1  UNL1       -0.0000
     29 C         -30.0818   -0.7444   29.8955 C.2     1  UNL1        0.3877
     30 O         -30.6809   -0.7495   30.8948 O.co2   1  UNL1       -0.2406
     31 O         -30.5431   -0.2326   28.8028 O.co2   1  UNL1       -0.2406
     32 C         -26.9779    5.3198   29.2906 C.3     1  UNL1        0.0304
     33 C         -26.1531    6.1701   28.8142 C.2     1  UNL1       -0.0303
     34 C         -24.9777    6.3231   28.9007 C.2     1  UNL1       -0.0303
     35 C         -24.1862    7.4152   28.2524 C.3     1  UNL1        0.0303
@<TRIPOS>BOND
     1     3     4    1
     2     4     8    1
     3     8     9    1
     4     8    15    1
     5    18    21    1
     6    21    22    1
     7    22    23    1
     8     2    29    1
     9    29    30   ar
    10    29    31   ar
    11    22    32    1
    12    32    33    1
    13    33    34    2
    14    34    35    1
    15    15    16   ar
    16    16    17   ar
    17    17    20   ar
    18    20    19   ar
    19    19    18   ar
    20    18    15   ar
    21    23    24   ar
    22    24    25   ar
    23    25    28   ar
    24    28    27   ar
    25    27    26   ar
    26    26    23   ar
    27     1     2   ar
    28     2     5   ar
    29     5     6   ar
    30     6     7   ar
    31     7     3   ar
    32     3     1   ar
    33     9    10   ar
    34    10    11   ar
    35    11    12   ar
    36    12    14   ar
    37    14    13   ar
    38    13     9   ar
