@<TRIPOS>MOLECULE
outputs/IAG933/test6/raw/output_4942_IAG933_linker_design_.xyz
 46 51 0 0 0
SMALL
GASTEIGER

@<TRIPOS>ATOM
      1 C         -24.8550   -1.0120   30.1430 C.3     1  UNL1        0.1323
      2 C         -24.9730   -2.5050   29.7880 C.2     1  UNL1       -0.0012
      3 C         -23.9060   -3.1730   29.1460 C.2     1  UNL1       -0.0026
      4 C         -23.9890   -4.5490   28.8530 C.2     1  UNL1       -0.0003
      5 C         -25.1370   -5.2800   29.2050 C.2     1  UNL1       -0.0000
      6 C         -26.2320   -4.6110   29.7840 C.2     1  UNL1       -0.0003
      7 C         -26.1550   -3.2320   30.0650 C.2     1  UNL1       -0.0026
      8 C         -25.3870   -0.6790   31.5710 C.3     1  UNL1        0.0968
      9 C         -25.1890    0.7730   32.0280 C.3     1  UNL1        0.0210
     10 C         -25.3360    0.6840   33.5440 C.3     1  UNL1        0.0203
     11 C         -24.8290   -0.7150   33.9050 C.3     1  UNL1        0.0888
     12 N         -24.7580   -1.4810   32.6460 N.3     1  UNL1       -0.2174
     13 C         -25.6880    1.6140   26.4610 C.3     1  UNL1        0.0939
     14 C         -26.2500    2.9200   26.3950 C.2     1  UNL1        0.0589
     15 C         -25.6420    4.0930   27.1230 C.2     1  UNL1        0.2628
     16 N         -25.6140    5.2520   26.4490 N.am    1  UNL1       -0.2000
     17 C         -25.0260    6.4790   26.9630 C.3     1  UNL1        0.1388
     18 O         -25.1430    3.9660   28.2430 O.2     1  UNL1       -0.2686
     19 C         -27.4380    3.0910   25.6450 C.2     1  UNL1        0.1025
     20 N         -28.0750    2.0890   25.0030 N.2     1  UNL1       -0.2118
     21 C         -27.5430    0.8490   25.0790 C.2     1  UNL1        0.2344
     22 O         -28.1930   -0.2080   24.4770 O.2     1  UNL1       -0.4585
     23 C         -29.4600    0.0050   23.8660 C.3     1  UNL1        0.2423
     24 C         -30.0650   -1.3770   23.5730 C.3     1  UNL1        0.2292
     25 O         -30.7290   -1.8780   24.7210 O.3     1  UNL1       -0.2162
     26 C         -26.3540    0.5760   25.7770 C.3     1  UNL1        0.2440
     27 F         -25.8600   -0.6810   25.7950 F       1  UNL1       -0.2265
     28 C         -29.1409    4.4838   31.5259 C.2     1  UNL1       -0.0003
     29 C         -29.5071    5.5614   30.6881 C.2     1  UNL1       -0.0000
     30 C         -27.2256    0.3543   28.7858 C.2     1  UNL1        0.2798
     31 C         -29.4912    5.3831   29.2984 C.2     1  UNL1       -0.0003
     32 C         -25.0013    1.1359   27.5563 C.2     1  UNL1        0.0088
     33 N         -23.2789   -0.0044   28.9940 N.pl3   1  UNL1       -0.1433
     34 C         -23.7000    1.4533   27.3638 C.2     1  UNL1        0.0552
     35 C         -22.9747    2.2989   26.3782 C.2     1  UNL1        0.1808
     36 C         -28.8615    3.2314   30.9755 C.2     1  UNL1       -0.0026
     37 C         -21.3721    1.0998   27.6981 C.2     1  UNL1        0.1976
     38 N         -24.7526   -0.1098   29.1696 N.pl3   1  UNL1       -0.2122
     39 C         -29.2309    1.7215   29.1499 C.3     1  UNL1        0.1418
     40 N         -28.2143    1.2177   28.5064 N.am    1  UNL1       -0.1957
     41 O         -27.5757   -0.6949   29.1953 O.2     1  UNL1       -0.2670
     42 C         -22.8235    0.7999   28.0786 C.2     1  UNL1        0.1276
     43 C         -25.7057    0.5164   28.5430 C.2     1  UNL1        0.1187
     44 O         -21.5523    2.0288   26.6112 O.2     1  UNL1       -0.4459
     45 C         -29.2586    4.1245   28.7560 C.2     1  UNL1       -0.0026
     46 C         -29.0637    3.0492   29.6257 C.2     1  UNL1       -0.0006
@<TRIPOS>BOND
     1     1     2    1
     2     2     7    1
     3     3     2    2
     4     4     3    1
     5     4     5    2
     6     5     6    1
     7     6     7    2
     8     8     1    1
     9     8     9    1
    10     8    12    1
    11     9    10    1
    12    10    11    1
    13    12    11    1
    14    13    32    1
    15    14    13    1
    16    14    15    1
    17    15    18    2
    18    16    17    1
    19    16    15    1
    20    19    14    2
    21    20    21    2
    22    20    19    1
    23    21    26    1
    24    22    21    1
    25    23    22    1
    26    24    23    1
    27    24    25    1
    28    26    27    1
    29    26    13    1
    30    29    28    2
    31    30    41    2
    32    31    29    1
    33    32    43    2
    34    33    38    1
    35    34    32    1
    36    34    42    1
    37    35    44    1
    38    35    34    2
    39    36    28    1
    40    37    42    2
    41    38     1    1
    42    39    46    1
    43    40    30    1
    44    40    39    1
    45    42    33    1
    46    43    30    1
    47    43    38    1
    48    44    37    1
    49    45    31    2
    50    45    46    1
    51    46    36    2
