@<TRIPOS>MOLECULE
No_4945-gen_results/8p0m/2024-11-27-11-27-31/
 23 25 0 0 0
SMALL
GASTEIGER

@<TRIPOS>ATOM
      1 C         -28.0162   -0.8135   28.8779 C.ar    1  UNL1        0.0093
      2 C         -28.4690   -0.7850   29.8287 C.ar    1  UNL1        0.0799
      3 C         -26.5455   -0.8762   28.8500 C.ar    1  UNL1        0.0323
      4 C         -25.8041   -1.0324   30.0571 C.ar    1  UNL1       -0.0161
      5 C         -27.9437   -0.9869   31.2075 C.ar    1  UNL1        0.0063
      6 C         -24.4008   -1.0969   30.0965 C.3     1  UNL1        0.0378
      7 C         -26.5612   -1.0746   31.2270 C.ar    1  UNL1       -0.0037
      8 C         -23.7186    0.1121   29.8577 C.ar    1  UNL1       -0.0190
      9 C         -22.4354    0.1410   29.2414 C.ar    1  UNL1       -0.0040
     10 C         -21.8243    1.3185   28.9009 C.ar    1  UNL1       -0.0003
     11 C         -24.2152    1.3866   30.2825 C.ar    1  UNL1       -0.0040
     12 C         -23.6920    2.5913   29.8574 C.ar    1  UNL1       -0.0003
     13 C         -22.4485    2.5510   29.1858 C.ar    1  UNL1       -0.0000
     14 C         -30.0882   -0.7019   29.8725 C.2     1  UNL1        0.3878
     15 O         -30.6161    0.2563   30.5011 O.co2   1  UNL1       -0.2406
     16 O         -30.7113   -1.5076   29.2068 O.co2   1  UNL1       -0.2406
     17 C         -25.7446   -0.7628   27.5861 C.ar    1  UNL1        0.1621
     18 N         -24.7971   -0.8930   27.2529 N.ar    1  UNL1       -0.2235
     19 N         -26.5347   -0.0819   26.6074 N.ar    1  UNL1       -0.2235
     20 C         -25.7827    0.0051   25.4634 C.ar    1  UNL1        0.1212
     21 C         -24.5352   -0.3153   25.9845 C.ar    1  UNL1        0.1212
     22 C         -23.9633   -1.6112   31.4826 C.3     1  UNL1        0.0088
     23 C         -23.9378   -2.3331   29.2277 C.3     1  UNL1        0.0088
@<TRIPOS>BOND
     1     4     6    1
     2     6     8    1
     3     2    14    1
     4    14    15   ar
     5    14    16   ar
     6     3    17    1
     7    17    18   ar
     8    17    19   ar
     9    19    20   ar
    10    18    21   ar
    11    20    21   ar
    12     6    22    1
    13     6    23    1
    14     8     9   ar
    15     9    10   ar
    16    10    13   ar
    17    13    12   ar
    18    12    11   ar
    19    11     8   ar
    20     1     2   ar
    21     2     5   ar
    22     5     7   ar
    23     7     4   ar
    24     4     3   ar
    25     3     1   ar
