@<TRIPOS>MOLECULE
No_4947-gen_results/8p0m/2024-11-27-11-27-31/
 35 38 0 0 0
SMALL
GASTEIGER

@<TRIPOS>ATOM
      1 C         -28.0162   -0.8135   28.8779 C.ar    1  UNL1        0.0006
      2 C         -28.4690   -0.7850   29.8287 C.ar    1  UNL1        0.0533
      3 C         -26.5042   -0.7777   28.8766 C.ar    1  UNL1       -0.0176
      4 C         -25.8103   -0.8531   30.1028 C.ar    1  UNL1       -0.0036
      5 C         -27.9906   -0.8916   31.2257 C.ar    1  UNL1        0.0045
      6 C         -26.6042   -0.8676   31.2652 C.ar    1  UNL1       -0.0001
      7 C         -24.3894   -0.8049   30.1638 C.ar    1  UNL1       -0.0003
      8 C         -23.7660   -0.9500   31.0679 C.ar    1  UNL1       -0.0000
      9 C         -24.4866   -1.0287   32.3849 C.ar    1  UNL1       -0.0000
     10 C         -25.8375   -0.9259   32.4678 C.ar    1  UNL1       -0.0000
     11 C         -25.7181   -0.6971   27.6153 C.3     1  UNL1        0.0526
     12 C         -26.1279    0.2794   26.6623 C.ar    1  UNL1       -0.0178
     13 C         -25.2764    0.6358   25.7698 C.ar    1  UNL1       -0.0039
     14 C         -25.5985    1.3445   24.6719 C.ar    1  UNL1       -0.0003
     15 C         -27.0369    1.6882   24.5601 C.ar    1  UNL1       -0.0000
     16 C         -27.9181    1.3756   25.5185 C.ar    1  UNL1       -0.0003
     17 C         -27.5066    0.5879   26.5629 C.ar    1  UNL1       -0.0039
     18 C         -30.0535   -0.9387   30.0426 C.2     1  UNL1        0.2490
     19 O         -30.5752   -1.9560   30.0556 O.2     1  UNL1       -0.2699
     20 N         -30.7737    0.2399   29.5645 N.am    1  UNL1       -0.2756
     21 C         -32.1757    0.1925   29.4322 C.3     1  UNL1        0.0937
     22 C         -30.1456    1.5640   29.4616 C.3     1  UNL1        0.1028
     23 C         -30.9097    2.4683   28.6124 C.3     1  UNL1        0.0980
     24 C         -32.7478    1.0881   28.4996 C.3     1  UNL1        0.0221
     25 C         -32.2440    2.3854   28.4273 C.3     1  UNL1        0.0126
     26 C         -30.1349    3.7254   28.2456 C.2     1  UNL1        0.2429
     27 N         -28.9363    3.8976   28.6609 N.am    1  UNL1       -0.2005
     28 O         -30.7526    4.6633   27.7547 O.2     1  UNL1       -0.2733
     29 C         -28.0873    4.9953   28.2055 C.3     1  UNL1        0.1409
     30 C         -27.2102    5.4247   29.1429 C.2     1  UNL1       -0.0070
     31 C         -26.2494    4.9716   29.5418 C.2     1  UNL1       -0.0215
     32 C         -25.8221    3.6449   29.0687 C.3     1  UNL1        0.0866
     33 C         -25.1156    3.5334   27.9200 C.2     1  UNL1        0.2113
     34 C         -26.0203    2.4933   29.9335 C.3     1  UNL1        0.0129
     35 O         -24.1166    2.6953   27.8229 O.2     1  UNL1       -0.2880
@<TRIPOS>BOND
     1     3    11    1
     2    11    12    1
     3     2    18    1
     4    18    19    2
     5    18    20   am
     6    20    21    1
     7    20    22    1
     8    23    25    1
     9    24    25    1
    10    23    26    1
    11    26    27   am
    12    26    28    2
    13    27    29    1
    14    29    30    1
    15    30    31    2
    16    31    32    1
    17    32    33    1
    18    32    34    1
    19    33    35    2
    20    21    24    1
    21    23    22    1
    22     6    10   ar
    23    10     9   ar
    24     9     8   ar
    25     8     7   ar
    26     7     4   ar
    27    12    13   ar
    28    13    14   ar
    29    14    15   ar
    30    15    16   ar
    31    16    17   ar
    32    17    12   ar
    33     1     2   ar
    34     2     5   ar
    35     5     6   ar
    36     6     4   ar
    37     4     3   ar
    38     3     1   ar
