@<TRIPOS>MOLECULE
outputs/IAG933/test6/raw/output_495_IAG933_linker_design_.xyz
 43 46 0 0 0
SMALL
GASTEIGER

@<TRIPOS>ATOM
      1 C         -24.8550   -1.0120   30.1430 C.3     1  UNL1        0.1323
      2 C         -24.9730   -2.5050   29.7880 C.2     1  UNL1       -0.0012
      3 C         -23.9060   -3.1730   29.1460 C.2     1  UNL1       -0.0026
      4 C         -23.9890   -4.5490   28.8530 C.2     1  UNL1       -0.0003
      5 C         -25.1370   -5.2800   29.2050 C.2     1  UNL1       -0.0000
      6 C         -26.2320   -4.6110   29.7840 C.2     1  UNL1       -0.0003
      7 C         -26.1550   -3.2320   30.0650 C.2     1  UNL1       -0.0026
      8 C         -25.3870   -0.6790   31.5710 C.3     1  UNL1        0.0968
      9 C         -25.1890    0.7730   32.0280 C.3     1  UNL1        0.0210
     10 C         -25.3360    0.6840   33.5440 C.3     1  UNL1        0.0203
     11 C         -24.8290   -0.7150   33.9050 C.3     1  UNL1        0.0888
     12 N         -24.7580   -1.4810   32.6460 N.3     1  UNL1       -0.2174
     13 C         -25.6880    1.6140   26.4610 C.2     1  UNL1        0.0416
     14 C         -26.2500    2.9200   26.3950 C.2     1  UNL1        0.0767
     15 C         -25.6420    4.0930   27.1230 C.2     1  UNL1        0.2664
     16 N         -25.6140    5.2520   26.4490 N.am    1  UNL1       -0.1997
     17 C         -25.0260    6.4790   26.9630 C.3     1  UNL1        0.1388
     18 O         -25.1430    3.9660   28.2430 O.2     1  UNL1       -0.2683
     19 C         -27.4380    3.0910   25.6450 C.2     1  UNL1        0.1067
     20 N         -28.0750    2.0890   25.0030 N.2     1  UNL1       -0.2081
     21 C         -27.5430    0.8490   25.0790 C.2     1  UNL1        0.2533
     22 O         -28.1930   -0.2080   24.4770 O.2     1  UNL1       -0.4558
     23 C         -29.4600    0.0050   23.8660 C.3     1  UNL1        0.2426
     24 C         -30.0650   -1.3770   23.5730 C.3     1  UNL1        0.2292
     25 O         -30.7290   -1.8780   24.7210 O.3     1  UNL1       -0.2162
     26 C         -26.3540    0.5760   25.7770 C.2     1  UNL1        0.1932
     27 F         -25.8600   -0.6810   25.7950 F       1  UNL1       -0.1992
     28 C         -24.5000    1.2996   27.0921 C.ar    1  UNL1        0.0495
     29 C         -24.2233    0.5462   28.2912 C.ar    1  UNL1        0.0993
     30 C         -23.4836    1.7923   26.3175 C.ar    1  UNL1        0.1710
     31 F         -21.3138    2.3320   25.8494 F       1  UNL1       -0.1993
     32 F         -22.3563   -0.1537   29.7493 F       1  UNL1       -0.2004
     33 C         -21.8559    1.0764   27.7760 C.ar    1  UNL1        0.1981
     34 F         -23.6215    2.2507   24.9986 F       1  UNL1       -0.2017
     35 N         -26.6028   -0.1995   28.6136 N.am    1  UNL1       -0.1094
     36 C         -29.1819    1.9495   30.2995 C.3     1  UNL1        0.0102
     37 C         -27.9713    1.6484   29.5609 C.3     1  UNL1        0.0885
     38 C         -22.2601    1.7432   26.5923 C.ar    1  UNL1        0.1969
     39 O         -28.8793   -0.3454   28.7255 O.2     1  UNL1       -0.2717
     40 C         -27.9018    0.3195   28.9028 C.2     1  UNL1        0.2593
     41 N         -25.2222   -0.1491   29.0145 N.pl3   1  UNL1       -0.2116
     42 C         -22.7993    0.4837   28.6376 C.ar    1  UNL1        0.1845
     43 F         -20.5285    1.0174   28.0083 F       1  UNL1       -0.1993
@<TRIPOS>BOND
     1     1    41    1
     2     2     7    1
     3     2     1    1
     4     3     2    2
     5     4     3    1
     6     4     5    2
     7     5     6    1
     8     6     7    2
     9     8     1    1
    10     8     9    1
    11     8    12    1
    12     9    10    1
    13    10    11    1
    14    12    11    1
    15    13    28    1
    16    14    13    1
    17    14    15    1
    18    15    18    2
    19    16    17    1
    20    16    15    1
    21    19    14    2
    22    20    21    2
    23    20    19    1
    24    21    26    1
    25    22    21    1
    26    23    22    1
    27    24    23    1
    28    24    25    1
    29    26    27    1
    30    26    13    2
    31    28    29   ar
    32    29    42   ar
    33    29    41    1
    34    30    38   ar
    35    30    28   ar
    36    31    38    1
    37    33    43    1
    38    33    42   ar
    39    34    30    1
    40    35    40    1
    41    35    41    1
    42    37    36    1
    43    38    33   ar
    44    39    40    2
    45    40    37    1
    46    42    32    1
