@<TRIPOS>MOLECULE
outputs/IAG933/test6/raw/output_4952_IAG933_linker_design_.xyz
 44 48 0 0 0
SMALL
GASTEIGER

@<TRIPOS>ATOM
      1 C         -24.8550   -1.0120   30.1430 C.3     1  UNL1        0.0511
      2 C         -24.9730   -2.5050   29.7880 C.2     1  UNL1       -0.0204
      3 C         -23.9060   -3.1730   29.1460 C.2     1  UNL1       -0.0042
      4 C         -23.9890   -4.5490   28.8530 C.2     1  UNL1       -0.0003
      5 C         -25.1370   -5.2800   29.2050 C.2     1  UNL1       -0.0000
      6 C         -26.2320   -4.6110   29.7840 C.2     1  UNL1       -0.0003
      7 C         -26.1550   -3.2320   30.0650 C.2     1  UNL1       -0.0042
      8 C         -25.3870   -0.6790   31.5710 C.3     1  UNL1        0.0776
      9 C         -25.1890    0.7730   32.0280 C.3     1  UNL1        0.0192
     10 C         -25.3360    0.6840   33.5440 C.3     1  UNL1        0.0202
     11 C         -24.8290   -0.7150   33.9050 C.3     1  UNL1        0.0887
     12 N         -24.7580   -1.4810   32.6460 N.3     1  UNL1       -0.2191
     13 C         -25.6880    1.6140   26.4610 C.2     1  UNL1        0.0409
     14 C         -26.2500    2.9200   26.3950 C.2     1  UNL1        0.0766
     15 C         -25.6420    4.0930   27.1230 C.2     1  UNL1        0.2664
     16 N         -25.6140    5.2520   26.4490 N.am    1  UNL1       -0.1997
     17 C         -25.0260    6.4790   26.9630 C.3     1  UNL1        0.1388
     18 O         -25.1430    3.9660   28.2430 O.2     1  UNL1       -0.2683
     19 C         -27.4380    3.0910   25.6450 C.2     1  UNL1        0.1067
     20 N         -28.0750    2.0890   25.0030 N.2     1  UNL1       -0.2081
     21 C         -27.5430    0.8490   25.0790 C.2     1  UNL1        0.2533
     22 O         -28.1930   -0.2080   24.4770 O.2     1  UNL1       -0.4558
     23 C         -29.4600    0.0050   23.8660 C.3     1  UNL1        0.2426
     24 C         -30.0650   -1.3770   23.5730 C.3     1  UNL1        0.2292
     25 O         -30.7290   -1.8780   24.7210 O.3     1  UNL1       -0.2162
     26 C         -26.3540    0.5760   25.7770 C.2     1  UNL1        0.1931
     27 F         -25.8600   -0.6810   25.7950 F       1  UNL1       -0.1992
     28 C         -28.2940    5.3550   29.4145 C.2     1  UNL1        0.0001
     29 C         -21.7989    1.0484   28.4411 C.2     1  UNL1        0.0030
     30 C         -23.1713    2.0788   26.7425 C.2     1  UNL1        0.1954
     31 C         -22.9250    0.3185   28.8586 C.2     1  UNL1       -0.0036
     32 C         -25.2922   -0.0616   29.0851 C.3     1  UNL1        0.1062
     33 O         -23.1551    2.8451   25.6082 O.2     1  UNL1       -0.2866
     34 C         -28.7688    3.1310   28.7248 C.2     1  UNL1        0.0166
     35 C         -26.9716    3.5977   30.2402 C.2     1  UNL1        0.0166
     36 C         -24.2327    0.5621   28.3140 C.2     1  UNL1       -0.0103
     37 C         -24.3608    1.3987   27.1339 C.2     1  UNL1        0.0380
     38 N         -26.9161    1.7147   28.8725 N.am    1  UNL1       -0.1789
     39 C         -27.2560    4.9298   30.1976 C.2     1  UNL1        0.0013
     40 C         -26.7051    0.3367   29.0205 C.2     1  UNL1        0.2496
     41 O         -27.6117   -0.4653   29.0260 O.2     1  UNL1       -0.2726
     42 C         -27.5866    2.7341   29.3270 C.2     1  UNL1        0.0734
     43 C         -29.0922    4.4769   28.7093 C.2     1  UNL1        0.0013
     44 C         -21.9401    1.9822   27.4023 C.2     1  UNL1        0.0420
@<TRIPOS>BOND
     1     1    32    1
     2     2     7    1
     3     2     1    1
     4     3     2    2
     5     4     3    1
     6     4     5    2
     7     5     6    1
     8     6     7    2
     9     8     1    1
    10     8     9    1
    11     8    12    1
    12     9    10    1
    13    10    11    1
    14    12    11    1
    15    13    37    1
    16    14    13    1
    17    14    15    1
    18    15    18    2
    19    16    17    1
    20    16    15    1
    21    19    14    2
    22    20    21    2
    23    20    19    1
    24    21    26    1
    25    22    21    1
    26    23    22    1
    27    24    23    1
    28    24    25    1
    29    26    27    1
    30    26    13    2
    31    28    39    1
    32    29    31    1
    33    30    37    2
    34    30    44    1
    35    32    40    1
    36    33    30    1
    37    34    42    2
    38    36    31    2
    39    36    32    1
    40    37    36    1
    41    38    40    1
    42    38    42    1
    43    39    35    2
    44    40    41    2
    45    42    35    1
    46    43    34    1
    47    43    28    2
    48    44    29    2
