@<TRIPOS>MOLECULE
outputs/IAG933/test6/raw/output_4954_IAG933_linker_design_.xyz
 46 51 0 0 0
SMALL
GASTEIGER

@<TRIPOS>ATOM
      1 C         -24.8550   -1.0120   30.1430 C.3     1  UNL1        0.0786
      2 C         -24.9730   -2.5050   29.7880 C.2     1  UNL1       -0.0155
      3 C         -23.9060   -3.1730   29.1460 C.2     1  UNL1       -0.0039
      4 C         -23.9890   -4.5490   28.8530 C.2     1  UNL1       -0.0003
      5 C         -25.1370   -5.2800   29.2050 C.2     1  UNL1       -0.0000
      6 C         -26.2320   -4.6110   29.7840 C.2     1  UNL1       -0.0003
      7 C         -26.1550   -3.2320   30.0650 C.2     1  UNL1       -0.0039
      8 C         -25.3870   -0.6790   31.5710 C.3     1  UNL1        0.0824
      9 C         -25.1890    0.7730   32.0280 C.3     1  UNL1        0.0196
     10 C         -25.3360    0.6840   33.5440 C.3     1  UNL1        0.0203
     11 C         -24.8290   -0.7150   33.9050 C.3     1  UNL1        0.0887
     12 N         -24.7580   -1.4810   32.6460 N.3     1  UNL1       -0.2187
     13 C         -25.6880    1.6140   26.4610 C.3     1  UNL1        0.0928
     14 C         -26.2500    2.9200   26.3950 C.2     1  UNL1        0.0589
     15 C         -25.6420    4.0930   27.1230 C.2     1  UNL1        0.2628
     16 N         -25.6140    5.2520   26.4490 N.am    1  UNL1       -0.2000
     17 C         -25.0260    6.4790   26.9630 C.3     1  UNL1        0.1388
     18 O         -25.1430    3.9660   28.2430 O.2     1  UNL1       -0.2686
     19 C         -27.4380    3.0910   25.6450 C.2     1  UNL1        0.1025
     20 N         -28.0750    2.0890   25.0030 N.2     1  UNL1       -0.2118
     21 C         -27.5430    0.8490   25.0790 C.2     1  UNL1        0.2344
     22 O         -28.1930   -0.2080   24.4770 O.2     1  UNL1       -0.4585
     23 C         -29.4600    0.0050   23.8660 C.3     1  UNL1        0.2423
     24 C         -30.0650   -1.3770   23.5730 C.3     1  UNL1        0.2292
     25 O         -30.7290   -1.8780   24.7210 O.3     1  UNL1       -0.2162
     26 C         -26.3540    0.5760   25.7770 C.3     1  UNL1        0.2440
     27 F         -25.8600   -0.6810   25.7950 F       1  UNL1       -0.2265
     28 O         -31.1323    0.7168   28.5271 O.co2   1  UNL1       -0.2456
     29 O         -21.4690    2.0386   26.2270 O.3     1  UNL1       -0.4387
     30 C         -30.0631    1.1859   27.7543 C.2     1  UNL1        0.3670
     31 C         -27.5521    3.6430   30.6264 C.3     1  UNL1        0.2318
     32 C         -21.2654    1.4273   27.5524 C.3     1  UNL1        0.2544
     33 C         -24.8689    1.3056   27.4988 C.ar    1  UNL1       -0.0019
     34 C         -22.8690    1.9497   25.9222 C.2     1  UNL1        0.3426
     35 C         -28.6011    2.8851   29.6190 C.3     1  UNL1        0.1611
     36 C         -25.2886    0.9144   28.6920 C.ar    1  UNL1        0.0634
     37 O         -23.3692    2.0963   24.7109 O.2     1  UNL1       -0.2448
     38 C         -23.5051    1.4885   27.1148 C.ar    1  UNL1        0.0894
     39 O         -29.4270   -0.0083   27.4601 O.co2   1  UNL1       -0.2456
     40 O         -26.3471    2.9344   30.5864 O.2     1  UNL1       -0.4583
     41 C         -26.5132    1.5350   29.4339 C.2     1  UNL1        0.2213
     42 N         -27.6443    2.0285   29.1212 N.2     1  UNL1       -0.2354
     43 C         -22.6210    1.0048   27.9867 C.ar    1  UNL1        0.1083
     44 N         -23.0834    0.1002   28.9664 N.ar    1  UNL1       -0.2496
     45 C         -29.6208    2.5776   28.2714 C.3     1  UNL1        0.1422
     46 C         -24.4368    0.0033   29.1874 C.ar    1  UNL1        0.0679
@<TRIPOS>BOND
     1     1    46    1
     2     2     7    1
     3     2     1    1
     4     3     2    2
     5     4     3    1
     6     4     5    2
     7     5     6    1
     8     6     7    2
     9     8     1    1
    10     8     9    1
    11     8    12    1
    12     9    10    1
    13    10    11    1
    14    12    11    1
    15    13    33    1
    16    14    13    1
    17    14    15    1
    18    15    18    2
    19    16    17    1
    20    16    15    1
    21    19    14    2
    22    20    21    2
    23    20    19    1
    24    21    26    1
    25    22    21    1
    26    23    22    1
    27    24    23    1
    28    24    25    1
    29    26    27    1
    30    26    13    1
    31    29    32    1
    32    30    45    1
    33    30    28   ar
    34    32    43    1
    35    33    36   ar
    36    34    29    1
    37    34    38    1
    38    35    45    1
    39    35    31    1
    40    36    46   ar
    41    36    41    1
    42    37    34    2
    43    38    33   ar
    44    38    43   ar
    45    39    30   ar
    46    40    31    1
    47    41    40    1
    48    42    41    2
    49    42    35    1
    50    43    44   ar
    51    44    46   ar
