@<TRIPOS>MOLECULE
No_4957-gen_results/8p0m/2024-11-27-11-27-31/
 14 15 0 0 0
SMALL
GASTEIGER

@<TRIPOS>ATOM
      1 C         -28.0162   -0.8135   28.8779 C.ar    1  UNL1        0.0534
      2 C         -27.0636   -0.1189   28.6079 C.ar    1  UNL1        0.0608
      3 C         -25.7923   -0.4302   29.0761 C.ar    1  UNL1        0.0108
      4 C         -25.5756   -1.5654   29.9363 C.ar    1  UNL1        0.0041
      5 C         -26.7354   -2.3004   30.2173 C.ar    1  UNL1        0.0421
      6 C         -27.9184   -1.9537   29.7629 C.ar    1  UNL1        0.1966
      7 CL        -27.1463    1.2916   27.6407 Cl      1  UNL1       -0.0821
      8 O         -29.0010   -2.7139   30.1143 O.3     1  UNL1       -0.2865
      9 C         -24.5175    0.3583   28.7657 C.ar    1  UNL1        0.0008
     10 C         -23.3998   -0.0037   28.8607 C.ar    1  UNL1        0.0000
     11 C         -22.2224    0.7787   28.5148 C.ar    1  UNL1        0.0000
     12 C         -22.4750    1.8373   27.6135 C.ar    1  UNL1        0.0000
     13 C         -23.7715    2.2675   27.3748 C.ar    1  UNL1        0.0000
     14 C         -24.7837    1.5348   27.8838 C.ar    1  UNL1        0.0000
@<TRIPOS>BOND
     1     2     7    1
     2     6     8    1
     3     3     9    1
     4     1     2   ar
     5     2     3   ar
     6     3     4   ar
     7     4     5   ar
     8     5     6   ar
     9     6     1   ar
    10     9    10   ar
    11    10    11   ar
    12    11    12   ar
    13    12    13   ar
    14    13    14   ar
    15    14     9   ar
