@<TRIPOS>MOLECULE
outputs/IAG933/test6/raw/output_496_IAG933_linker_design_.xyz
 44 48 0 0 0
SMALL
GASTEIGER

@<TRIPOS>ATOM
      1 C         -24.8550   -1.0120   30.1430 C.3     1  UNL1        0.1150
      2 C         -24.9730   -2.5050   29.7880 C.2     1  UNL1       -0.0029
      3 C         -23.9060   -3.1730   29.1460 C.2     1  UNL1       -0.0026
      4 C         -23.9890   -4.5490   28.8530 C.2     1  UNL1       -0.0003
      5 C         -25.1370   -5.2800   29.2050 C.2     1  UNL1       -0.0000
      6 C         -26.2320   -4.6110   29.7840 C.2     1  UNL1       -0.0003
      7 C         -26.1550   -3.2320   30.0650 C.2     1  UNL1       -0.0026
      8 C         -25.3870   -0.6790   31.5710 C.3     1  UNL1        0.0952
      9 C         -25.1890    0.7730   32.0280 C.3     1  UNL1        0.0209
     10 C         -25.3360    0.6840   33.5440 C.3     1  UNL1        0.0203
     11 C         -24.8290   -0.7150   33.9050 C.3     1  UNL1        0.0888
     12 N         -24.7580   -1.4810   32.6460 N.3     1  UNL1       -0.2174
     13 C         -25.6880    1.6140   26.4610 C.2     1  UNL1        0.0375
     14 C         -26.2500    2.9200   26.3950 C.2     1  UNL1        0.0763
     15 C         -25.6420    4.0930   27.1230 C.2     1  UNL1        0.2664
     16 N         -25.6140    5.2520   26.4490 N.am    1  UNL1       -0.1997
     17 C         -25.0260    6.4790   26.9630 C.3     1  UNL1        0.1388
     18 O         -25.1430    3.9660   28.2430 O.2     1  UNL1       -0.2683
     19 C         -27.4380    3.0910   25.6450 C.2     1  UNL1        0.1067
     20 N         -28.0750    2.0890   25.0030 N.2     1  UNL1       -0.2081
     21 C         -27.5430    0.8490   25.0790 C.2     1  UNL1        0.2533
     22 O         -28.1930   -0.2080   24.4770 O.2     1  UNL1       -0.4558
     23 C         -29.4600    0.0050   23.8660 C.3     1  UNL1        0.2426
     24 C         -30.0650   -1.3770   23.5730 C.3     1  UNL1        0.2292
     25 O         -30.7290   -1.8780   24.7210 O.3     1  UNL1       -0.2162
     26 C         -26.3540    0.5760   25.7770 C.2     1  UNL1        0.1929
     27 F         -25.8600   -0.6810   25.7950 F       1  UNL1       -0.1992
     28 C         -22.7319    1.8321   25.6383 C.2     1  UNL1        0.3333
     29 O         -23.3482    1.8608   24.6120 O.2     1  UNL1       -0.2541
     30 C         -23.9685    3.6667   31.6609 C.2     1  UNL1        0.0162
     31 N         -24.6101    2.1768   29.7502 N.pl3   1  UNL1       -0.2149
     32 C         -24.7878    1.1212   28.7250 C.3     1  UNL1        0.1925
     33 C         -22.4740    0.7593   27.9103 C.2     1  UNL1        0.0506
     34 N         -24.2329    0.0372   29.3433 N.pl3   1  UNL1       -0.2626
     35 C         -23.2413    1.3421   26.9079 C.2     1  UNL1        0.0706
     36 C         -24.5666    1.4071   27.2020 C.2     1  UNL1        0.0243
     37 C         -23.0571    0.1743   29.0195 C.2     1  UNL1        0.1938
     38 C         -26.2481    3.7179   30.8759 C.2     1  UNL1        0.0162
     39 C         -26.5521    4.7491   31.7623 C.2     1  UNL1        0.0013
     40 C         -24.9426    3.2134   30.7605 C.2     1  UNL1        0.0675
     41 C         -24.3240    4.6188   32.6365 C.2     1  UNL1        0.0013
     42 F         -22.2245   -0.4373   29.9547 F       1  UNL1       -0.1878
     43 C         -25.5836    5.2099   32.6353 C.2     1  UNL1        0.0001
     44 F         -21.4779    2.2452   25.6055 F       1  UNL1       -0.1586
@<TRIPOS>BOND
     1     1     2    1
     2     2     7    1
     3     3     2    2
     4     4     3    1
     5     4     5    2
     6     5     6    1
     7     6     7    2
     8     8     1    1
     9     8     9    1
    10     8    12    1
    11     9    10    1
    12    10    11    1
    13    12    11    1
    14    13    36    1
    15    14    13    1
    16    14    15    1
    17    15    18    2
    18    16    17    1
    19    16    15    1
    20    19    14    2
    21    20    21    2
    22    20    19    1
    23    21    26    1
    24    22    21    1
    25    23    22    1
    26    24    23    1
    27    24    25    1
    28    26    27    1
    29    26    13    2
    30    28    35    1
    31    29    28    2
    32    30    41    1
    33    31    40    1
    34    32    34    1
    35    32    31    1
    36    33    37    2
    37    34     1    1
    38    35    36    2
    39    35    33    1
    40    36    32    1
    41    37    34    1
    42    37    42    1
    43    38    39    2
    44    39    43    1
    45    40    38    1
    46    40    30    2
    47    43    41    2
    48    44    28    1
