@<TRIPOS>MOLECULE
outputs/IAG933/test6/raw/output_4962_IAG933_linker_design_.xyz
 39 43 0 0 0
SMALL
GASTEIGER

@<TRIPOS>ATOM
      1 C         -24.8550   -1.0120   30.1430 C.3     1  UNL1        0.1282
      2 C         -24.9730   -2.5050   29.7880 C.2     1  UNL1       -0.0003
      3 C         -23.9060   -3.1730   29.1460 C.2     1  UNL1       -0.0024
      4 C         -23.9890   -4.5490   28.8530 C.2     1  UNL1       -0.0003
      5 C         -25.1370   -5.2800   29.2050 C.2     1  UNL1       -0.0000
      6 C         -26.2320   -4.6110   29.7840 C.2     1  UNL1       -0.0003
      7 C         -26.1550   -3.2320   30.0650 C.2     1  UNL1       -0.0024
      8 C         -25.3870   -0.6790   31.5710 C.3     1  UNL1        0.0978
      9 C         -25.1890    0.7730   32.0280 C.3     1  UNL1        0.0211
     10 C         -25.3360    0.6840   33.5440 C.3     1  UNL1        0.0203
     11 C         -24.8290   -0.7150   33.9050 C.3     1  UNL1        0.0888
     12 N         -24.7580   -1.4810   32.6460 N.3     1  UNL1       -0.2172
     13 C         -25.6880    1.6140   26.4610 C.3     1  UNL1        0.1598
     14 C         -26.2500    2.9200   26.3950 C.2     1  UNL1        0.0758
     15 C         -25.6420    4.0930   27.1230 C.2     1  UNL1        0.2642
     16 N         -25.6140    5.2520   26.4490 N.am    1  UNL1       -0.1999
     17 C         -25.0260    6.4790   26.9630 C.3     1  UNL1        0.1388
     18 O         -25.1430    3.9660   28.2430 O.2     1  UNL1       -0.2686
     19 C         -27.4380    3.0910   25.6450 C.2     1  UNL1        0.1040
     20 N         -28.0750    2.0890   25.0030 N.2     1  UNL1       -0.2117
     21 C         -27.5430    0.8490   25.0790 C.2     1  UNL1        0.2361
     22 O         -28.1930   -0.2080   24.4770 O.2     1  UNL1       -0.4585
     23 C         -29.4600    0.0050   23.8660 C.3     1  UNL1        0.2423
     24 C         -30.0650   -1.3770   23.5730 C.3     1  UNL1        0.2292
     25 O         -30.7290   -1.8780   24.7210 O.3     1  UNL1       -0.2162
     26 C         -26.3540    0.5760   25.7770 C.3     1  UNL1        0.2608
     27 F         -25.8600   -0.6810   25.7950 F       1  UNL1       -0.2248
     28 C         -22.1888    0.1625   29.0464 C.2     1  UNL1        0.0188
     29 N         -25.1571    1.1208   27.4298 N.ar    1  UNL1       -0.2747
     30 C         -23.7528    1.2127   27.5173 C.ar    1  UNL1        0.0787
     31 C         -25.7496    0.3428   28.4367 C.ar    1  UNL1        0.3320
     32 C         -22.6172    1.8259   26.8126 C.2     1  UNL1        0.0303
     33 C         -21.3443    1.6830   27.3914 C.2     1  UNL1       -0.0000
     34 C         -23.4795    0.3939   28.6485 C.ar    1  UNL1        0.0798
     35 F         -21.5541    2.9478   25.1635 F       1  UNL1       -0.2290
     36 N         -24.6678   -0.0798   29.1588 N.ar    1  UNL1       -0.2766
     37 O         -26.8737   -0.0158   28.5606 O.2     1  UNL1       -0.2463
     38 C         -21.1010    0.7860   28.4445 C.2     1  UNL1        0.0013
     39 C         -22.7186    2.4262   25.5436 C.3     1  UNL1        0.2212
@<TRIPOS>BOND
     1     1     2    1
     2     2     7    1
     3     3     2    2
     4     4     3    1
     5     4     5    2
     6     5     6    1
     7     6     7    2
     8     8     1    1
     9     8     9    1
    10     8    12    1
    11     9    10    1
    12    10    11    1
    13    12    11    1
    14    13    29    1
    15    14    13    1
    16    14    15    1
    17    15    18    2
    18    16    17    1
    19    16    15    1
    20    19    14    2
    21    20    21    2
    22    20    19    1
    23    21    26    1
    24    22    21    1
    25    23    22    1
    26    24    23    1
    27    24    25    1
    28    26    27    1
    29    26    13    1
    30    29    30   ar
    31    29    31   ar
    32    30    34   ar
    33    31    37    2
    34    31    36   ar
    35    32    33    2
    36    32    30    1
    37    33    38    1
    38    34    28    1
    39    34    36   ar
    40    35    39    1
    41    36     1    1
    42    38    28    2
    43    39    32    1
