@<TRIPOS>MOLECULE
No_4966-gen_results/8p0m/2024-11-27-11-27-31/
 29 33 0 0 0
SMALL
GASTEIGER

@<TRIPOS>ATOM
      1 C         -28.0162   -0.8135   28.8779 C.ar    1  UNL1        0.0076
      2 C         -27.0636   -0.1190   28.6079 C.ar    1  UNL1        0.0003
      3 C         -25.7923   -0.4302   29.0761 C.ar    1  UNL1        0.0031
      4 C         -24.5456    0.3494   28.8225 C.ar    1  UNL1        0.0014
      5 C         -23.2409    0.0217   29.3323 C.ar    1  UNL1        0.0001
      6 C         -28.1914   -1.2584   30.0884 C.ar    1  UNL1        0.0880
      7 C         -27.0146   -1.7105   30.8278 C.ar    1  UNL1        0.1449
      8 C         -25.7836   -1.1022   30.4102 C.ar    1  UNL1        0.0371
      9 C         -22.1136    0.6558   28.8215 C.ar    1  UNL1        0.0014
     10 C         -22.1448    1.5150   27.7429 C.ar    1  UNL1        0.0181
     11 C         -24.5131    1.2154   27.6444 C.ar    1  UNL1        0.0181
     12 C         -23.3528    1.8069   27.1985 C.ar    1  UNL1        0.0891
     13 C         -29.4367   -1.9773   30.5706 C.2     1  UNL1        0.2602
     14 O         -30.3891   -1.4361   30.0945 O.2     1  UNL1       -0.2693
     15 N         -29.4254   -3.2617   31.0664 N.am    1  UNL1       -0.1917
     16 C         -30.6640   -3.9573   31.3264 C.2     1  UNL1        0.2377
     17 N         -23.4360    2.6679   26.1288 N.pl3   1  UNL1       -0.1281
     18 C         -30.4560   -5.2766   31.4596 C.3     1  UNL1        0.0996
     19 C         -29.2348   -5.6732   31.7984 C.3     1  UNL1        0.0191
     20 C         -28.0783   -5.1261   31.2590 C.3     1  UNL1        0.0669
     21 C         -28.1322   -3.8267   30.8200 C.3     1  UNL1        0.2524
     22 O         -27.1293   -3.3358   30.5164 O.3     1  UNL1       -0.4598
     23 C         -31.5747   -5.8667   32.3998 C.ar    1  UNL1       -0.0139
     24 C         -32.3828   -5.5188   32.9000 C.ar    1  UNL1       -0.0038
     25 C         -33.5490   -6.2166   33.5082 C.ar    1  UNL1       -0.0003
     26 C         -33.4938   -7.5877   33.4039 C.ar    1  UNL1       -0.0000
     27 C         -32.4869   -8.2054   32.7606 C.ar    1  UNL1       -0.0003
     28 C         -31.4794   -7.4704   32.1651 C.ar    1  UNL1       -0.0038
     29 O         -31.6978   -3.3379   31.2348 O.2     1  UNL1       -0.2740
@<TRIPOS>BOND
     1     3     4    1
     2     6    13    1
     3    13    14    2
     4    13    15   am
     5    15    16   am
     6    12    17    1
     7    16    18    1
     8    19    20    1
     9    15    21    1
    10     7    22    1
    11    21    22    1
    12    18    23    1
    13    16    29    2
    14    18    19    1
    15    20    21    1
    16    23    24   ar
    17    24    25   ar
    18    25    26   ar
    19    26    27   ar
    20    27    28   ar
    21    28    23   ar
    22     1     2   ar
    23     2     3   ar
    24     3     8   ar
    25     8     7   ar
    26     7     6   ar
    27     6     1   ar
    28     4     5   ar
    29     5     9   ar
    30     9    10   ar
    31    10    12   ar
    32    12    11   ar
    33    11     4   ar
