@<TRIPOS>MOLECULE
outputs/IAG933/test6/raw/output_4968_IAG933_linker_design_.xyz
 41 43 0 0 0
SMALL
GASTEIGER

@<TRIPOS>ATOM
      1 C         -24.8550   -1.0120   30.1430 C.3     1  UNL1        0.0408
      2 C         -24.9730   -2.5050   29.7880 C.2     1  UNL1       -0.0211
      3 C         -23.9060   -3.1730   29.1460 C.2     1  UNL1       -0.0042
      4 C         -23.9890   -4.5490   28.8530 C.2     1  UNL1       -0.0003
      5 C         -25.1370   -5.2800   29.2050 C.2     1  UNL1       -0.0000
      6 C         -26.2320   -4.6110   29.7840 C.2     1  UNL1       -0.0003
      7 C         -26.1550   -3.2320   30.0650 C.2     1  UNL1       -0.0042
      8 C         -25.3870   -0.6790   31.5710 C.3     1  UNL1        0.0769
      9 C         -25.1890    0.7730   32.0280 C.3     1  UNL1        0.0192
     10 C         -25.3360    0.6840   33.5440 C.3     1  UNL1        0.0202
     11 C         -24.8290   -0.7150   33.9050 C.3     1  UNL1        0.0887
     12 N         -24.7580   -1.4810   32.6460 N.3     1  UNL1       -0.2191
     13 C         -25.6880    1.6140   26.4610 C.3     1  UNL1        0.0889
     14 C         -26.2500    2.9200   26.3950 C.2     1  UNL1        0.0561
     15 C         -25.6420    4.0930   27.1230 C.2     1  UNL1        0.2625
     16 N         -25.6140    5.2520   26.4490 N.am    1  UNL1       -0.2000
     17 C         -25.0260    6.4790   26.9630 C.3     1  UNL1        0.1388
     18 O         -25.1430    3.9660   28.2430 O.2     1  UNL1       -0.2687
     19 C         -27.4380    3.0910   25.6450 C.2     1  UNL1        0.1022
     20 N         -28.0750    2.0890   25.0030 N.2     1  UNL1       -0.2119
     21 C         -27.5430    0.8490   25.0790 C.2     1  UNL1        0.2341
     22 O         -28.1930   -0.2080   24.4770 O.2     1  UNL1       -0.4585
     23 C         -29.4600    0.0050   23.8660 C.3     1  UNL1        0.2423
     24 C         -30.0650   -1.3770   23.5730 C.3     1  UNL1        0.2292
     25 O         -30.7290   -1.8780   24.7210 O.3     1  UNL1       -0.2162
     26 C         -26.3540    0.5760   25.7770 C.3     1  UNL1        0.2413
     27 F         -25.8600   -0.6810   25.7950 F       1  UNL1       -0.2269
     28 O         -24.3319    1.2523   28.9943 O.3     1  UNL1       -0.3419
     29 C         -24.2238    1.4550   26.5698 C.3     1  UNL1        0.1300
     30 C         -27.2654    1.0507   28.8844 C.3     1  UNL1        0.0323
     31 C         -29.3549   -0.0996   28.6267 C.3     1  UNL1        0.1874
     32 C         -29.9007    0.9350   29.6162 C.3     1  UNL1        0.2124
     33 C         -25.8541    1.2955   28.9306 C.3     1  UNL1        0.1172
     34 N         -29.9940    2.2684   29.1195 N.3     1  UNL1       -0.1093
     35 N         -31.2254    0.4345   29.8681 N.3     1  UNL1       -0.1093
     36 O         -29.8278    0.1236   27.3305 O.3     1  UNL1       -0.2200
     37 CL        -23.2277    2.2699   25.3738 Cl      1  UNL1       -0.1106
     38 C         -25.2100    0.0022   29.0336 C.3     1  UNL1        0.0353
     39 C         -27.8385   -0.2084   28.6499 C.3     1  UNL1        0.0385
     40 C         -23.3917    1.1255   27.8624 C.3     1  UNL1        0.2091
     41 CL        -21.5706    1.5262   27.8562 Cl      1  UNL1       -0.0809
@<TRIPOS>BOND
     1     1    38    1
     2     2     7    1
     3     2     1    1
     4     3     2    2
     5     4     3    1
     6     4     5    2
     7     5     6    1
     8     6     7    2
     9     8     1    1
    10     8     9    1
    11     8    12    1
    12     9    10    1
    13    10    11    1
    14    12    11    1
    15    13    29    1
    16    14    13    1
    17    14    15    1
    18    15    18    2
    19    16    17    1
    20    16    15    1
    21    19    14    2
    22    20    21    2
    23    20    19    1
    24    21    26    1
    25    22    21    1
    26    23    22    1
    27    24    23    1
    28    24    25    1
    29    26    27    1
    30    26    13    1
    31    29    37    1
    32    29    40    1
    33    31    36    1
    34    31    39    1
    35    31    32    1
    36    32    35    1
    37    33    30    1
    38    33    28    1
    39    33    38    1
    40    34    32    1
    41    39    30    1
    42    40    41    1
    43    40    28    1
