@<TRIPOS>MOLECULE
outputs/IAG933/test6/raw/output_4969_IAG933_linker_design_.xyz
 41 44 0 0 0
SMALL
GASTEIGER

@<TRIPOS>ATOM
      1 C         -24.8550   -1.0120   30.1430 C.3     1  UNL1        0.1502
      2 C         -24.9730   -2.5050   29.7880 C.2     1  UNL1       -0.0094
      3 C         -23.9060   -3.1730   29.1460 C.2     1  UNL1       -0.0037
      4 C         -23.9890   -4.5490   28.8530 C.2     1  UNL1       -0.0003
      5 C         -25.1370   -5.2800   29.2050 C.2     1  UNL1       -0.0000
      6 C         -26.2320   -4.6110   29.7840 C.2     1  UNL1       -0.0003
      7 C         -26.1550   -3.2320   30.0650 C.2     1  UNL1       -0.0037
      8 C         -25.3870   -0.6790   31.5710 C.3     1  UNL1        0.0887
      9 C         -25.1890    0.7730   32.0280 C.3     1  UNL1        0.0198
     10 C         -25.3360    0.6840   33.5440 C.3     1  UNL1        0.0203
     11 C         -24.8290   -0.7150   33.9050 C.3     1  UNL1        0.0887
     12 N         -24.7580   -1.4810   32.6460 N.3     1  UNL1       -0.2185
     13 C         -25.6880    1.6140   26.4610 C.2     1  UNL1        0.2208
     14 C         -26.2500    2.9200   26.3950 C.2     1  UNL1        0.1175
     15 C         -25.6420    4.0930   27.1230 C.2     1  UNL1        0.2699
     16 N         -25.6140    5.2520   26.4490 N.am    1  UNL1       -0.1996
     17 C         -25.0260    6.4790   26.9630 C.3     1  UNL1        0.1388
     18 O         -25.1430    3.9660   28.2430 O.2     1  UNL1       -0.2682
     19 C         -27.4380    3.0910   25.6450 C.2     1  UNL1        0.1103
     20 N         -28.0750    2.0890   25.0030 N.2     1  UNL1       -0.2078
     21 C         -27.5430    0.8490   25.0790 C.2     1  UNL1        0.2569
     22 O         -28.1930   -0.2080   24.4770 O.2     1  UNL1       -0.4557
     23 C         -29.4600    0.0050   23.8660 C.3     1  UNL1        0.2426
     24 C         -30.0650   -1.3770   23.5730 C.3     1  UNL1        0.2292
     25 O         -30.7290   -1.8780   24.7210 O.3     1  UNL1       -0.2162
     26 C         -26.3540    0.5760   25.7770 C.2     1  UNL1        0.2336
     27 F         -25.8600   -0.6810   25.7950 F       1  UNL1       -0.1954
     28 O         -23.3119    3.5469   25.3249 O.co2   1  UNL1       -0.1996
     29 C         -22.7758    2.4560   25.3857 C.2     1  UNL1        0.5588
     30 C         -22.1210    0.8566   27.8972 C.3     1  UNL1        0.2736
     31 C         -21.2384    1.7215   27.2722 C.2     1  UNL1        0.3455
     32 N         -22.7120   -0.4713   29.6895 N.2     1  UNL1       -0.0414
     33 N         -24.3496    0.4172   28.1900 N.2     1  UNL1        0.0024
     34 O         -21.6055    2.3374   26.0505 O.3     1  UNL1       -0.3575
     35 N         -24.5356    1.3880   27.1946 N.pl3   1  UNL1       -0.0060
     36 O         -23.2316    1.4465   24.7601 O.co2   1  UNL1       -0.1996
     37 O         -20.0617    1.8853   27.7632 O.2     1  UNL1       -0.2484
     38 C         -23.6644    0.9061   27.6735 C.2     1  UNL1        0.3643
     39 C         -20.7399   -0.8201   29.0457 C.2     1  UNL1        0.0466
     40 C         -21.8103   -0.1104   28.8691 C.2     1  UNL1        0.1931
     41 C         -23.9242   -0.3178   29.3254 C.2     1  UNL1        0.3596
@<TRIPOS>BOND
     1     1    41    1
     2     2     7    1
     3     2     1    1
     4     3     2    2
     5     4     3    1
     6     4     5    2
     7     5     6    1
     8     6     7    2
     9     8     1    1
    10     8     9    1
    11     8    12    1
    12     9    10    1
    13    10    11    1
    14    12    11    1
    15    13    35    1
    16    14    13    1
    17    14    15    1
    18    15    18    2
    19    16    17    1
    20    16    15    1
    21    19    14    2
    22    20    21    2
    23    20    19    1
    24    21    26    1
    25    22    21    1
    26    23    22    1
    27    24    23    1
    28    24    25    1
    29    26    27    1
    30    26    13    2
    31    28    29   ar
    32    29    34    1
    33    30    31    1
    34    30    40    1
    35    31    37    2
    36    33    41    1
    37    34    31    1
    38    35    38    1
    39    36    29   ar
    40    38    30    1
    41    38    33    2
    42    40    39    2
    43    40    32    1
    44    41    32    2
