@<TRIPOS>MOLECULE
outputs/IAG933/test6/raw/output_497_IAG933_linker_design_.xyz
 41 44 0 0 0
SMALL
GASTEIGER

@<TRIPOS>ATOM
      1 C         -24.8550   -1.0120   30.1430 C.3     1  UNL1        0.0984
      2 C         -24.9730   -2.5050   29.7880 C.2     1  UNL1       -0.0064
      3 C         -23.9060   -3.1730   29.1460 C.2     1  UNL1       -0.0029
      4 C         -23.9890   -4.5490   28.8530 C.2     1  UNL1       -0.0003
      5 C         -25.1370   -5.2800   29.2050 C.2     1  UNL1       -0.0000
      6 C         -26.2320   -4.6110   29.7840 C.2     1  UNL1       -0.0003
      7 C         -26.1550   -3.2320   30.0650 C.2     1  UNL1       -0.0029
      8 C         -25.3870   -0.6790   31.5710 C.3     1  UNL1        0.0916
      9 C         -25.1890    0.7730   32.0280 C.3     1  UNL1        0.0206
     10 C         -25.3360    0.6840   33.5440 C.3     1  UNL1        0.0203
     11 C         -24.8290   -0.7150   33.9050 C.3     1  UNL1        0.0888
     12 N         -24.7580   -1.4810   32.6460 N.3     1  UNL1       -0.2178
     13 C         -25.6880    1.6140   26.4610 C.3     1  UNL1        0.0740
     14 C         -26.2500    2.9200   26.3950 C.2     1  UNL1        0.0549
     15 C         -25.6420    4.0930   27.1230 C.2     1  UNL1        0.2624
     16 N         -25.6140    5.2520   26.4490 N.am    1  UNL1       -0.2000
     17 C         -25.0260    6.4790   26.9630 C.3     1  UNL1        0.1388
     18 O         -25.1430    3.9660   28.2430 O.2     1  UNL1       -0.2687
     19 C         -27.4380    3.0910   25.6450 C.2     1  UNL1        0.1021
     20 N         -28.0750    2.0890   25.0030 N.2     1  UNL1       -0.2119
     21 C         -27.5430    0.8490   25.0790 C.2     1  UNL1        0.2341
     22 O         -28.1930   -0.2080   24.4770 O.2     1  UNL1       -0.4585
     23 C         -29.4600    0.0050   23.8660 C.3     1  UNL1        0.2423
     24 C         -30.0650   -1.3770   23.5730 C.3     1  UNL1        0.2292
     25 O         -30.7290   -1.8780   24.7210 O.3     1  UNL1       -0.2162
     26 C         -26.3540    0.5760   25.7770 C.3     1  UNL1        0.2401
     27 F         -25.8600   -0.6810   25.7950 F       1  UNL1       -0.2269
     28 C         -29.0617    2.6462   29.1826 C.3     1  UNL1        0.1121
     29 N         -28.6306    1.6070   30.2181 N.am    1  UNL1       -0.2627
     30 O         -28.6804   -0.5820   29.5512 O.2     1  UNL1       -0.2733
     31 C         -24.3456    1.4404   26.8665 C.3     1  UNL1        0.0546
     32 N         -25.3871   -0.1445   28.9509 N.3     1  UNL1       -0.2390
     33 O         -22.8010    0.2763   28.0801 O.3     1  UNL1       -0.3382
     34 C         -31.0723    3.5855   32.3241 C.3     1  UNL1        0.0910
     35 C         -24.2799    0.6669   28.2085 C.3     1  UNL1        0.1773
     36 C         -21.8584    1.3178   27.6849 C.3     1  UNL1        0.1758
     37 N         -30.0882    3.0421   31.3587 N.3     1  UNL1       -0.2527
     38 C         -30.1756    3.4007   29.9078 C.3     1  UNL1        0.0952
     39 C         -26.9746   -0.0357   29.1855 C.3     1  UNL1        0.1607
     40 C         -28.1809    0.3938   29.6868 C.2     1  UNL1        0.2431
     41 C         -28.9751    2.1025   31.5621 C.3     1  UNL1        0.1711
@<TRIPOS>BOND
     1     1    32    1
     2     2     7    1
     3     2     1    1
     4     3     2    2
     5     4     3    1
     6     4     5    2
     7     5     6    1
     8     6     7    2
     9     8     1    1
    10     8     9    1
    11     8    12    1
    12     9    10    1
    13    10    11    1
    14    12    11    1
    15    13    31    1
    16    14    13    1
    17    14    15    1
    18    15    18    2
    19    16    17    1
    20    16    15    1
    21    19    14    2
    22    20    21    2
    23    20    19    1
    24    21    26    1
    25    22    21    1
    26    23    22    1
    27    24    23    1
    28    24    25    1
    29    26    27    1
    30    26    13    1
    31    28    38    1
    32    28    29    1
    33    29    41    1
    34    30    40    2
    35    32    39    1
    36    33    35    1
    37    35    31    1
    38    35    32    1
    39    36    33    1
    40    37    41    1
    41    37    34    1
    42    38    37    1
    43    39    40    1
    44    40    29   am
