@<TRIPOS>MOLECULE
outputs/IAG933/test6/raw/output_4974_IAG933_linker_design_.xyz
 41 45 0 0 0
SMALL
GASTEIGER

@<TRIPOS>ATOM
      1 C         -24.8550   -1.0120   30.1430 C.3     1  UNL1        0.1282
      2 C         -24.9730   -2.5050   29.7880 C.2     1  UNL1       -0.0003
      3 C         -23.9060   -3.1730   29.1460 C.2     1  UNL1       -0.0024
      4 C         -23.9890   -4.5490   28.8530 C.2     1  UNL1       -0.0003
      5 C         -25.1370   -5.2800   29.2050 C.2     1  UNL1       -0.0000
      6 C         -26.2320   -4.6110   29.7840 C.2     1  UNL1       -0.0003
      7 C         -26.1550   -3.2320   30.0650 C.2     1  UNL1       -0.0024
      8 C         -25.3870   -0.6790   31.5710 C.3     1  UNL1        0.0978
      9 C         -25.1890    0.7730   32.0280 C.3     1  UNL1        0.0211
     10 C         -25.3360    0.6840   33.5440 C.3     1  UNL1        0.0203
     11 C         -24.8290   -0.7150   33.9050 C.3     1  UNL1        0.0888
     12 N         -24.7580   -1.4810   32.6460 N.3     1  UNL1       -0.2172
     13 C         -25.6880    1.6140   26.4610 C.3     1  UNL1        0.1598
     14 C         -26.2500    2.9200   26.3950 C.2     1  UNL1        0.0758
     15 C         -25.6420    4.0930   27.1230 C.2     1  UNL1        0.2642
     16 N         -25.6140    5.2520   26.4490 N.am    1  UNL1       -0.1999
     17 C         -25.0260    6.4790   26.9630 C.3     1  UNL1        0.1388
     18 O         -25.1430    3.9660   28.2430 O.2     1  UNL1       -0.2686
     19 C         -27.4380    3.0910   25.6450 C.2     1  UNL1        0.1040
     20 N         -28.0750    2.0890   25.0030 N.2     1  UNL1       -0.2117
     21 C         -27.5430    0.8490   25.0790 C.2     1  UNL1        0.2361
     22 O         -28.1930   -0.2080   24.4770 O.2     1  UNL1       -0.4585
     23 C         -29.4600    0.0050   23.8660 C.3     1  UNL1        0.2423
     24 C         -30.0650   -1.3770   23.5730 C.3     1  UNL1        0.2292
     25 O         -30.7290   -1.8780   24.7210 O.3     1  UNL1       -0.2162
     26 C         -26.3540    0.5760   25.7770 C.3     1  UNL1        0.2608
     27 F         -25.8600   -0.6810   25.7950 F       1  UNL1       -0.2248
     28 C         -23.5858    1.1378   27.6978 C.ar    1  UNL1        0.0811
     29 O         -26.3755    1.5622   29.1467 O.2     1  UNL1       -0.2463
     30 F         -21.3174    2.3900   24.9566 F       1  UNL1       -0.1955
     31 C         -22.3185    2.0640   25.6011 C.3     1  UNL1        0.3387
     32 O         -23.5026    2.0558   24.9855 O.3     1  UNL1       -0.1410
     33 C         -22.3375    0.2481   29.4809 C.2     1  UNL1        0.0188
     34 C         -21.2012    1.3574   27.6471 C.2     1  UNL1        0.0025
     35 C         -21.1991    0.7341   28.8536 C.2     1  UNL1        0.0014
     36 F         -23.6731    0.7998   24.6624 F       1  UNL1       -0.0439
     37 N         -24.8866    1.2368   27.5100 N.ar    1  UNL1       -0.2747
     38 C         -25.3849    0.8608   28.7092 C.ar    1  UNL1        0.3320
     39 C         -22.4074    1.5571   26.9842 C.2     1  UNL1        0.0589
     40 C         -23.5365    0.4571   28.8896 C.ar    1  UNL1        0.0798
     41 N         -24.6925    0.0849   29.3338 N.ar    1  UNL1       -0.2766
@<TRIPOS>BOND
     1     1     2    1
     2     2     7    1
     3     3     2    2
     4     4     3    1
     5     4     5    2
     6     5     6    1
     7     6     7    2
     8     8     1    1
     9     8     9    1
    10     8    12    1
    11     9    10    1
    12    10    11    1
    13    12    11    1
    14    13    37    1
    15    14    13    1
    16    14    15    1
    17    15    18    2
    18    16    17    1
    19    16    15    1
    20    19    14    2
    21    20    21    2
    22    20    19    1
    23    21    26    1
    24    22    21    1
    25    23    22    1
    26    24    23    1
    27    24    25    1
    28    26    27    1
    29    26    13    1
    30    28    40   ar
    31    31    30    1
    32    31    39    1
    33    32    31    1
    34    34    35    2
    35    35    33    1
    36    36    32    1
    37    37    28   ar
    38    37    38   ar
    39    38    29    2
    40    38    41   ar
    41    39    34    1
    42    39    28    2
    43    40    41   ar
    44    40    33    2
    45    41     1    1
