@<TRIPOS>MOLECULE
No_4975-gen_results/8p0m/2024-11-27-11-27-31/
 19 20 0 0 0
SMALL
GASTEIGER

@<TRIPOS>ATOM
      1 C         -28.0162   -0.8135   28.8779 C.ar    1  UNL1        0.0066
      2 C         -28.4690   -0.7850   29.8287 C.ar    1  UNL1        0.0798
      3 C         -27.0871    0.2903   28.6377 C.ar    1  UNL1        0.0016
      4 C         -26.8317    1.2487   29.5869 C.ar    1  UNL1        0.0001
      5 C         -28.3914    0.0801   31.0065 C.ar    1  UNL1        0.0066
      6 C         -27.4940    1.1521   30.7841 C.ar    1  UNL1        0.0002
      7 C         -26.3172    0.3994   27.3653 C.ar    1  UNL1        0.0182
      8 C         -26.8815    0.9711   26.3721 C.ar    1  UNL1        0.0582
      9 C         -26.1464    0.9703   25.0973 C.ar    1  UNL1        0.0114
     10 C         -24.7793    0.5609   25.1117 C.ar    1  UNL1        0.0015
     11 C         -25.0074   -0.1159   27.2986 C.ar    1  UNL1        0.0424
     12 C         -24.2881    0.0057   26.2234 C.ar    1  UNL1        0.0083
     13 C         -24.3927   -0.7309   28.5286 C.1     1  UNL1       -0.0643
     14 C         -23.5733   -1.2064   29.0224 C.1     1  UNL1       -0.0854
     15 C         -22.4103   -1.4745   29.7716 C.3     1  UNL1        0.0903
     16 CL        -28.4389    1.6940   26.1861 Cl      1  UNL1       -0.0822
     17 C         -29.5066   -1.9831   30.2272 C.2     1  UNL1        0.3878
     18 O         -30.1355   -1.9041   31.2021 O.co2   1  UNL1       -0.2406
     19 O         -29.4956   -2.9554   29.4710 O.co2   1  UNL1       -0.2406
@<TRIPOS>BOND
     1     3     7    1
     2    11    13    1
     3    13    14    3
     4    14    15    1
     5     8    16    1
     6     2    17    1
     7    17    18   ar
     8    17    19   ar
     9     7     8   ar
    10     8     9   ar
    11     9    10   ar
    12    10    12   ar
    13    12    11   ar
    14    11     7   ar
    15     1     2   ar
    16     2     5   ar
    17     5     6   ar
    18     6     4   ar
    19     4     3   ar
    20     3     1   ar
