@<TRIPOS>MOLECULE
outputs/IAG933/test6/raw/output_4977_IAG933_linker_design_.xyz
 43 46 0 0 0
SMALL
GASTEIGER

@<TRIPOS>ATOM
      1 C         -24.8550   -1.0120   30.1430 C.3     1  UNL1        0.1142
      2 C         -24.9730   -2.5050   29.7880 C.2     1  UNL1       -0.0029
      3 C         -23.9060   -3.1730   29.1460 C.2     1  UNL1       -0.0026
      4 C         -23.9890   -4.5490   28.8530 C.2     1  UNL1       -0.0003
      5 C         -25.1370   -5.2800   29.2050 C.2     1  UNL1       -0.0000
      6 C         -26.2320   -4.6110   29.7840 C.2     1  UNL1       -0.0003
      7 C         -26.1550   -3.2320   30.0650 C.2     1  UNL1       -0.0026
      8 C         -25.3870   -0.6790   31.5710 C.3     1  UNL1        0.0951
      9 C         -25.1890    0.7730   32.0280 C.3     1  UNL1        0.0209
     10 C         -25.3360    0.6840   33.5440 C.3     1  UNL1        0.0203
     11 C         -24.8290   -0.7150   33.9050 C.3     1  UNL1        0.0888
     12 N         -24.7580   -1.4810   32.6460 N.3     1  UNL1       -0.2174
     13 C         -25.6880    1.6140   26.4610 C.3     1  UNL1        0.0946
     14 C         -26.2500    2.9200   26.3950 C.2     1  UNL1        0.0588
     15 C         -25.6420    4.0930   27.1230 C.2     1  UNL1        0.2627
     16 N         -25.6140    5.2520   26.4490 N.am    1  UNL1       -0.2000
     17 C         -25.0260    6.4790   26.9630 C.3     1  UNL1        0.1388
     18 O         -25.1430    3.9660   28.2430 O.2     1  UNL1       -0.2686
     19 C         -27.4380    3.0910   25.6450 C.2     1  UNL1        0.1025
     20 N         -28.0750    2.0890   25.0030 N.2     1  UNL1       -0.2118
     21 C         -27.5430    0.8490   25.0790 C.2     1  UNL1        0.2344
     22 O         -28.1930   -0.2080   24.4770 O.2     1  UNL1       -0.4585
     23 C         -29.4600    0.0050   23.8660 C.3     1  UNL1        0.2423
     24 C         -30.0650   -1.3770   23.5730 C.3     1  UNL1        0.2292
     25 O         -30.7290   -1.8780   24.7210 O.3     1  UNL1       -0.2162
     26 C         -26.3540    0.5760   25.7770 C.3     1  UNL1        0.2439
     27 F         -25.8600   -0.6810   25.7950 F       1  UNL1       -0.2265
     28 N         -22.1835    1.2841   27.7548 N.pl3   1  UNL1       -0.2280
     29 C         -23.5685    1.2159   27.7698 C.2     1  UNL1        0.0751
     30 O         -27.0459   -0.5080   28.1845 O.3     1  UNL1       -0.1959
     31 C         -24.2994    1.5361   26.6326 C.2     1  UNL1        0.0391
     32 C         -24.1965    0.9529   28.9276 C.2     1  UNL1        0.1392
     33 F         -20.4928    2.7741   27.3581 F       1  UNL1       -0.1800
     34 C         -23.8882    1.7316   29.9636 C.1     1  UNL1        0.1494
     35 C         -23.4261    1.6992   25.5486 C.3     1  UNL1        0.3028
     36 O         -23.4844    2.3515   30.6929 O.2     1  UNL1       -0.2298
     37 C         -21.5361    2.0488   26.9859 C.3     1  UNL1        0.3690
     38 N         -25.0810   -0.1061   29.1048 N.pl3   1  UNL1       -0.2674
     39 O         -22.1735    2.3138   25.6608 O.3     1  UNL1       -0.2786
     40 C         -26.2252   -0.2133   28.4575 C.3     1  UNL1        0.2790
     41 O         -20.1081    0.2782   28.4964 O.3     1  UNL1       -0.1958
     42 F         -23.9237    1.3050   24.4176 F       1  UNL1       -0.1990
     43 C         -21.3238    0.6894   28.6665 C.3     1  UNL1        0.2820
@<TRIPOS>BOND
     1     1    38    1
     2     2     7    1
     3     2     1    1
     4     3     2    2
     5     4     3    1
     6     4     5    2
     7     5     6    1
     8     6     7    2
     9     8     1    1
    10     8     9    1
    11     8    12    1
    12     9    10    1
    13    10    11    1
    14    12    11    1
    15    13    31    1
    16    14    13    1
    17    14    15    1
    18    15    18    2
    19    16    17    1
    20    16    15    1
    21    19    14    2
    22    20    21    2
    23    20    19    1
    24    21    26    1
    25    22    21    1
    26    23    22    1
    27    24    23    1
    28    24    25    1
    29    26    27    1
    30    26    13    1
    31    28    29    1
    32    28    43    1
    33    29    32    1
    34    30    40    1
    35    31    29    2
    36    32    38    1
    37    32    34    2
    38    34    36    2
    39    35    42    1
    40    35    39    1
    41    35    31    1
    42    37    33    1
    43    37    28    1
    44    39    37    1
    45    40    38    1
    46    41    43    1
