@<TRIPOS>MOLECULE
No_4978-gen_results/8p0m/2024-11-27-11-27-31/
 11 11 0 0 0
SMALL
GASTEIGER

@<TRIPOS>ATOM
      1 C         -28.0162   -0.8135   28.8779 C.ar    1  UNL1       -0.0003
      2 C         -27.0636   -0.1189   28.6079 C.ar    1  UNL1       -0.0039
      3 C         -25.7923   -0.4302   29.0761 C.ar    1  UNL1       -0.0178
      4 C         -24.6321    0.3096   28.7290 C.3     1  UNL1        0.0523
      5 C         -27.8949   -1.8615   29.8946 C.ar    1  UNL1       -0.0000
      6 C         -26.6706   -2.2977   30.3374 C.ar    1  UNL1       -0.0003
      7 C         -25.5508   -1.5631   29.9406 C.ar    1  UNL1       -0.0039
      8 C         -24.5848    1.2126   27.7201 C.2     1  UNL1       -0.0214
      9 C         -25.5523    1.6487   26.9447 C.2     1  UNL1       -0.0042
     10 C         -25.2291    2.5629   25.9935 C.2     1  UNL1       -0.0003
     11 C         -23.9086    3.0755   25.9333 C.2     1  UNL1       -0.0000
@<TRIPOS>BOND
     1     4     8    1
     2     8     9    2
     3     9    10    1
     4    10    11    2
     5     4     3    1
     6     1     2   ar
     7     2     3   ar
     8     3     7   ar
     9     7     6   ar
    10     6     5   ar
    11     5     1   ar
