@<TRIPOS>MOLECULE
outputs/IAG933/test6/raw/output_4979_IAG933_linker_design_.xyz
 51 54 0 0 0
SMALL
GASTEIGER

@<TRIPOS>ATOM
      1 C         -24.8550   -1.0120   30.1430 C.3     1  UNL1        0.0586
      2 C         -24.9730   -2.5050   29.7880 C.2     1  UNL1       -0.0195
      3 C         -23.9060   -3.1730   29.1460 C.2     1  UNL1       -0.0042
      4 C         -23.9890   -4.5490   28.8530 C.2     1  UNL1       -0.0003
      5 C         -25.1370   -5.2800   29.2050 C.2     1  UNL1       -0.0000
      6 C         -26.2320   -4.6110   29.7840 C.2     1  UNL1       -0.0003
      7 C         -26.1550   -3.2320   30.0650 C.2     1  UNL1       -0.0042
      8 C         -25.3870   -0.6790   31.5710 C.3     1  UNL1        0.0785
      9 C         -25.1890    0.7730   32.0280 C.3     1  UNL1        0.0192
     10 C         -25.3360    0.6840   33.5440 C.3     1  UNL1        0.0202
     11 C         -24.8290   -0.7150   33.9050 C.3     1  UNL1        0.0887
     12 N         -24.7580   -1.4810   32.6460 N.3     1  UNL1       -0.2191
     13 C         -25.6880    1.6140   26.4610 C.3     1  UNL1        0.1070
     14 C         -26.2500    2.9200   26.3950 C.2     1  UNL1        0.0602
     15 C         -25.6420    4.0930   27.1230 C.2     1  UNL1        0.2628
     16 N         -25.6140    5.2520   26.4490 N.am    1  UNL1       -0.2000
     17 C         -25.0260    6.4790   26.9630 C.3     1  UNL1        0.1388
     18 O         -25.1430    3.9660   28.2430 O.2     1  UNL1       -0.2686
     19 C         -27.4380    3.0910   25.6450 C.2     1  UNL1        0.1025
     20 N         -28.0750    2.0890   25.0030 N.2     1  UNL1       -0.2118
     21 C         -27.5430    0.8490   25.0790 C.2     1  UNL1        0.2345
     22 O         -28.1930   -0.2080   24.4770 O.2     1  UNL1       -0.4573
     23 C         -29.4600    0.0050   23.8660 C.3     1  UNL1        0.2539
     24 C         -30.0650   -1.3770   23.5730 C.3     1  UNL1        0.2521
     25 O         -30.7290   -1.8780   24.7210 O.2     1  UNL1       -0.4744
     26 C         -26.3540    0.5760   25.7770 C.3     1  UNL1        0.2453
     27 F         -25.8600   -0.6810   25.7950 F       1  UNL1       -0.2265
     28 C         -28.4392    2.5320   29.8074 C.3     1  UNL1        0.0897
     29 C         -22.0637    1.5777   27.9832 C.3     1  UNL1        0.0271
     30 C         -30.7187    3.4596   29.4998 C.3     1  UNL1        0.0897
     31 C         -30.1469    1.2506   28.7356 C.3     1  UNL1        0.0800
     32 O         -28.9603   -1.3209   30.0294 O.2     1  UNL1       -0.2960
     33 N         -25.0555    1.0505   28.9079 N.pl3   1  UNL1       -0.2427
     34 N         -33.6426   -0.8287   26.7984 N.pl3   1  UNL1       -0.3022
     35 C         -32.9366   -1.5244   25.8597 C.2     1  UNL1        0.0942
     36 C         -30.9577   -0.2508   26.5453 C.3     1  UNL1        0.0762
     37 C         -31.5544   -1.2493   25.6574 C.2     1  UNL1        0.1312
     38 C         -31.3840    1.8633   26.6125 C.2     1  UNL1        0.2624
     39 C         -24.7365    1.5599   27.5356 C.2     1  UNL1        0.0458
     40 C         -28.5517   -0.5923   29.1741 C.2     1  UNL1        0.1538
     41 C         -25.7148   -0.2296   29.1848 C.3     1  UNL1        0.1047
     42 N         -29.6805    2.5555   29.1038 N.3     1  UNL1       -0.2699
     43 N         -32.3300    2.7860   26.4792 N.am    1  UNL1       -0.0877
     44 C         -29.5726    0.2514   28.5419 C.3     1  UNL1        0.0818
     45 C         -23.2765    1.9322   27.0916 C.2     1  UNL1       -0.0140
     46 C         -31.8516    0.6672   26.9304 C.3     1  UNL1        0.1070
     47 C         -33.1146    0.2728   27.3921 C.3     1  UNL1        0.1005
     48 C         -22.2571    0.3239   28.9168 C.3     1  UNL1        0.0050
     49 O         -30.1937    2.2251   26.3307 O.2     1  UNL1       -0.2716
     50 C         -35.0109   -1.2950   27.1156 C.3     1  UNL1        0.1123
     51 C         -27.0268   -0.6551   28.7606 C.3     1  UNL1        0.0864
@<TRIPOS>BOND
     1     1    41    1
     2     2     7    1
     3     2     1    1
     4     3     2    2
     5     4     3    1
     6     4     5    2
     7     5     6    1
     8     6     7    2
     9     8     1    1
    10     8     9    1
    11     8    12    1
    12     9    10    1
    13    10    11    1
    14    12    11    1
    15    13    39    1
    16    14    13    1
    17    14    15    1
    18    15    18    2
    19    16    17    1
    20    16    15    1
    21    19    14    2
    22    20    21    2
    23    20    19    1
    24    21    26    1
    25    22    21    1
    26    23    22    1
    27    24    23    1
    28    24    25    1
    29    25    37    1
    30    26    27    1
    31    26    13    1
    32    29    48    1
    33    31    42    1
    34    33    41    1
    35    34    50    1
    36    34    47    1
    37    35    34    1
    38    36    46    1
    39    37    35    2
    40    37    36    1
    41    39    33    1
    42    40    32    2
    43    41    51    1
    44    42    30    1
    45    42    28    1
    46    43    38    1
    47    44    31    1
    48    44    40    1
    49    45    39    2
    50    45    29    1
    51    46    38    1
    52    46    47    1
    53    49    38    2
    54    51    40    1
