@<TRIPOS>MOLECULE
No_498-gen_results/8p0m/2024-11-27-11-27-31/
 13 13 0 0 0
SMALL
GASTEIGER

@<TRIPOS>ATOM
      1 C         -28.0162   -0.8135   28.8779 C.ar    1  UNL1       -0.0043
      2 C         -28.4690   -0.7850   29.8287 C.ar    1  UNL1       -0.0003
      3 C         -26.5042   -0.7777   28.8766 C.ar    1  UNL1       -0.0219
      4 C         -25.7622   -0.0022   27.9705 C.3     1  UNL1        0.0307
      5 C         -25.2031    1.1747   28.5115 C.3     1  UNL1        0.0260
      6 C         -25.5666    2.2906   28.2711 C.2     1  UNL1       -0.0307
      7 C         -28.0041   -1.5442   30.9787 C.ar    1  UNL1       -0.0000
      8 C         -26.6070   -1.7006   31.0737 C.ar    1  UNL1       -0.0003
      9 C         -25.8052   -1.3042   30.0126 C.ar    1  UNL1       -0.0043
     10 C         -23.8553    0.9499   29.1396 C.3     1  UNL1        0.0047
     11 C         -24.9550    3.5552   28.4780 C.2     1  UNL1       -0.0304
     12 C         -23.2093   -0.3105   29.3208 C.3     1  UNL1        0.0004
     13 C         -25.6543    4.7441   28.2810 C.3     1  UNL1        0.0303
@<TRIPOS>BOND
     1     3     4    1
     2     4     5    1
     3     5     6    1
     4     5    10    1
     5     6    11    2
     6    10    12    1
     7    11    13    1
     8     1     2   ar
     9     2     7   ar
    10     7     8   ar
    11     8     9   ar
    12     9     3   ar
    13     3     1   ar
