@<TRIPOS>MOLECULE
outputs/IAG933/test6/raw/output_4980_IAG933_linker_design_.xyz
 46 48 0 0 0
SMALL
GASTEIGER

@<TRIPOS>ATOM
      1 C         -24.8550   -1.0120   30.1430 C.3     1  UNL1        0.0438
      2 C         -24.9730   -2.5050   29.7880 C.2     1  UNL1       -0.0208
      3 C         -23.9060   -3.1730   29.1460 C.2     1  UNL1       -0.0042
      4 C         -23.9890   -4.5490   28.8530 C.2     1  UNL1       -0.0003
      5 C         -25.1370   -5.2800   29.2050 C.2     1  UNL1       -0.0000
      6 C         -26.2320   -4.6110   29.7840 C.2     1  UNL1       -0.0003
      7 C         -26.1550   -3.2320   30.0650 C.2     1  UNL1       -0.0042
      8 C         -25.3870   -0.6790   31.5710 C.3     1  UNL1        0.0795
      9 C         -25.1890    0.7730   32.0280 C.3     1  UNL1        0.0450
     10 C         -25.3360    0.6840   33.5440 C.3     1  UNL1        0.0226
     11 C         -24.8290   -0.7150   33.9050 C.3     1  UNL1        0.0888
     12 N         -24.7580   -1.4810   32.6460 N.3     1  UNL1       -0.2190
     13 C         -25.6880    1.6140   26.4610 C.2     1  UNL1        0.0407
     14 C         -26.2500    2.9200   26.3950 C.2     1  UNL1        0.0744
     15 C         -25.6420    4.0930   27.1230 C.2     1  UNL1        0.2219
     16 N         -25.6140    5.2520   26.4490 N.2     1  UNL1       -0.2357
     17 C         -25.0260    6.4790   26.9630 C.3     1  UNL1        0.1550
     18 O         -25.1430    3.9660   28.2430 O.2     1  UNL1       -0.4603
     19 C         -27.4380    3.0910   25.6450 C.2     1  UNL1        0.1068
     20 N         -28.0750    2.0890   25.0030 N.2     1  UNL1       -0.2081
     21 C         -27.5430    0.8490   25.0790 C.2     1  UNL1        0.2533
     22 O         -28.1930   -0.2080   24.4770 O.2     1  UNL1       -0.4558
     23 C         -29.4600    0.0050   23.8660 C.3     1  UNL1        0.2426
     24 C         -30.0650   -1.3770   23.5730 C.3     1  UNL1        0.2292
     25 O         -30.7290   -1.8780   24.7210 O.3     1  UNL1       -0.2162
     26 C         -26.3540    0.5760   25.7770 C.2     1  UNL1        0.1931
     27 F         -25.8600   -0.6810   25.7950 F       1  UNL1       -0.1992
     28 O         -25.6150    8.5962   29.7041 O.2     1  UNL1       -0.2246
     29 O         -24.6191    3.9697   32.3406 O.3     1  UNL1       -0.2190
     30 O         -23.7545    1.4517   30.1682 O.3     1  UNL1       -0.3562
     31 O         -26.2993    6.8323   30.9511 O.3     1  UNL1       -0.4307
     32 C         -21.9815    0.9918   28.4518 C.3     1  UNL1        0.0321
     33 C         -25.8909    2.5518   30.5081 C.3     1  UNL1        0.0360
     34 C         -26.2824    4.4371   29.0863 C.3     1  UNL1        0.2097
     35 C         -25.1988    6.0099   31.2912 C.3     1  UNL1        0.2429
     36 C         -26.0525    3.9766   30.3181 C.3     1  UNL1        0.0804
     37 C         -25.6433    4.6123   31.6364 C.3     1  UNL1        0.1991
     38 C         -23.3459    1.6548   28.7777 C.3     1  UNL1        0.1420
     39 N         -24.2938   10.7946   32.7772 N.2     1  UNL1       -0.1555
     40 C         -25.9923    8.1875   30.7940 C.2     1  UNL1        0.4216
     41 N         -26.1694    8.9308   31.8899 N.am    1  UNL1       -0.1625
     42 C         -24.9907    1.7696   30.9028 C.3     1  UNL1        0.1168
     43 C         -25.3344   11.2620   32.2909 C.2     1  UNL1        0.0806
     44 C         -26.5314   10.3253   32.1061 C.3     1  UNL1        0.1614
     45 C         -25.4834   12.7026   31.9274 C.3     1  UNL1        0.0510
     46 C         -21.3267    1.6906   27.2590 C.3     1  UNL1        0.0027
@<TRIPOS>BOND
     1     2     7    1
     2     2     1    1
     3     3     2    2
     4     4     3    1
     5     4     5    2
     6     5     6    1
     7     6     7    2
     8     8     1    1
     9     8     9    1
    10     8    12    1
    11     9    42    1
    12     9    10    1
    13    10    11    1
    14    12    11    1
    15    14    13    1
    16    14    15    1
    17    15    18    1
    18    16    17    1
    19    16    15    2
    20    18    34    1
    21    19    14    2
    22    20    21    2
    23    20    19    1
    24    21    26    1
    25    22    21    1
    26    23    22    1
    27    24    23    1
    28    24    25    1
    29    26    27    1
    30    26    13    2
    31    28    40    2
    32    30    42    1
    33    31    35    1
    34    32    38    1
    35    35    37    1
    36    36    34    1
    37    36    33    1
    38    36    37    1
    39    37    29    1
    40    38    30    1
    41    40    31    1
    42    40    41    1
    43    41    44    1
    44    42    33    1
    45    43    39    2
    46    44    43    1
    47    45    43    1
    48    46    32    1
