@<TRIPOS>MOLECULE
No_4981-gen_results/8p0m/2024-11-27-11-27-31/
 12 12 0 0 0
SMALL
GASTEIGER

@<TRIPOS>ATOM
      1 O         -28.1229   -1.3353   28.4874 O.2     1  UNL1       -0.2739
      2 C         -27.0637   -0.8242   28.8687 C.2     1  UNL1        0.2536
      3 C         -26.4017   -0.0623   28.6224 C.ar    1  UNL1        0.0504
      4 CL        -26.2555   -2.0060   30.2108 Cl      1  UNL1       -0.0382
      5 C         -26.8996    0.9613   27.6371 C.ar    1  UNL1        0.0041
      6 C         -26.0779    1.4664   26.7393 C.ar    1  UNL1        0.0003
      7 C         -24.6345    1.6472   27.0591 C.ar    1  UNL1        0.0048
      8 C         -24.1563    0.9302   28.1727 C.ar    1  UNL1        0.0595
      9 C         -22.7443    1.0080   28.5860 C.2     1  UNL1        0.2968
     10 C         -24.9401    0.0558   28.8252 C.ar    1  UNL1        0.0089
     11 N         -22.2503    0.0648   29.3251 N.2     1  UNL1       -0.1025
     12 O         -21.9061    1.7610   27.9092 O.2     1  UNL1       -0.2636
@<TRIPOS>BOND
     1     1     2    2
     2     2     3    1
     3     2     4    1
     4     8     9    1
     5     9    11    2
     6     9    12    1
     7     3     5   ar
     8     5     6   ar
     9     6     7   ar
    10     7     8   ar
    11     8    10   ar
    12    10     3   ar
