@<TRIPOS>MOLECULE
outputs/IAG933/test6/raw/output_4982_IAG933_linker_design_.xyz
 42 45 0 0 0
SMALL
GASTEIGER

@<TRIPOS>ATOM
      1 C         -24.8550   -1.0120   30.1430 C.3     1  UNL1        0.0978
      2 C         -24.9730   -2.5050   29.7880 C.2     1  UNL1       -0.0064
      3 C         -23.9060   -3.1730   29.1460 C.2     1  UNL1       -0.0029
      4 C         -23.9890   -4.5490   28.8530 C.2     1  UNL1       -0.0003
      5 C         -25.1370   -5.2800   29.2050 C.2     1  UNL1       -0.0000
      6 C         -26.2320   -4.6110   29.7840 C.2     1  UNL1       -0.0003
      7 C         -26.1550   -3.2320   30.0650 C.2     1  UNL1       -0.0029
      8 C         -25.3870   -0.6790   31.5710 C.3     1  UNL1        0.0916
      9 C         -25.1890    0.7730   32.0280 C.3     1  UNL1        0.0206
     10 C         -25.3360    0.6840   33.5440 C.3     1  UNL1        0.0203
     11 C         -24.8290   -0.7150   33.9050 C.3     1  UNL1        0.0888
     12 N         -24.7580   -1.4810   32.6460 N.3     1  UNL1       -0.2178
     13 C         -25.6880    1.6140   26.4610 C.3     1  UNL1        0.1027
     14 C         -26.2500    2.9200   26.3950 C.2     1  UNL1        0.0578
     15 C         -25.6420    4.0930   27.1230 C.2     1  UNL1        0.2625
     16 N         -25.6140    5.2520   26.4490 N.am    1  UNL1       -0.2000
     17 C         -25.0260    6.4790   26.9630 C.3     1  UNL1        0.1388
     18 O         -25.1430    3.9660   28.2430 O.2     1  UNL1       -0.2687
     19 C         -27.4380    3.0910   25.6450 C.2     1  UNL1        0.1022
     20 N         -28.0750    2.0890   25.0030 N.2     1  UNL1       -0.2119
     21 C         -27.5430    0.8490   25.0790 C.2     1  UNL1        0.2342
     22 O         -28.1930   -0.2080   24.4770 O.2     1  UNL1       -0.4585
     23 C         -29.4600    0.0050   23.8660 C.3     1  UNL1        0.2423
     24 C         -30.0650   -1.3770   23.5730 C.3     1  UNL1        0.2292
     25 O         -30.7290   -1.8780   24.7210 O.3     1  UNL1       -0.2162
     26 C         -26.3540    0.5760   25.7770 C.3     1  UNL1        0.2429
     27 F         -25.8600   -0.6810   25.7950 F       1  UNL1       -0.2268
     28 C         -27.4947    0.8893   29.1278 C.2     1  UNL1        0.2273
     29 O         -27.3856    1.8739   29.6967 O.2     1  UNL1       -0.2867
     30 C         -22.4942    0.8653   28.2434 C.2     1  UNL1        0.2271
     31 O         -22.6317   -0.0432   29.0532 O.2     1  UNL1       -0.2748
     32 N         -23.4548    1.3940   27.5109 N.am    1  UNL1       -0.2666
     33 N         -25.0512    0.0576   29.1292 N.3     1  UNL1       -0.2473
     34 C         -24.9191    1.0509   27.6190 C.3     1  UNL1        0.1362
     35 C         -22.9561    2.1000   26.2325 C.3     1  UNL1        0.1161
     36 C         -21.0945    1.2164   28.0486 C.3     1  UNL1        0.0949
     37 C         -29.6911    0.5194   27.9318 C.3     1  UNL1        0.2160
     38 C         -31.1081    0.6193   28.4613 C.3     1  UNL1        0.0441
     39 C         -26.1366    0.5111   28.4895 C.3     1  UNL1        0.1560
     40 C         -28.5687    0.0450   28.8077 C.2     1  UNL1        0.2389
     41 O         -29.7354   -0.5186   26.8981 O.3     1  UNL1       -0.2147
     42 O         -28.4936   -1.1706   29.1780 O.2     1  UNL1       -0.2856
@<TRIPOS>BOND
     1     1     2    1
     2     2     7    1
     3     3     2    2
     4     4     3    1
     5     4     5    2
     6     5     6    1
     7     6     7    2
     8     8     1    1
     9     8     9    1
    10     8    12    1
    11     9    10    1
    12    10    11    1
    13    12    11    1
    14    13    14    1
    15    13    34    1
    16    14    15    1
    17    15    18    2
    18    16    17    1
    19    16    15    1
    20    19    14    2
    21    20    21    2
    22    20    19    1
    23    21    26    1
    24    22    21    1
    25    23    22    1
    26    24    23    1
    27    24    25    1
    28    26    27    1
    29    26    13    1
    30    28    29    2
    31    30    31    2
    32    32    30   am
    33    33     1    1
    34    34    32    1
    35    34    39    1
    36    34    33    1
    37    35    32    1
    38    36    30    1
    39    37    38    1
    40    37    40    1
    41    39    28    1
    42    39    33    1
    43    40    28    1
    44    40    42    2
    45    41    37    1
