@<TRIPOS>MOLECULE
No_4983-gen_results/8p0m/2024-11-27-11-27-31/
 14 15 0 0 0
SMALL
GASTEIGER

@<TRIPOS>ATOM
      1 C         -28.0162   -0.8135   28.8779 C.ar    1  UNL1        0.0064
      2 C         -28.4690   -0.7850   29.8287 C.ar    1  UNL1        0.0005
      3 C         -26.5455   -0.8762   28.8500 C.ar    1  UNL1        0.0309
      4 C         -25.8041   -1.0324   30.0571 C.ar    1  UNL1       -0.0116
      5 C         -26.5373   -1.0386   31.2171 C.ar    1  UNL1       -0.0034
      6 C         -27.8843   -0.9532   31.1862 C.ar    1  UNL1       -0.0003
      7 C         -24.3555   -1.1121   30.0346 C.3     1  UNL1        0.0531
      8 C         -23.6610    0.1027   29.8448 C.ar    1  UNL1       -0.0178
      9 C         -22.4205    0.1575   29.1928 C.ar    1  UNL1       -0.0039
     10 C         -21.8312    1.3420   28.8564 C.ar    1  UNL1       -0.0003
     11 C         -24.1357    1.3453   30.3719 C.ar    1  UNL1       -0.0039
     12 C         -23.6601    2.5799   29.9545 C.ar    1  UNL1       -0.0003
     13 C         -22.4267    2.5972   29.1994 C.ar    1  UNL1       -0.0000
     14 BR        -25.5167   -0.7779   27.2555 Br      1  UNL1       -0.0493
@<TRIPOS>BOND
     1     4     7    1
     2     7     8    1
     3     3    14    1
     4     1     2   ar
     5     2     6   ar
     6     6     5   ar
     7     5     4   ar
     8     4     3   ar
     9     3     1   ar
    10     8     9   ar
    11     9    10   ar
    12    10    13   ar
    13    13    12   ar
    14    12    11   ar
    15    11     8   ar
