@<TRIPOS>MOLECULE
No_4985-gen_results/8p0m/2024-11-27-11-27-31/
 19 20 0 0 0
SMALL
GASTEIGER

@<TRIPOS>ATOM
      1 C         -28.0162   -0.8135   28.8779 C.ar    1  UNL1       -0.0065
      2 C         -28.4690   -0.7850   29.8287 C.ar    1  UNL1       -0.0010
      3 C         -26.5455   -0.8762   28.8500 C.ar    1  UNL1       -0.0180
      4 C         -25.6825   -0.7773   27.6829 C.3     1  UNL1        0.0526
      5 C         -27.9181   -1.0034   31.1877 C.ar    1  UNL1       -0.0026
      6 C         -26.5308   -1.0794   31.2463 C.ar    1  UNL1       -0.0006
      7 C         -25.7798   -1.0462   30.0905 C.ar    1  UNL1       -0.0040
      8 C         -25.2322    0.5793   27.3292 C.ar    1  UNL1       -0.0178
      9 C         -23.9816    0.8698   27.7676 C.ar    1  UNL1       -0.0039
     10 C         -23.4121    2.1478   27.3881 C.ar    1  UNL1       -0.0003
     11 C         -24.0639    2.9854   26.5439 C.ar    1  UNL1       -0.0000
     12 C         -25.8821    1.3934   26.4161 C.ar    1  UNL1       -0.0039
     13 C         -25.3273    2.5768   26.0292 C.ar    1  UNL1       -0.0003
     14 C         -30.0530   -0.7053   29.8901 C.3     1  UNL1        0.1386
     15 N         -30.5584   -0.0267   28.9251 N.pl3   1  UNL1       -0.2315
     16 C         -31.5228    0.6834   28.9458 C.2     1  UNL1        0.0805
     17 C         -31.8817    1.6366   28.7342 C.2     1  UNL1        0.0174
     18 C         -30.8361    2.6306   28.4150 C.2     1  UNL1        0.0014
     19 C         -30.7751    3.9355   28.7260 C.2     1  UNL1        0.0000
@<TRIPOS>BOND
     1     3     4    1
     2     4     8    1
     3     2    14    1
     4    14    15    1
     5    15    16    1
     6    16    17    2
     7    17    18    1
     8    18    19    2
     9     1     2   ar
    10     2     5   ar
    11     5     6   ar
    12     6     7   ar
    13     7     3   ar
    14     3     1   ar
    15     8     9   ar
    16     9    10   ar
    17    10    11   ar
    18    11    13   ar
    19    13    12   ar
    20    12     8   ar
