@<TRIPOS>MOLECULE
outputs/IAG933/test6/raw/output_4988_IAG933_linker_design_.xyz
 42 45 0 0 0
SMALL
GASTEIGER

@<TRIPOS>ATOM
      1 C         -24.8550   -1.0120   30.1430 C.3     1  UNL1        0.0819
      2 C         -24.9730   -2.5050   29.7880 C.2     1  UNL1       -0.0174
      3 C         -23.9060   -3.1730   29.1460 C.2     1  UNL1       -0.0041
      4 C         -23.9890   -4.5490   28.8530 C.2     1  UNL1       -0.0003
      5 C         -25.1370   -5.2800   29.2050 C.2     1  UNL1       -0.0000
      6 C         -26.2320   -4.6110   29.7840 C.2     1  UNL1       -0.0003
      7 C         -26.1550   -3.2320   30.0650 C.2     1  UNL1       -0.0041
      8 C         -25.3870   -0.6790   31.5710 C.3     1  UNL1        0.0806
      9 C         -25.1890    0.7730   32.0280 C.3     1  UNL1        0.0193
     10 C         -25.3360    0.6840   33.5440 C.3     1  UNL1        0.0202
     11 C         -24.8290   -0.7150   33.9050 C.3     1  UNL1        0.0887
     12 N         -24.7580   -1.4810   32.6460 N.3     1  UNL1       -0.2190
     13 C         -25.6880    1.6140   26.4610 C.2     1  UNL1        0.0206
     14 C         -26.2500    2.9200   26.3950 C.2     1  UNL1        0.0729
     15 C         -25.6420    4.0930   27.1230 C.2     1  UNL1        0.2661
     16 N         -25.6140    5.2520   26.4490 N.am    1  UNL1       -0.1997
     17 C         -25.0260    6.4790   26.9630 C.3     1  UNL1        0.1388
     18 O         -25.1430    3.9660   28.2430 O.2     1  UNL1       -0.2683
     19 C         -27.4380    3.0910   25.6450 C.2     1  UNL1        0.1064
     20 N         -28.0750    2.0890   25.0030 N.2     1  UNL1       -0.2081
     21 C         -27.5430    0.8490   25.0790 C.2     1  UNL1        0.2530
     22 O         -28.1930   -0.2080   24.4770 O.2     1  UNL1       -0.4558
     23 C         -29.4600    0.0050   23.8660 C.3     1  UNL1        0.2426
     24 C         -30.0650   -1.3770   23.5730 C.3     1  UNL1        0.2292
     25 O         -30.7290   -1.8780   24.7210 O.3     1  UNL1       -0.2162
     26 C         -26.3540    0.5760   25.7770 C.2     1  UNL1        0.1894
     27 F         -25.8600   -0.6810   25.7950 F       1  UNL1       -0.1996
     28 C         -22.0378    1.3072   28.6138 C.3     1  UNL1        0.0267
     29 C         -24.2014    0.4060   28.4139 C.3     1  UNL1        0.0534
     30 C         -23.3079    0.9842   29.2616 C.3     1  UNL1        0.0093
     31 O         -29.1877    3.0328   29.6414 O.2     1  UNL1       -0.1560
     32 O         -27.6629    4.9171   30.1599 O.2     1  UNL1       -0.1560
     33 O         -26.5941   -0.6301   28.4371 O.3     1  UNL1       -0.2073
     34 C         -24.4315    1.3601   27.1330 C.3     1  UNL1        0.0613
     35 C         -22.0305    1.6957   27.3733 C.2     1  UNL1       -0.0188
     36 C         -25.5839   -0.0417   29.1258 C.3     1  UNL1        0.1927
     37 N         -26.3453    1.2397   29.4457 N.3     1  UNL1       -0.1664
     38 CL        -23.1193    2.0299   24.9280 Cl      1  UNL1       -0.0869
     39 C         -26.9055    2.5837   30.0964 C.3     1  UNL1        0.2607
     40 C         -23.2930    1.6085   26.5720 C.2     1  UNL1        0.0351
     41 S         -27.7009    3.5760   30.4993 S.O2    1  UNL1        0.0785
     42 CL        -26.3864    3.5776   31.9002 Cl      1  UNL1        0.0569
@<TRIPOS>BOND
     1     1    36    1
     2     2     7    1
     3     2     1    1
     4     3     2    2
     5     4     3    1
     6     4     5    2
     7     5     6    1
     8     6     7    2
     9     8     1    1
    10     8     9    1
    11     8    12    1
    12     9    10    1
    13    10    11    1
    14    12    11    1
    15    14    13    1
    16    14    15    1
    17    15    18    2
    18    16    17    1
    19    16    15    1
    20    19    14    2
    21    20    21    2
    22    20    19    1
    23    21    26    1
    24    22    21    1
    25    23    22    1
    26    24    23    1
    27    24    25    1
    28    26    27    1
    29    26    13    2
    30    28    30    1
    31    29    36    1
    32    29    30    1
    33    31    41    2
    34    32    41    2
    35    34    13    1
    36    34    29    1
    37    35    28    1
    38    36    33    1
    39    36    37    1
    40    37    39    1
    41    38    40    1
    42    39    41    1
    43    40    34    1
    44    40    35    2
    45    41    42    1
