@<TRIPOS>MOLECULE
No_499-gen_results/8p0m/2024-11-27-11-27-31/
 35 39 0 0 0
SMALL
GASTEIGER

@<TRIPOS>ATOM
      1 C         -28.0162   -0.8135   28.8779 C.ar    1  UNL1        0.0369
      2 C         -27.0636   -0.1189   28.6079 C.ar    1  UNL1        0.0031
      3 C         -25.7647   -0.3897   29.0360 C.ar    1  UNL1        0.0002
      4 C         -25.5296   -1.5302   29.9014 C.ar    1  UNL1        0.0031
      5 C         -26.6888   -2.2893   30.1810 C.ar    1  UNL1        0.0369
      6 C         -27.8727   -1.9508   29.7373 C.ar    1  UNL1        0.1396
      7 C         -24.5491    0.4100   28.7341 C.ar    1  UNL1        0.0000
      8 C         -24.4789    1.1871   27.6843 C.ar    1  UNL1        0.0000
      9 C         -23.2830    1.8356   27.3522 C.ar    1  UNL1        0.0000
     10 C         -22.1028    1.6619   28.0350 C.ar    1  UNL1        0.0000
     11 C         -23.3238    0.1535   29.4730 C.ar    1  UNL1        0.0000
     12 C         -22.1169    0.8126   29.1066 C.ar    1  UNL1        0.0000
     13 O         -28.9595   -2.7141   30.1005 O.3     1  UNL1       -0.4653
     14 C         -30.0692   -2.1499   30.5908 C.3     1  UNL1        0.2671
     15 C         -30.1577   -1.1451   31.0779 C.ar    1  UNL1        0.0537
     16 C         -30.7989   -0.4187   31.6490 C.ar    1  UNL1        0.0019
     17 C         -30.6449    0.9653   32.2098 C.ar    1  UNL1       -0.0001
     18 C         -29.4328    1.5700   31.8961 C.ar    1  UNL1        0.0023
     19 C         -28.4853    0.8595   31.2364 C.ar    1  UNL1        0.0294
     20 C         -28.7244   -0.4079   30.8351 C.ar    1  UNL1        0.1400
     21 F         -27.8528   -0.9456   31.3497 F       1  UNL1       -0.2044
     22 C         -31.2914   -3.0282   30.3989 C.2     1  UNL1        0.2864
     23 O         -32.2344   -2.6112   29.7844 O.2     1  UNL1       -0.2690
     24 N         -31.2607   -4.2892   30.9005 N.am    1  UNL1       -0.1972
     25 C         -32.3316   -5.2185   30.7005 C.3     1  UNL1        0.1417
     26 C         -32.8887   -5.5277   31.7781 C.ar    1  UNL1        0.0024
     27 C         -33.3536   -4.5649   32.5878 C.ar    1  UNL1        0.0154
     28 C         -33.2662   -3.2807   32.2453 C.ar    1  UNL1        0.0012
     29 C         -33.3679   -2.2825   33.3636 C.ar    1  UNL1        0.0001
     30 C         -33.6650   -2.7193   34.6135 C.ar    1  UNL1        0.0015
     31 C         -33.8267   -4.0445   34.9174 C.ar    1  UNL1        0.0191
     32 C         -33.5737   -4.9260   33.9709 C.ar    1  UNL1        0.0811
     33 N         -33.6329   -6.2547   34.2168 N.ar    1  UNL1       -0.2439
     34 C         -33.3655   -7.1903   33.3660 C.ar    1  UNL1        0.0986
     35 C         -32.8964   -6.8919   32.1669 C.ar    1  UNL1        0.0181
@<TRIPOS>BOND
     1     3     7    1
     2     6    13    1
     3    13    14    1
     4    20    21    1
     5    14    22    1
     6    22    23    2
     7    22    24   am
     8    24    25    1
     9    25    26    1
    10    14    15    1
    11    15    16   ar
    12    16    17   ar
    13    17    18   ar
    14    18    19   ar
    15    19    20   ar
    16    20    15   ar
    17     1     2   ar
    18     2     3   ar
    19     3     4   ar
    20     4     5   ar
    21     5     6   ar
    22     6     1   ar
    23    27    28   ar
    24    28    29   ar
    25    29    30   ar
    26    30    31   ar
    27    31    32   ar
    28     7     8   ar
    29     8     9   ar
    30     9    10   ar
    31    10    12   ar
    32    12    11   ar
    33    11     7   ar
    34    26    27   ar
    35    27    32   ar
    36    32    33   ar
    37    33    34   ar
    38    34    35   ar
    39    35    26   ar
