@<TRIPOS>MOLECULE
No_4990-gen_results/8p0m/2024-11-27-11-27-31/
 22 24 0 0 0
SMALL
GASTEIGER

@<TRIPOS>ATOM
      1 C         -28.0162   -0.8135   28.8779 C.ar    1  UNL1        0.0341
      2 C         -28.4690   -0.7850   29.8287 C.ar    1  UNL1        0.0558
      3 C         -26.5042   -0.7777   28.8766 C.ar    1  UNL1        0.1403
      4 C         -25.8103   -0.8531   30.1028 C.ar    1  UNL1        0.0296
      5 C         -27.9906   -0.8916   31.2257 C.ar    1  UNL1        0.0047
      6 C         -26.6042   -0.8676   31.2652 C.ar    1  UNL1        0.0025
      7 C         -30.0739   -0.8360   29.8615 C.2     1  UNL1        0.2491
      8 O         -30.6891   -1.6554   30.2229 O.2     1  UNL1       -0.2699
      9 N         -30.5868    0.0940   28.8678 N.am    1  UNL1       -0.2761
     10 C         -31.9585    0.0495   28.5916 C.3     1  UNL1        0.0937
     11 C         -32.2307    0.3504   27.3307 C.3     1  UNL1        0.0216
     12 C         -31.2854    0.9860   26.4442 C.3     1  UNL1        0.0038
     13 C         -29.9416    1.0264   26.8381 C.3     1  UNL1        0.0243
     14 C         -29.6604    0.8500   28.0635 C.3     1  UNL1        0.0940
     15 F         -25.7632   -0.7476   27.7792 F       1  UNL1       -0.2042
     16 C         -29.1776    1.9333   25.9700 C.3     1  UNL1        0.0280
     17 C         -27.7278    1.6557   26.0301 C.ar    1  UNL1       -0.0221
     18 C         -27.0842    0.9599   25.1119 C.ar    1  UNL1       -0.0043
     19 C         -25.6989    0.6395   25.2034 C.ar    1  UNL1       -0.0003
     20 C         -24.8472    1.2827   26.1231 C.ar    1  UNL1       -0.0000
     21 C         -26.7613    2.2386   27.0456 C.ar    1  UNL1       -0.0043
     22 C         -25.4449    2.1124   27.0171 C.ar    1  UNL1       -0.0003
@<TRIPOS>BOND
     1     2     7    1
     2     7     8    2
     3     7     9   am
     4     9    10    1
     5    11    12    1
     6     9    14    1
     7    13    14    1
     8     3    15    1
     9    13    16    1
    10    16    17    1
    11    10    11    1
    12    12    13    1
    13    17    18   ar
    14    18    19   ar
    15    19    20   ar
    16    20    22   ar
    17    22    21   ar
    18    21    17   ar
    19     1     2   ar
    20     2     5   ar
    21     5     6   ar
    22     6     4   ar
    23     4     3   ar
    24     3     1   ar
