@<TRIPOS>MOLECULE
outputs/IAG933/test6/raw/output_4991_IAG933_linker_design_.xyz
 42 45 0 0 0
SMALL
GASTEIGER

@<TRIPOS>ATOM
      1 C         -24.8550   -1.0120   30.1430 C.3     1  UNL1        0.0615
      2 C         -24.9730   -2.5050   29.7880 C.2     1  UNL1       -0.0170
      3 C         -23.9060   -3.1730   29.1460 C.2     1  UNL1       -0.0039
      4 C         -23.9890   -4.5490   28.8530 C.2     1  UNL1       -0.0003
      5 C         -25.1370   -5.2800   29.2050 C.2     1  UNL1       -0.0000
      6 C         -26.2320   -4.6110   29.7840 C.2     1  UNL1       -0.0003
      7 C         -26.1550   -3.2320   30.0650 C.2     1  UNL1       -0.0039
      8 C         -25.3870   -0.6790   31.5710 C.3     1  UNL1        0.0809
      9 C         -25.1890    0.7730   32.0280 C.3     1  UNL1        0.0195
     10 C         -25.3360    0.6840   33.5440 C.3     1  UNL1        0.0203
     11 C         -24.8290   -0.7150   33.9050 C.3     1  UNL1        0.0887
     12 N         -24.7580   -1.4810   32.6460 N.3     1  UNL1       -0.2188
     13 C         -25.6880    1.6140   26.4610 C.2     1  UNL1        0.0393
     14 C         -26.2500    2.9200   26.3950 C.2     1  UNL1        0.0766
     15 C         -25.6420    4.0930   27.1230 C.2     1  UNL1        0.2664
     16 N         -25.6140    5.2520   26.4490 N.am    1  UNL1       -0.1997
     17 C         -25.0260    6.4790   26.9630 C.3     1  UNL1        0.1388
     18 O         -25.1430    3.9660   28.2430 O.2     1  UNL1       -0.2683
     19 C         -27.4380    3.0910   25.6450 C.2     1  UNL1        0.1067
     20 N         -28.0750    2.0890   25.0030 N.2     1  UNL1       -0.2081
     21 C         -27.5430    0.8490   25.0790 C.2     1  UNL1        0.2533
     22 O         -28.1930   -0.2080   24.4770 O.2     1  UNL1       -0.4558
     23 C         -29.4600    0.0050   23.8660 C.3     1  UNL1        0.2426
     24 C         -30.0650   -1.3770   23.5730 C.3     1  UNL1        0.2292
     25 O         -30.7290   -1.8780   24.7210 O.3     1  UNL1       -0.2162
     26 C         -26.3540    0.5760   25.7770 C.2     1  UNL1        0.1931
     27 F         -25.8600   -0.6810   25.7950 F       1  UNL1       -0.1992
     28 F         -20.9940    1.7477   27.1051 F       1  UNL1       -0.2087
     29 O         -28.4801    0.5173   29.7104 O.co2   1  UNL1       -0.2203
     30 C         -22.1771    1.3463   27.6164 C.2     1  UNL1        0.1233
     31 C         -27.5254    0.2335   29.0281 C.2     1  UNL1        0.4671
     32 C         -23.2867    1.6201   26.9500 C.2     1  UNL1        0.0685
     33 C         -25.1191    0.6766   28.5095 C.2     1  UNL1        0.0728
     34 N         -26.3954    0.9018   29.0601 N.am    1  UNL1       -0.1398
     35 F         -23.2949    3.3441   25.4129 F       1  UNL1       -0.1932
     36 C         -22.8696    2.2790   25.9004 C.3     1  UNL1        0.3429
     37 C         -24.6565    1.3204   27.3427 C.2     1  UNL1        0.0208
     38 C         -24.2890   -0.1060   29.3769 C.2     1  UNL1       -0.0055
     39 C         -22.8933    0.0103   29.5548 C.2     1  UNL1       -0.0216
     40 C         -21.9125    0.7287   28.8599 C.3     1  UNL1        0.0821
     41 O         -27.5334   -0.5057   28.1397 O.co2   1  UNL1       -0.2203
     42 F         -22.0211    2.0949   24.9838 F       1  UNL1       -0.1932
@<TRIPOS>BOND
     1     1    38    1
     2     2     7    1
     3     2     1    1
     4     3     2    2
     5     4     3    1
     6     4     5    2
     7     5     6    1
     8     6     7    2
     9     8     1    1
    10     8     9    1
    11     8    12    1
    12     9    10    1
    13    10    11    1
    14    12    11    1
    15    13    37    1
    16    14    13    1
    17    14    15    1
    18    15    18    2
    19    16    17    1
    20    16    15    1
    21    19    14    2
    22    20    21    2
    23    20    19    1
    24    21    26    1
    25    22    21    1
    26    23    22    1
    27    24    23    1
    28    24    25    1
    29    26    27    1
    30    26    13    2
    31    28    30    1
    32    30    40    1
    33    31    34    1
    34    31    29   ar
    35    32    37    1
    36    32    30    2
    37    33    34    1
    38    33    38    1
    39    35    36    1
    40    36    32    1
    41    37    33    2
    42    38    39    2
    43    40    39    1
    44    41    31   ar
    45    42    36    1
