@<TRIPOS>MOLECULE
No_4993-gen_results/8p0m/2024-11-27-11-27-31/
 21 23 0 0 0
SMALL
GASTEIGER

@<TRIPOS>ATOM
      1 C         -28.0162   -0.8135   28.8779 C.ar    1  UNL1        0.0066
      2 C         -27.0636   -0.1189   28.6079 C.ar    1  UNL1        0.0002
      3 C         -27.0010    0.6913   27.4910 C.ar    1  UNL1        0.0000
      4 C         -27.1778    1.9037   27.5632 C.ar    1  UNL1        0.0000
      5 C         -28.0594   -1.3960   30.2136 C.ar    1  UNL1        0.0798
      6 C         -26.8947   -1.6080   30.9179 C.ar    1  UNL1        0.0066
      7 C         -25.7839   -0.2253   29.3757 C.ar    1  UNL1        0.0000
      8 C         -25.7520   -0.9581   30.5315 C.ar    1  UNL1        0.0002
      9 C         -27.3396    2.5314   28.8850 C.ar    1  UNL1        0.0000
     10 C         -27.0723    2.0337   29.9506 C.ar    1  UNL1        0.0000
     11 C         -27.8293    2.5299   31.0767 C.ar    1  UNL1        0.0000
     12 C         -28.3844    3.8237   31.0472 C.ar    1  UNL1        0.0000
     13 C         -28.5629    4.4253   29.8168 C.ar    1  UNL1        0.0000
     14 C         -28.1025    3.8210   28.6681 C.ar    1  UNL1        0.0000
     15 C         -29.3372   -2.1703   30.6227 C.2     1  UNL1        0.3878
     16 O         -29.4573   -3.3599   30.5646 O.co2   1  UNL1       -0.2406
     17 O         -30.3246   -1.4339   30.9594 O.co2   1  UNL1       -0.2406
     18 C         -26.7777   -0.0178   26.2119 C.ar    1  UNL1        0.0000
     19 C         -26.9699    0.6269   24.9418 C.ar    1  UNL1        0.0000
     20 C         -27.0908    2.0256   25.0381 C.ar    1  UNL1        0.0000
     21 C         -27.2176    2.7546   26.2811 C.ar    1  UNL1        0.0000
@<TRIPOS>BOND
     1     2     3    1
     2     4     9    1
     3     5    15    1
     4    15    16   ar
     5    15    17   ar
     6     3     4   ar
     7     4    21   ar
     8    21    20   ar
     9    20    19   ar
    10    19    18   ar
    11    18     3   ar
    12     1     2   ar
    13     2     7   ar
    14     7     8   ar
    15     8     6   ar
    16     6     5   ar
    17     5     1   ar
    18     9    10   ar
    19    10    11   ar
    20    11    12   ar
    21    12    13   ar
    22    13    14   ar
    23    14     9   ar
