@<TRIPOS>MOLECULE
No_4994-gen_results/8p0m/2024-11-27-11-27-31/
 19 20 0 0 0
SMALL
GASTEIGER

@<TRIPOS>ATOM
      1 CL        -28.1493   -0.8198   28.9079 Cl      1  UNL1       -0.0466
      2 C         -27.8339    0.4961   29.0598 C.3     1  UNL1        0.3339
      3 F         -27.7903    1.1418   28.0451 F       1  UNL1       -0.1864
      4 C         -26.4542    0.6688   29.7268 C.3     1  UNL1        0.1096
      5 F         -28.6845    1.1302   29.8976 F       1  UNL1       -0.1864
      6 C         -25.3924    0.0137   29.1732 C.ar    1  UNL1       -0.0152
      7 C         -25.0355   -1.1869   29.7857 C.ar    1  UNL1       -0.0040
      8 C         -23.9718   -1.9770   29.1646 C.ar    1  UNL1       -0.0003
      9 C         -23.0007   -1.2809   28.4299 C.ar    1  UNL1       -0.0000
     10 C         -23.2151    0.0842   28.1283 C.ar    1  UNL1       -0.0001
     11 C         -24.4209    0.7159   28.4528 C.ar    1  UNL1        0.0022
     12 C         -24.6324    2.0632   27.9751 C.ar    1  UNL1        0.0743
     13 C         -24.2204    2.5034   26.6851 C.ar    1  UNL1        0.0952
     14 C         -25.0064    3.1328   28.9136 C.ar    1  UNL1        0.2805
     15 O         -25.1620    2.9723   30.1699 O.3     1  UNL1       -0.2652
     16 N         -25.1818    4.3746   28.4158 N.ar    1  UNL1       -0.2063
     17 C         -25.0227    4.7636   27.0767 C.ar    1  UNL1        0.1036
     18 N         -23.8337    1.5836   25.8095 N.pl3   1  UNL1       -0.1278
     19 C         -24.5141    3.8204   26.1881 C.ar    1  UNL1        0.0389
@<TRIPOS>BOND
     1     1     2    1
     2     2     3    1
     3     2     4    1
     4     2     5    1
     5     4     6    1
     6    11    12    1
     7    14    15    1
     8    13    18    1
     9     6     7   ar
    10     7     8   ar
    11     8     9   ar
    12     9    10   ar
    13    10    11   ar
    14    11     6   ar
    15    12    13   ar
    16    13    19   ar
    17    19    17   ar
    18    17    16   ar
    19    16    14   ar
    20    14    12   ar
