@<TRIPOS>MOLECULE
No_4995-gen_results/8p0m/2024-11-27-11-27-31/
 14 15 0 0 0
SMALL
GASTEIGER

@<TRIPOS>ATOM
      1 C         -28.0162   -0.8135   28.8779 C.ar    1  UNL1        0.0032
      2 C         -28.4690   -0.7850   29.8287 C.ar    1  UNL1        0.0001
      3 C         -27.1356    0.2359   28.5352 C.ar    1  UNL1        0.0390
      4 C         -26.8745    1.2825   29.3982 C.ar    1  UNL1        0.0032
      5 C         -28.3613    0.1987   30.9244 C.ar    1  UNL1        0.0000
      6 C         -27.5277    1.2234   30.6356 C.ar    1  UNL1        0.0001
      7 C         -26.3879    0.2914   27.2334 C.2     1  UNL1        0.1955
      8 C         -25.1510    0.3034   27.2565 C.ar    1  UNL1        0.0390
      9 C         -24.2763    0.0440   28.3453 C.ar    1  UNL1        0.0032
     10 C         -22.9638    0.5707   28.3990 C.ar    1  UNL1        0.0001
     11 C         -22.4977    1.4011   27.3602 C.ar    1  UNL1        0.0000
     12 C         -23.3507    1.7943   26.3482 C.ar    1  UNL1        0.0001
     13 C         -24.6532    1.3388   26.2912 C.ar    1  UNL1        0.0032
     14 O         -26.9931   -0.3227   26.2721 O.2     1  UNL1       -0.2866
@<TRIPOS>BOND
     1     3     7    1
     2     7     8    1
     3     7    14    2
     4     8     9   ar
     5     9    10   ar
     6    10    11   ar
     7    11    12   ar
     8    12    13   ar
     9    13     8   ar
    10     1     2   ar
    11     2     5   ar
    12     5     6   ar
    13     6     4   ar
    14     4     3   ar
    15     3     1   ar
