@<TRIPOS>MOLECULE
outputs/IAG933/test6/raw/output_4997_IAG933_linker_design_.xyz
 45 51 0 0 0
SMALL
GASTEIGER

@<TRIPOS>ATOM
      1 C         -24.8550   -1.0120   30.1430 C.3     1  UNL1        0.0531
      2 C         -24.9730   -2.5050   29.7880 C.2     1  UNL1       -0.0198
      3 C         -23.9060   -3.1730   29.1460 C.2     1  UNL1       -0.0042
      4 C         -23.9890   -4.5490   28.8530 C.2     1  UNL1       -0.0003
      5 C         -25.1370   -5.2800   29.2050 C.2     1  UNL1       -0.0000
      6 C         -26.2320   -4.6110   29.7840 C.2     1  UNL1       -0.0003
      7 C         -26.1550   -3.2320   30.0650 C.2     1  UNL1       -0.0042
      8 C         -25.3870   -0.6790   31.5710 C.3     1  UNL1        0.0781
      9 C         -25.1890    0.7730   32.0280 C.3     1  UNL1        0.0192
     10 C         -25.3360    0.6840   33.5440 C.3     1  UNL1        0.0202
     11 C         -24.8290   -0.7150   33.9050 C.3     1  UNL1        0.0887
     12 N         -24.7580   -1.4810   32.6460 N.3     1  UNL1       -0.2191
     13 C         -25.6880    1.6140   26.4610 C.3     1  UNL1        0.1058
     14 C         -26.2500    2.9200   26.3950 C.2     1  UNL1        0.0579
     15 C         -25.6420    4.0930   27.1230 C.2     1  UNL1        0.2181
     16 N         -25.6140    5.2520   26.4490 N.2     1  UNL1       -0.2359
     17 C         -25.0260    6.4790   26.9630 C.3     1  UNL1        0.1550
     18 O         -25.1430    3.9660   28.2430 O.2     1  UNL1       -0.4629
     19 C         -27.4380    3.0910   25.6450 C.2     1  UNL1        0.1026
     20 N         -28.0750    2.0890   25.0030 N.2     1  UNL1       -0.2118
     21 C         -27.5430    0.8490   25.0790 C.2     1  UNL1        0.2345
     22 O         -28.1930   -0.2080   24.4770 O.2     1  UNL1       -0.4585
     23 C         -29.4600    0.0050   23.8660 C.3     1  UNL1        0.2423
     24 C         -30.0650   -1.3770   23.5730 C.3     1  UNL1        0.2292
     25 O         -30.7290   -1.8780   24.7210 O.3     1  UNL1       -0.2162
     26 C         -26.3540    0.5760   25.7770 C.3     1  UNL1        0.2452
     27 F         -25.8600   -0.6810   25.7950 F       1  UNL1       -0.2265
     28 C         -28.3682    1.3402   30.0007 C.3     1  UNL1        0.0592
     29 N         -25.9577    0.5319   28.7700 N.3     1  UNL1       -0.2644
     30 C         -28.0973   -0.1644   29.4935 C.2     1  UNL1        0.1663
     31 C         -23.1387    1.1783   27.3304 C.3     1  UNL1        0.0672
     32 C         -22.5822    2.2729   24.8105 C.3     1  UNL1        0.2712
     33 N         -23.7749    1.9872   25.2073 N.2     1  UNL1       -0.2475
     34 C         -25.2706    2.9219   29.2262 C.3     1  UNL1        0.1832
     35 C         -26.4130    3.2996   30.1291 C.3     1  UNL1        0.0455
     36 O         -28.8008   -1.0810   29.7975 O.2     1  UNL1       -0.2946
     37 C         -24.1810    1.5635   26.3573 C.2     1  UNL1        0.0434
     38 C         -21.8709    1.7739   27.0407 C.3     1  UNL1        0.1500
     39 C         -29.6862    1.4006   30.7334 C.3     1  UNL1        0.0078
     40 C         -27.0017   -0.3593   28.5595 C.3     1  UNL1        0.1376
     41 O         -21.6964    2.2725   25.8737 O.3     1  UNL1       -0.3308
     42 C         -27.8055    2.8105   29.5824 C.3     1  UNL1        0.0111
     43 C         -25.1442    1.5097   28.9334 C.3     1  UNL1        0.1120
     44 C         -24.6713    0.0525   28.9159 C.3     1  UNL1        0.0681
     45 C         -23.1778    0.2419   28.5311 C.3     1  UNL1        0.0246
@<TRIPOS>BOND
     1     1     2    1
     2     2     7    1
     3     3     2    2
     4     4     3    1
     5     4     5    2
     6     5     6    1
     7     6     7    2
     8     8     1    1
     9     8     9    1
    10     8    12    1
    11     9    10    1
    12    10    11    1
    13    12    11    1
    14    13    37    1
    15    14    13    1
    16    14    15    1
    17    15    18    1
    18    16    17    1
    19    16    15    2
    20    18    34    1
    21    19    14    2
    22    20    21    2
    23    20    19    1
    24    21    26    1
    25    22    21    1
    26    23    22    1
    27    24    23    1
    28    24    25    1
    29    26    27    1
    30    26    13    1
    31    28    39    1
    32    29    40    1
    33    29    44    1
    34    29    43    1
    35    30    36    2
    36    30    28    1
    37    31    38    1
    38    31    45    1
    39    32    33    1
    40    32    41    1
    41    33    37    2
    42    34    35    1
    43    37    31    1
    44    40    30    1
    45    41    38    1
    46    42    28    1
    47    42    35    1
    48    43    34    1
    49    44    43    1
    50    44     1    1
    51    45    44    1
