@<TRIPOS>MOLECULE
outputs/IAG933/test6/raw/output_4998_IAG933_linker_design_.xyz
 42 46 0 0 0
SMALL
GASTEIGER

@<TRIPOS>ATOM
      1 C         -24.8550   -1.0120   30.1430 C.3     1  UNL1        0.1116
      2 C         -24.9730   -2.5050   29.7880 C.2     1  UNL1       -0.0030
      3 C         -23.9060   -3.1730   29.1460 C.2     1  UNL1       -0.0026
      4 C         -23.9890   -4.5490   28.8530 C.2     1  UNL1       -0.0003
      5 C         -25.1370   -5.2800   29.2050 C.2     1  UNL1       -0.0000
      6 C         -26.2320   -4.6110   29.7840 C.2     1  UNL1       -0.0003
      7 C         -26.1550   -3.2320   30.0650 C.2     1  UNL1       -0.0026
      8 C         -25.3870   -0.6790   31.5710 C.3     1  UNL1        0.0950
      9 C         -25.1890    0.7730   32.0280 C.3     1  UNL1        0.0209
     10 C         -25.3360    0.6840   33.5440 C.3     1  UNL1        0.0203
     11 C         -24.8290   -0.7150   33.9050 C.3     1  UNL1        0.0888
     12 N         -24.7580   -1.4810   32.6460 N.3     1  UNL1       -0.2174
     13 C         -25.6880    1.6140   26.4610 C.3     1  UNL1        0.0921
     14 C         -26.2500    2.9200   26.3950 C.2     1  UNL1        0.0589
     15 C         -25.6420    4.0930   27.1230 C.2     1  UNL1        0.2628
     16 N         -25.6140    5.2520   26.4490 N.am    1  UNL1       -0.2000
     17 C         -25.0260    6.4790   26.9630 C.3     1  UNL1        0.1388
     18 O         -25.1430    3.9660   28.2430 O.2     1  UNL1       -0.2686
     19 C         -27.4380    3.0910   25.6450 C.2     1  UNL1        0.1025
     20 N         -28.0750    2.0890   25.0030 N.2     1  UNL1       -0.2118
     21 C         -27.5430    0.8490   25.0790 C.2     1  UNL1        0.2344
     22 O         -28.1930   -0.2080   24.4770 O.2     1  UNL1       -0.4585
     23 C         -29.4600    0.0050   23.8660 C.3     1  UNL1        0.2423
     24 C         -30.0650   -1.3770   23.5730 C.3     1  UNL1        0.2292
     25 O         -30.7290   -1.8780   24.7210 O.3     1  UNL1       -0.2162
     26 C         -26.3540    0.5760   25.7770 C.3     1  UNL1        0.2440
     27 F         -25.8600   -0.6810   25.7950 F       1  UNL1       -0.2265
     28 C         -21.4405    1.7818   27.0114 C.2     1  UNL1       -0.0214
     29 C         -25.0985   -0.1783   27.9811 C.3     1  UNL1        0.1173
     30 C         -30.1483    0.6228   30.5560 C.2     1  UNL1        0.0001
     31 C         -23.5055    1.6933   25.6302 C.2     1  UNL1       -0.0044
     32 C         -23.1048    0.6692   28.7791 C.2     1  UNL1       -0.0243
     33 C         -29.9903    0.6310   29.1606 C.2     1  UNL1        0.0013
     34 C         -24.4410    1.3435   26.7248 C.2     1  UNL1       -0.0177
     35 C         -22.1126    1.9531   25.7605 C.2     1  UNL1       -0.0046
     36 C         -28.7580    0.2567   28.6449 C.2     1  UNL1        0.0145
     37 C         -21.8342    1.2162   28.2765 C.3     1  UNL1        0.0517
     38 C         -27.8620   -0.1356   30.8333 C.2     1  UNL1        0.0145
     39 C         -24.1743    0.5665   27.9572 C.2     1  UNL1       -0.0099
     40 C         -29.1056    0.1692   31.3601 C.2     1  UNL1        0.0013
     41 C         -27.6469   -0.0547   29.5230 C.2     1  UNL1        0.0483
     42 N         -26.0903   -0.3697   29.1668 N.pl3   1  UNL1       -0.3001
@<TRIPOS>BOND
     1     1    42    1
     2     2     7    1
     3     2     1    1
     4     3     2    2
     5     4     3    1
     6     4     5    2
     7     5     6    1
     8     6     7    2
     9     8     1    1
    10     8     9    1
    11     8    12    1
    12     9    10    1
    13    10    11    1
    14    12    11    1
    15    13    34    1
    16    14    13    1
    17    14    15    1
    18    15    18    2
    19    16    17    1
    20    16    15    1
    21    19    14    2
    22    20    21    2
    23    20    19    1
    24    21    26    1
    25    22    21    1
    26    23    22    1
    27    24    23    1
    28    24    25    1
    29    26    27    1
    30    26    13    1
    31    28    37    1
    32    29    42    1
    33    30    40    1
    34    31    35    1
    35    31    34    2
    36    33    30    2
    37    34    39    1
    38    35    28    2
    39    36    33    1
    40    36    41    2
    41    37    32    1
    42    38    40    2
    43    39    29    1
    44    39    32    2
    45    41    38    1
    46    42    41    1
