@<TRIPOS>MOLECULE
No_4999-gen_results/8p0m/2024-11-27-11-27-31/
 24 27 0 0 0
SMALL
GASTEIGER

@<TRIPOS>ATOM
      1 O         -28.1229   -1.3353   28.4874 O.2     1  UNL1       -0.2699
      2 C         -27.0637   -0.8242   28.8687 C.2     1  UNL1        0.2487
      3 C         -26.4017   -0.0623   28.6224 C.ar    1  UNL1        0.0499
      4 N         -26.3805   -1.7991   29.9619 N.am    1  UNL1       -0.2757
      5 C         -26.7771    1.0571   27.7896 C.ar    1  UNL1        0.0042
      6 C         -25.9129    1.9788   27.2177 C.ar    1  UNL1        0.0003
      7 C         -24.8281    1.9431   27.3699 C.ar    1  UNL1        0.0043
      8 C         -24.1088    1.0105   28.2265 C.ar    1  UNL1        0.0513
      9 C         -24.9190    0.0527   28.7619 C.ar    1  UNL1       -0.0103
     10 C         -27.1449   -2.9921   30.4186 C.3     1  UNL1        0.0941
     11 C         -22.6418    1.0259   28.4591 C.2     1  UNL1        0.2645
     12 N         -22.1605    0.2818   29.4195 N.am    1  UNL1       -0.2013
     13 O         -21.8743    1.9468   27.9696 O.2     1  UNL1       -0.2684
     14 C         -25.1876   -1.6121   30.6679 C.3     1  UNL1        0.0998
     15 C         -24.2667   -0.6807   29.8939 C.3     1  UNL1        0.0641
     16 C         -22.9385   -0.6784   30.2405 C.3     1  UNL1        0.1215
     17 C         -28.2819   -3.1935   29.8352 C.3     1  UNL1        0.0262
     18 C         -29.0578   -4.3685   30.3916 C.3     1  UNL1        0.0281
     19 C         -30.3038   -4.6339   29.8336 C.ar    1  UNL1       -0.0221
     20 C         -30.4922   -5.8810   29.3463 C.ar    1  UNL1       -0.0043
     21 C         -31.6091   -6.1087   28.5272 C.ar    1  UNL1       -0.0003
     22 C         -32.5535   -5.1062   28.3071 C.ar    1  UNL1       -0.0000
     23 C         -32.3406   -3.8777   28.8335 C.ar    1  UNL1       -0.0003
     24 C         -31.1596   -3.5841   29.5605 C.ar    1  UNL1       -0.0043
@<TRIPOS>BOND
     1     1     2    2
     2     2     3    1
     3     2     4   am
     4     4    10    1
     5     8    11    1
     6    11    12   am
     7    11    13    2
     8     4    14    1
     9     9    15    1
    10    12    16    1
    11    15    16    1
    12    10    17    1
    13    17    18    1
    14    18    19    1
    15    15    14    1
    16     3     5   ar
    17     5     6   ar
    18     6     7   ar
    19     7     8   ar
    20     8     9   ar
    21     9     3   ar
    22    19    20   ar
    23    20    21   ar
    24    21    22   ar
    25    22    23   ar
    26    23    24   ar
    27    24    19   ar
