@<TRIPOS>MOLECULE
outputs/IAG933/test6/raw/output_5_IAG933_linker_design_.xyz
 45 50 0 0 0
SMALL
GASTEIGER

@<TRIPOS>ATOM
      1 C         -24.8550   -1.0120   30.1430 C.2     1  UNL1        0.0306
      2 C         -24.9730   -2.5050   29.7880 C.2     1  UNL1        0.0003
      3 C         -23.9060   -3.1730   29.1460 C.2     1  UNL1       -0.0002
      4 C         -23.9890   -4.5490   28.8530 C.2     1  UNL1       -0.0000
      5 C         -25.1370   -5.2800   29.2050 C.2     1  UNL1       -0.0000
      6 C         -26.2320   -4.6110   29.7840 C.2     1  UNL1       -0.0000
      7 C         -26.1550   -3.2320   30.0650 C.2     1  UNL1       -0.0002
      8 C         -25.3870   -0.6790   31.5710 C.3     1  UNL1        0.0980
      9 C         -25.1890    0.7730   32.0280 C.3     1  UNL1        0.0234
     10 C         -25.3360    0.6840   33.5440 C.3     1  UNL1        0.0206
     11 C         -24.8290   -0.7150   33.9050 C.3     1  UNL1        0.0891
     12 N         -24.7580   -1.4810   32.6460 N.3     1  UNL1       -0.2149
     13 C         -25.6880    1.6140   26.4610 C.2     1  UNL1        0.0580
     14 C         -26.2500    2.9200   26.3950 C.2     1  UNL1        0.0738
     15 C         -25.6420    4.0930   27.1230 C.2     1  UNL1        0.2216
     16 N         -25.6140    5.2520   26.4490 N.2     1  UNL1       -0.2357
     17 C         -25.0260    6.4790   26.9630 C.3     1  UNL1        0.1550
     18 O         -25.1430    3.9660   28.2430 O.2     1  UNL1       -0.4640
     19 C         -27.4380    3.0910   25.6450 C.2     1  UNL1        0.1066
     20 N         -28.0750    2.0890   25.0030 N.2     1  UNL1       -0.2081
     21 C         -27.5430    0.8490   25.0790 C.2     1  UNL1        0.2531
     22 O         -28.1930   -0.2080   24.4770 O.2     1  UNL1       -0.4558
     23 C         -29.4600    0.0050   23.8660 C.3     1  UNL1        0.2426
     24 C         -30.0650   -1.3770   23.5730 C.3     1  UNL1        0.2292
     25 O         -30.7290   -1.8780   24.7210 O.3     1  UNL1       -0.2162
     26 C         -26.3540    0.5760   25.7770 C.2     1  UNL1        0.1925
     27 F         -25.8600   -0.6810   25.7950 F       1  UNL1       -0.1995
     28 O         -24.2556   -0.2319   27.7168 O.2     1  UNL1       -0.4692
     29 F         -21.8427    1.1346   27.9897 F       1  UNL1       -0.2358
     30 C         -24.5080    1.0843   27.2515 C.3     1  UNL1        0.2204
     31 C         -23.5010    2.2285   29.1441 C.3     1  UNL1        0.0802
     32 C         -27.3226    3.7181   31.0924 C.3     1  UNL1        0.0482
     33 C         -24.5092   -0.1954   29.1374 C.2     1  UNL1        0.1696
     34 C         -22.7189    2.4992   26.3571 C.3     1  UNL1        0.0396
     35 C         -26.1369    3.3696   30.2875 C.3     1  UNL1        0.0812
     36 O         -27.4339    1.2840   29.8869 O.3     1  UNL1       -0.4547
     37 C         -30.0273    0.7934   27.6731 C.3     1  UNL1        0.0693
     38 S         -29.3182    2.3016   27.8927 S.3     1  UNL1       -0.1360
     39 O         -29.4668    0.5223   30.4544 O.2     1  UNL1       -0.2501
     40 C         -27.3884    2.7396   30.0411 C.3     1  UNL1        0.1494
     41 C         -23.1296    1.7855   27.6901 C.3     1  UNL1        0.1777
     42 C         -24.9050    3.0852   29.2404 C.3     1  UNL1        0.1737
     43 C         -28.7250    0.5825   29.5545 C.2     1  UNL1        0.3177
     44 C         -29.2785   -0.1202   28.4106 C.3     1  UNL1        0.1212
     45 C         -28.2099    3.0995   28.9175 C.3     1  UNL1        0.0976
@<TRIPOS>BOND
     1     2     7    1
     2     2     1    1
     3     3     2    2
     4     4     3    1
     5     4     5    2
     6     5     6    1
     7     6     7    2
     8     8     1    1
     9     8     9    1
    10     8    12    1
    11     9    10    1
    12    10    11    1
    13    12    11    1
    14    13    30    1
    15    14    13    1
    16    14    15    1
    17    15    18    1
    18    16    17    1
    19    16    15    2
    20    18    42    1
    21    19    14    2
    22    20    21    2
    23    20    19    1
    24    21    26    1
    25    22    21    1
    26    23    22    1
    27    24    23    1
    28    24    25    1
    29    26    27    1
    30    26    13    2
    31    28    33    1
    32    30    41    1
    33    30    28    1
    34    33     1    2
    35    35    32    1
    36    36    40    1
    37    37    38    1
    38    37    44    1
    39    38    45    1
    40    40    45    1
    41    40    35    1
    42    40    32    1
    43    41    34    1
    44    41    29    1
    45    41    31    1
    46    42    31    1
    47    42    35    1
    48    43    36    1
    49    43    39    2
    50    44    43    1
