@<TRIPOS>MOLECULE
outputs/IAG933/test6/raw/output_500_IAG933_linker_design_.xyz
 42 45 0 0 0
SMALL
GASTEIGER

@<TRIPOS>ATOM
      1 C         -24.8550   -1.0120   30.1430 C.3     1  UNL1        0.1225
      2 C         -24.9730   -2.5050   29.7880 C.2     1  UNL1       -0.0024
      3 C         -23.9060   -3.1730   29.1460 C.2     1  UNL1       -0.0026
      4 C         -23.9890   -4.5490   28.8530 C.2     1  UNL1       -0.0003
      5 C         -25.1370   -5.2800   29.2050 C.2     1  UNL1       -0.0000
      6 C         -26.2320   -4.6110   29.7840 C.2     1  UNL1       -0.0003
      7 C         -26.1550   -3.2320   30.0650 C.2     1  UNL1       -0.0026
      8 C         -25.3870   -0.6790   31.5710 C.3     1  UNL1        0.0956
      9 C         -25.1890    0.7730   32.0280 C.3     1  UNL1        0.0209
     10 C         -25.3360    0.6840   33.5440 C.3     1  UNL1        0.0203
     11 C         -24.8290   -0.7150   33.9050 C.3     1  UNL1        0.0888
     12 N         -24.7580   -1.4810   32.6460 N.3     1  UNL1       -0.2174
     13 C         -25.6880    1.6140   26.4610 C.3     1  UNL1        0.0955
     14 C         -26.2500    2.9200   26.3950 C.2     1  UNL1        0.0590
     15 C         -25.6420    4.0930   27.1230 C.2     1  UNL1        0.2628
     16 N         -25.6140    5.2520   26.4490 N.am    1  UNL1       -0.2000
     17 C         -25.0260    6.4790   26.9630 C.3     1  UNL1        0.1388
     18 O         -25.1430    3.9660   28.2430 O.2     1  UNL1       -0.2686
     19 C         -27.4380    3.0910   25.6450 C.2     1  UNL1        0.1025
     20 N         -28.0750    2.0890   25.0030 N.2     1  UNL1       -0.2118
     21 C         -27.5430    0.8490   25.0790 C.2     1  UNL1        0.2344
     22 O         -28.1930   -0.2080   24.4770 O.2     1  UNL1       -0.4585
     23 C         -29.4600    0.0050   23.8660 C.3     1  UNL1        0.2423
     24 C         -30.0650   -1.3770   23.5730 C.3     1  UNL1        0.2292
     25 O         -30.7290   -1.8780   24.7210 O.3     1  UNL1       -0.2162
     26 C         -26.3540    0.5760   25.7770 C.3     1  UNL1        0.2441
     27 F         -25.8600   -0.6810   25.7950 F       1  UNL1       -0.2265
     28 C         -22.3771    1.3135   27.7133 C.2     1  UNL1        0.0688
     29 F         -21.7279    0.3706   29.5993 F       1  UNL1       -0.1935
     30 O         -27.6059   -0.9444   28.4599 O.2     1  UNL1       -0.2486
     31 F         -20.2682    1.2246   28.2661 F       1  UNL1       -0.1935
     32 C         -21.2600    0.8502   28.6173 C.3     1  UNL1        0.3407
     33 N         -27.4593    0.9784   29.4835 N.am    1  UNL1       -0.0688
     34 N         -25.4692   -0.0553   29.2205 N.am    1  UNL1       -0.2044
     35 C         -23.7914    1.0874   27.7600 C.2     1  UNL1        0.0543
     36 O         -24.4740    1.9535   29.7404 O.2     1  UNL1       -0.2695
     37 O         -22.3352    2.1762   25.4848 O.2     1  UNL1       -0.4681
     38 C         -24.3268    1.5706   26.5273 C.2     1  UNL1        0.0260
     39 C         -24.5672    0.9345   28.9110 C.2     1  UNL1        0.2557
     40 C         -21.7277    1.8899   26.6257 C.3     1  UNL1        0.2334
     41 C         -23.6562    2.0515   25.3547 C.2     1  UNL1        0.1689
     42 C         -26.8599   -0.0709   29.0024 C.2     1  UNL1        0.3492
@<TRIPOS>BOND
     1     1    34    1
     2     2     7    1
     3     2     1    1
     4     3     2    2
     5     4     3    1
     6     4     5    2
     7     5     6    1
     8     6     7    2
     9     8     1    1
    10     8     9    1
    11     8    12    1
    12     9    10    1
    13    10    11    1
    14    12    11    1
    15    13    38    1
    16    14    13    1
    17    14    15    1
    18    15    18    2
    19    16    17    1
    20    16    15    1
    21    19    14    2
    22    20    21    2
    23    20    19    1
    24    21    26    1
    25    22    21    1
    26    23    22    1
    27    24    23    1
    28    24    25    1
    29    26    27    1
    30    26    13    1
    31    28    35    2
    32    28    32    1
    33    30    42    2
    34    31    32    1
    35    32    29    1
    36    35    39    1
    37    37    40    1
    38    38    35    1
    39    39    34   am
    40    39    36    2
    41    40    28    1
    42    41    37    1
    43    41    38    2
    44    42    34   am
    45    42    33    1
