@<TRIPOS>MOLECULE
outputs/IAG933/test6/raw/output_5008_IAG933_linker_design_.xyz
 41 44 0 0 0
SMALL
GASTEIGER

@<TRIPOS>ATOM
      1 C         -24.8550   -1.0120   30.1430 C.3     1  UNL1        0.0433
      2 C         -24.9730   -2.5050   29.7880 C.2     1  UNL1       -0.0210
      3 C         -23.9060   -3.1730   29.1460 C.2     1  UNL1       -0.0042
      4 C         -23.9890   -4.5490   28.8530 C.2     1  UNL1       -0.0003
      5 C         -25.1370   -5.2800   29.2050 C.2     1  UNL1       -0.0000
      6 C         -26.2320   -4.6110   29.7840 C.2     1  UNL1       -0.0003
      7 C         -26.1550   -3.2320   30.0650 C.2     1  UNL1       -0.0042
      8 C         -25.3870   -0.6790   31.5710 C.3     1  UNL1        0.0770
      9 C         -25.1890    0.7730   32.0280 C.3     1  UNL1        0.0192
     10 C         -25.3360    0.6840   33.5440 C.3     1  UNL1        0.0202
     11 C         -24.8290   -0.7150   33.9050 C.3     1  UNL1        0.0887
     12 N         -24.7580   -1.4810   32.6460 N.3     1  UNL1       -0.2191
     13 C         -25.6880    1.6140   26.4610 C.2     1  UNL1        0.0202
     14 C         -26.2500    2.9200   26.3950 C.2     1  UNL1        0.0729
     15 C         -25.6420    4.0930   27.1230 C.2     1  UNL1        0.2661
     16 N         -25.6140    5.2520   26.4490 N.am    1  UNL1       -0.1997
     17 C         -25.0260    6.4790   26.9630 C.3     1  UNL1        0.1388
     18 O         -25.1430    3.9660   28.2430 O.2     1  UNL1       -0.2683
     19 C         -27.4380    3.0910   25.6450 C.2     1  UNL1        0.1064
     20 N         -28.0750    2.0890   25.0030 N.2     1  UNL1       -0.2081
     21 C         -27.5430    0.8490   25.0790 C.2     1  UNL1        0.2530
     22 O         -28.1930   -0.2080   24.4770 O.2     1  UNL1       -0.4558
     23 C         -29.4600    0.0050   23.8660 C.3     1  UNL1        0.2426
     24 C         -30.0650   -1.3770   23.5730 C.3     1  UNL1        0.2292
     25 O         -30.7290   -1.8780   24.7210 O.3     1  UNL1       -0.2162
     26 C         -26.3540    0.5760   25.7770 C.2     1  UNL1        0.1894
     27 F         -25.8600   -0.6810   25.7950 F       1  UNL1       -0.1996
     28 O         -21.1671    1.0192   28.1904 O.3     1  UNL1       -0.3113
     29 C         -22.4539    0.7253   28.1586 C.3     1  UNL1        0.1731
     30 C         -23.0264    1.6508   26.2331 C.2     1  UNL1        0.2797
     31 C         -20.8032    1.7767   27.1698 C.3     1  UNL1        0.3627
     32 O         -24.7734    2.7381   30.0755 O.3     1  UNL1       -0.3510
     33 C         -23.3963    1.1016   27.2754 C.2     1  UNL1        0.0528
     34 F         -23.6725    1.8084   25.1459 F       1  UNL1       -0.1638
     35 C         -24.1973    0.1064   29.4638 C.3     1  UNL1        0.0682
     36 C         -24.9037    1.4214   29.4168 C.3     1  UNL1        0.1452
     37 C         -22.9355    0.0638   29.3451 C.3     1  UNL1        0.1858
     38 O         -22.3385   -0.5521   30.3172 O.3     1  UNL1       -0.2201
     39 C         -25.8659    3.2526   30.6597 C.3     1  UNL1        0.1741
     40 O         -21.5998    2.1184   26.1979 O.2     1  UNL1       -0.4244
     41 C         -24.5492    1.0760   27.2614 C.3     1  UNL1        0.0589
@<TRIPOS>BOND
     1     1    35    1
     2     2     7    1
     3     2     1    1
     4     3     2    2
     5     4     3    1
     6     4     5    2
     7     5     6    1
     8     6     7    2
     9     8     1    1
    10     8     9    1
    11     8    12    1
    12     9    10    1
    13    10    11    1
    14    12    11    1
    15    13    41    1
    16    14    13    1
    17    14    15    1
    18    15    18    2
    19    16    17    1
    20    16    15    1
    21    19    14    2
    22    20    21    2
    23    20    19    1
    24    21    26    1
    25    22    21    1
    26    23    22    1
    27    24    23    1
    28    24    25    1
    29    26    27    1
    30    26    13    2
    31    29    28    1
    32    29    37    1
    33    30    33    2
    34    31    28    1
    35    32    39    1
    36    33    29    1
    37    34    30    1
    38    35    36    1
    39    36    32    1
    40    37    35    1
    41    37    38    1
    42    40    30    1
    43    40    31    1
    44    41    33    1
