@<TRIPOS>MOLECULE
No_501-gen_results/8p0m/2024-11-27-11-27-31/
 11 12 0 0 0
SMALL
GASTEIGER

@<TRIPOS>ATOM
      1 C         -28.0162   -0.8135   28.8779 C.ar    1  UNL1        0.0097
      2 C         -27.0636   -0.1189   28.6079 C.ar    1  UNL1        0.0399
      3 C         -27.0010    0.6913   27.4910 C.ar    1  UNL1        0.0080
      4 C         -28.1373    0.7363   26.6350 C.ar    1  UNL1        0.0006
      5 C         -29.2360    0.0765   27.0690 C.ar    1  UNL1       -0.0002
      6 C         -29.2177   -0.6429   28.1747 C.ar    1  UNL1       -0.0017
      7 C         -28.0030   -1.6604   30.1266 C.3     1  UNL1        0.1533
      8 N         -27.0435   -2.4948   30.2691 N.2     1  UNL1       -0.2552
      9 C         -25.7647   -2.0663   30.2738 C.2     1  UNL1        0.1429
     10 C         -25.0291   -1.4564   29.1562 C.1     1  UNL1       -0.0388
     11 C         -25.5527   -0.5136   28.7379 C.1     1  UNL1       -0.0585
@<TRIPOS>BOND
     1     1     7    1
     2     7     8    1
     3     8     9    2
     4     9    10    1
     5     2    11    1
     6    10    11    3
     7     1     2   ar
     8     2     3   ar
     9     3     4   ar
    10     4     5   ar
    11     5     6   ar
    12     6     1   ar
