@<TRIPOS>MOLECULE
outputs/IAG933/test6/raw/output_5010_IAG933_linker_design_.xyz
 45 50 0 0 0
SMALL
GASTEIGER

@<TRIPOS>ATOM
      1 C         -24.8550   -1.0120   30.1430 C.3     1  UNL1        0.1160
      2 C         -24.9730   -2.5050   29.7880 C.2     1  UNL1       -0.0050
      3 C         -23.9060   -3.1730   29.1460 C.2     1  UNL1       -0.0029
      4 C         -23.9890   -4.5490   28.8530 C.2     1  UNL1       -0.0003
      5 C         -25.1370   -5.2800   29.2050 C.2     1  UNL1       -0.0000
      6 C         -26.2320   -4.6110   29.7840 C.2     1  UNL1       -0.0003
      7 C         -26.1550   -3.2320   30.0650 C.2     1  UNL1       -0.0029
      8 C         -25.3870   -0.6790   31.5710 C.3     1  UNL1        0.1016
      9 C         -25.1890    0.7730   32.0280 C.3     1  UNL1        0.0971
     10 C         -25.3360    0.6840   33.5440 C.3     1  UNL1        0.0294
     11 C         -24.8290   -0.7150   33.9050 C.3     1  UNL1        0.0893
     12 N         -24.7580   -1.4810   32.6460 N.3     1  UNL1       -0.2172
     13 C         -25.6880    1.6140   26.4610 C.2     1  UNL1        0.0874
     14 C         -26.2500    2.9200   26.3950 C.2     1  UNL1        0.0899
     15 C         -25.6420    4.0930   27.1230 C.2     1  UNL1        0.2676
     16 N         -25.6140    5.2520   26.4490 N.am    1  UNL1       -0.1997
     17 C         -25.0260    6.4790   26.9630 C.3     1  UNL1        0.1388
     18 O         -25.1430    3.9660   28.2430 O.2     1  UNL1       -0.2683
     19 C         -27.4380    3.0910   25.6450 C.2     1  UNL1        0.1080
     20 N         -28.0750    2.0890   25.0030 N.2     1  UNL1       -0.2080
     21 C         -27.5430    0.8490   25.0790 C.2     1  UNL1        0.2546
     22 O         -28.1930   -0.2080   24.4770 O.2     1  UNL1       -0.4558
     23 C         -29.4600    0.0050   23.8660 C.3     1  UNL1        0.2426
     24 C         -30.0650   -1.3770   23.5730 C.3     1  UNL1        0.2292
     25 O         -30.7290   -1.8780   24.7210 O.3     1  UNL1       -0.2162
     26 C         -26.3540    0.5760   25.7770 C.2     1  UNL1        0.2063
     27 F         -25.8600   -0.6810   25.7950 F       1  UNL1       -0.1979
     28 N         -25.0817    0.3019   29.4957 N.3     1  UNL1       -0.1638
     29 C         -25.3969    4.5030   30.6734 C.3     1  UNL1        0.1144
     30 C         -22.4352    0.8106   26.7118 C.3     1  UNL1        0.2766
     31 C         -25.4277    2.4934   31.8714 C.2     1  UNL1        0.2419
     32 F         -21.6145    2.2433   24.9705 F       1  UNL1       -0.1671
     33 C         -23.3739    0.9409   27.5783 C.3     1  UNL1        0.1603
     34 F         -23.3336    2.9389   26.1262 F       1  UNL1       -0.1671
     35 O         -25.4710    3.2469   32.8443 O.2     1  UNL1       -0.2735
     36 C         -22.7308    1.8198   25.5791 C.3     1  UNL1        0.4291
     37 O         -22.5423    0.5467   29.9124 O.3     1  UNL1       -0.2179
     38 C         -24.4717    0.1729   28.1581 C.3     1  UNL1        0.1719
     39 C         -26.7894    5.0632   30.9825 C.3     1  UNL1        0.0250
     40 F         -23.4897    1.1377   24.6695 F       1  UNL1       -0.1671
     41 N         -25.0725    1.8339   29.6092 N.3     1  UNL1       -0.0479
     42 F         -21.2393    1.2819   27.2899 F       1  UNL1       -0.2262
     43 N         -24.4605    1.0802   27.2374 N.pl3   1  UNL1       -0.2874
     44 N         -25.3501    3.0206   30.6168 N.am    1  UNL1       -0.1924
     45 C         -22.7914    0.7880   28.9018 C.3     1  UNL1        0.2076
@<TRIPOS>BOND
     1     1     2    1
     2     1     8    1
     3     2     7    1
     4     3     2    2
     5     4     3    1
     6     4     5    2
     7     5     6    1
     8     6     7    2
     9     8     9    1
    10     8    12    1
    11     9    10    1
    12    10    11    1
    13    12    11    1
    14    13    43    1
    15    14    13    1
    16    14    15    1
    17    15    18    2
    18    16    17    1
    19    16    15    1
    20    19    14    2
    21    20    21    2
    22    20    19    1
    23    21    26    1
    24    22    21    1
    25    23    22    1
    26    24    23    1
    27    24    25    1
    28    26    27    1
    29    26    13    2
    30    28    41    1
    31    28     1    1
    32    29    39    1
    33    30    42    1
    34    31     9    1
    35    31    35    2
    36    32    36    1
    37    33    30    1
    38    33    38    1
    39    33    45    1
    40    36    34    1
    41    36    30    1
    42    38    43    1
    43    38    45    1
    44    38    28    1
    45    40    36    1
    46    41    44    1
    47    43    33    1
    48    44    29    1
    49    44    31   am
    50    45    37    1
