@<TRIPOS>MOLECULE
outputs/IAG933/test6/raw/output_5016_IAG933_linker_design_.xyz
 45 50 0 0 0
SMALL
GASTEIGER

@<TRIPOS>ATOM
      1 C         -24.8550   -1.0120   30.1430 C.3     1  UNL1        0.0424
      2 C         -24.9730   -2.5050   29.7880 C.2     1  UNL1       -0.0208
      3 C         -23.9060   -3.1730   29.1460 C.2     1  UNL1       -0.0042
      4 C         -23.9890   -4.5490   28.8530 C.2     1  UNL1       -0.0003
      5 C         -25.1370   -5.2800   29.2050 C.2     1  UNL1       -0.0000
      6 C         -26.2320   -4.6110   29.7840 C.2     1  UNL1       -0.0003
      7 C         -26.1550   -3.2320   30.0650 C.2     1  UNL1       -0.0042
      8 C         -25.3870   -0.6790   31.5710 C.3     1  UNL1        0.0771
      9 C         -25.1890    0.7730   32.0280 C.3     1  UNL1        0.0178
     10 C         -25.3360    0.6840   33.5440 C.3     1  UNL1        0.0202
     11 C         -24.8290   -0.7150   33.9050 C.3     1  UNL1        0.0887
     12 N         -24.7580   -1.4810   32.6460 N.3     1  UNL1       -0.2191
     13 C         -25.6880    1.6140   26.4610 C.2     1  UNL1        0.0389
     14 C         -26.2500    2.9200   26.3950 C.2     1  UNL1        0.0766
     15 C         -25.6420    4.0930   27.1230 C.2     1  UNL1        0.2664
     16 N         -25.6140    5.2520   26.4490 N.am    1  UNL1       -0.1997
     17 C         -25.0260    6.4790   26.9630 C.3     1  UNL1        0.1388
     18 O         -25.1430    3.9660   28.2430 O.2     1  UNL1       -0.2683
     19 C         -27.4380    3.0910   25.6450 C.2     1  UNL1        0.1067
     20 N         -28.0750    2.0890   25.0030 N.2     1  UNL1       -0.2081
     21 C         -27.5430    0.8490   25.0790 C.2     1  UNL1        0.2533
     22 O         -28.1930   -0.2080   24.4770 O.2     1  UNL1       -0.4558
     23 C         -29.4600    0.0050   23.8660 C.3     1  UNL1        0.2426
     24 C         -30.0650   -1.3770   23.5730 C.3     1  UNL1        0.2292
     25 O         -30.7290   -1.8780   24.7210 O.3     1  UNL1       -0.2162
     26 C         -26.3540    0.5760   25.7770 C.2     1  UNL1        0.1931
     27 F         -25.8600   -0.6810   25.7950 F       1  UNL1       -0.1992
     28 C         -21.8925    1.3642   28.3650 C.2     1  UNL1        0.0981
     29 O         -30.0144   -1.1306   31.2094 O.2     1  UNL1       -0.2861
     30 C         -23.0925    1.7754   24.9086 C.3     1  UNL1        0.0521
     31 C         -22.9953    0.7828   28.9764 C.2     1  UNL1        0.0164
     32 C         -27.8141    1.5669   29.7443 C.3     1  UNL1        0.0551
     33 C         -23.1653    1.6792   26.4054 C.2     1  UNL1        0.0591
     34 O         -29.4524    0.4258   28.3274 O.3     1  UNL1       -0.3207
     35 F         -28.0666   -1.3953   28.8619 F       1  UNL1       -0.1951
     36 C         -29.3910   -0.2587   30.4194 C.2     1  UNL1        0.2302
     37 C         -28.7100    0.9511   30.7883 C.2     1  UNL1        0.0190
     38 C         -24.4151    1.3233   27.1049 C.2     1  UNL1        0.0122
     39 C         -26.3045    1.3857   29.7886 C.3     1  UNL1        0.0110
     40 C         -29.2566   -0.7219   29.0209 C.3     1  UNL1        0.3407
     41 N         -22.0142    1.8246   27.0970 N.2     1  UNL1       -0.2482
     42 C         -25.4732    0.0850   29.1722 C.3     1  UNL1        0.0282
     43 C         -28.3543    1.3976   28.3508 C.3     1  UNL1        0.1499
     44 C         -25.9219    1.7855   31.2076 C.3     1  UNL1        0.0022
     45 C         -24.3125    0.7108   28.3923 C.2     1  UNL1       -0.0194
@<TRIPOS>BOND
     1     1     2    1
     2     1     8    1
     3     2     7    1
     4     3     2    2
     5     4     3    1
     6     4     5    2
     7     5     6    1
     8     6     7    2
     9     8     9    1
    10     8    12    1
    11     9    44    1
    12     9    10    1
    13    10    11    1
    14    12    11    1
    15    13    38    1
    16    14    13    1
    17    14    15    1
    18    15    18    2
    19    16    17    1
    20    16    15    1
    21    19    14    2
    22    20    21    2
    23    20    19    1
    24    21    26    1
    25    22    21    1
    26    23    22    1
    27    24    23    1
    28    24    25    1
    29    26    27    1
    30    26    13    2
    31    28    31    1
    32    30    33    1
    33    32    43    1
    34    32    39    1
    35    32    37    1
    36    33    41    1
    37    33    38    2
    38    34    43    1
    39    34    40    1
    40    36    37    2
    41    36    29    1
    42    38    45    1
    43    39    44    1
    44    40    35    1
    45    40    36    1
    46    41    28    2
    47    42    45    1
    48    42    39    1
    49    42     1    1
    50    45    31    2
