@<TRIPOS>MOLECULE
outputs/IAG933/test6/raw/output_5021_IAG933_linker_design_.xyz
 42 46 0 0 0
SMALL
GASTEIGER

@<TRIPOS>ATOM
      1 C         -24.8550   -1.0120   30.1430 C.3     1  UNL1        0.0763
      2 C         -24.9730   -2.5050   29.7880 C.2     1  UNL1       -0.0182
      3 C         -23.9060   -3.1730   29.1460 C.2     1  UNL1       -0.0041
      4 C         -23.9890   -4.5490   28.8530 C.2     1  UNL1       -0.0003
      5 C         -25.1370   -5.2800   29.2050 C.2     1  UNL1       -0.0000
      6 C         -26.2320   -4.6110   29.7840 C.2     1  UNL1       -0.0003
      7 C         -26.1550   -3.2320   30.0650 C.2     1  UNL1       -0.0041
      8 C         -25.3870   -0.6790   31.5710 C.3     1  UNL1        0.0797
      9 C         -25.1890    0.7730   32.0280 C.3     1  UNL1        0.0193
     10 C         -25.3360    0.6840   33.5440 C.3     1  UNL1        0.0202
     11 C         -24.8290   -0.7150   33.9050 C.3     1  UNL1        0.0887
     12 N         -24.7580   -1.4810   32.6460 N.3     1  UNL1       -0.2190
     13 C         -25.6880    1.6140   26.4610 C.3     1  UNL1        0.1000
     14 C         -26.2500    2.9200   26.3950 C.2     1  UNL1        0.0573
     15 C         -25.6420    4.0930   27.1230 C.2     1  UNL1        0.2625
     16 N         -25.6140    5.2520   26.4490 N.am    1  UNL1       -0.2000
     17 C         -25.0260    6.4790   26.9630 C.3     1  UNL1        0.1388
     18 O         -25.1430    3.9660   28.2430 O.2     1  UNL1       -0.2687
     19 C         -27.4380    3.0910   25.6450 C.2     1  UNL1        0.1022
     20 N         -28.0750    2.0890   25.0030 N.2     1  UNL1       -0.2119
     21 C         -27.5430    0.8490   25.0790 C.2     1  UNL1        0.2342
     22 O         -28.1930   -0.2080   24.4770 O.2     1  UNL1       -0.4585
     23 C         -29.4600    0.0050   23.8660 C.3     1  UNL1        0.2423
     24 C         -30.0650   -1.3770   23.5730 C.3     1  UNL1        0.2292
     25 O         -30.7290   -1.8780   24.7210 O.3     1  UNL1       -0.2162
     26 C         -26.3540    0.5760   25.7770 C.3     1  UNL1        0.2424
     27 F         -25.8600   -0.6810   25.7950 F       1  UNL1       -0.2268
     28 O         -22.3798   -0.7276   30.6694 O.2     1  UNL1       -0.2890
     29 C         -21.9906    0.3208   28.6135 C.2     1  UNL1        0.0122
     30 C         -22.8159   -0.2137   29.5939 C.2     1  UNL1        0.1991
     31 C         -19.6423    0.3736   28.5414 C.3     1  UNL1        0.0433
     32 C         -22.3023    1.3142   27.6044 C.2     1  UNL1        0.0183
     33 C         -24.3042    1.3897   26.7771 C.3     1  UNL1        0.1539
     34 F         -18.9328    2.4913   27.7806 F       1  UNL1       -0.2340
     35 C         -24.2809   -0.0619   29.1805 C.3     1  UNL1        0.2178
     36 C         -19.8341    1.5766   27.8256 C.3     1  UNL1        0.1976
     37 C         -20.7232   -0.2227   28.8220 C.3     1  UNL1        0.0318
     38 O         -23.3405    1.8412   25.9305 O.3     1  UNL1       -0.3488
     39 C         -21.0037    1.8156   27.1311 C.3     1  UNL1        0.2137
     40 O         -25.6116    0.3230   28.7430 O.3     1  UNL1       -0.2144
     41 C         -23.2451    1.7123   27.2504 C.3     1  UNL1        0.1633
     42 F         -21.0208    2.3759   25.9126 F       1  UNL1       -0.2297
@<TRIPOS>BOND
     1     1    35    1
     2     2     7    1
     3     2     1    1
     4     3     2    2
     5     4     3    1
     6     4     5    2
     7     5     6    1
     8     6     7    2
     9     8     1    1
    10     8     9    1
    11     8    12    1
    12     9    10    1
    13    10    11    1
    14    12    11    1
    15    13    14    1
    16    13    33    1
    17    14    15    1
    18    15    18    2
    19    16    17    1
    20    16    15    1
    21    19    14    2
    22    20    21    2
    23    20    19    1
    24    21    26    1
    25    22    21    1
    26    23    22    1
    27    24    23    1
    28    24    25    1
    29    26    27    1
    30    26    13    1
    31    29    37    1
    32    29    30    1
    33    30    28    2
    34    31    37    1
    35    32    29    2
    36    33    38    1
    37    33    41    1
    38    35    40    1
    39    35    30    1
    40    36    34    1
    41    36    31    1
    42    38    41    1
    43    39    42    1
    44    39    32    1
    45    39    36    1
    46    41    32    1
