@<TRIPOS>MOLECULE
outputs/IAG933/test6/raw/output_5022_IAG933_linker_design_.xyz
 49 55 0 0 0
SMALL
GASTEIGER

@<TRIPOS>ATOM
      1 C         -24.8550   -1.0120   30.1430 C.3     1  UNL1        0.0448
      2 C         -24.9730   -2.5050   29.7880 C.2     1  UNL1       -0.0208
      3 C         -23.9060   -3.1730   29.1460 C.2     1  UNL1       -0.0042
      4 C         -23.9890   -4.5490   28.8530 C.2     1  UNL1       -0.0003
      5 C         -25.1370   -5.2800   29.2050 C.2     1  UNL1       -0.0000
      6 C         -26.2320   -4.6110   29.7840 C.2     1  UNL1       -0.0003
      7 C         -26.1550   -3.2320   30.0650 C.2     1  UNL1       -0.0042
      8 C         -25.3870   -0.6790   31.5710 C.3     1  UNL1        0.0772
      9 C         -25.1890    0.7730   32.0280 C.3     1  UNL1        0.0192
     10 C         -25.3360    0.6840   33.5440 C.3     1  UNL1        0.0202
     11 C         -24.8290   -0.7150   33.9050 C.3     1  UNL1        0.0887
     12 N         -24.7580   -1.4810   32.6460 N.3     1  UNL1       -0.2191
     13 C         -25.6880    1.6140   26.4610 C.2     1  UNL1        0.0378
     14 C         -26.2500    2.9200   26.3950 C.2     1  UNL1        0.0765
     15 C         -25.6420    4.0930   27.1230 C.2     1  UNL1        0.2664
     16 N         -25.6140    5.2520   26.4490 N.am    1  UNL1       -0.1997
     17 C         -25.0260    6.4790   26.9630 C.3     1  UNL1        0.1388
     18 O         -25.1430    3.9660   28.2430 O.2     1  UNL1       -0.2683
     19 C         -27.4380    3.0910   25.6450 C.2     1  UNL1        0.1067
     20 N         -28.0750    2.0890   25.0030 N.2     1  UNL1       -0.2081
     21 C         -27.5430    0.8490   25.0790 C.2     1  UNL1        0.2533
     22 O         -28.1930   -0.2080   24.4770 O.2     1  UNL1       -0.4558
     23 C         -29.4600    0.0050   23.8660 C.3     1  UNL1        0.2426
     24 C         -30.0650   -1.3770   23.5730 C.3     1  UNL1        0.2292
     25 O         -30.7290   -1.8780   24.7210 O.3     1  UNL1       -0.2162
     26 C         -26.3540    0.5760   25.7770 C.2     1  UNL1        0.1930
     27 F         -25.8600   -0.6810   25.7950 F       1  UNL1       -0.1992
     28 O         -29.7480    0.0019   27.3952 O.3     1  UNL1       -0.3522
     29 C         -31.4473    1.0171   29.6055 C.3     1  UNL1        0.0261
     30 C         -23.2386    1.8486   26.2178 C.2     1  UNL1       -0.0002
     31 C         -29.2998    0.5967   28.6808 C.3     1  UNL1        0.1447
     32 C         -31.0102    0.6506   27.1502 C.3     1  UNL1        0.1605
     33 C         -24.3685    1.3589   26.9786 C.2     1  UNL1       -0.0014
     34 C         -30.2513    0.0915   29.6689 C.3     1  UNL1        0.0608
     35 C         -24.1032    0.6435   28.2503 C.2     1  UNL1       -0.0196
     36 C         -35.5303    1.2327   29.2471 C.3     1  UNL1        0.2550
     37 C         -33.1008    3.5447   28.0082 C.3     1  UNL1        0.1151
     38 C         -31.9864    0.3344   28.3018 C.3     1  UNL1        0.1165
     39 C         -28.8583   -0.4241   29.8664 C.3     1  UNL1        0.1446
     40 O         -27.6633   -0.6824   29.1433 O.3     1  UNL1       -0.3533
     41 O         -35.2496    2.4009   27.9062 O.3     1  UNL1       -0.2740
     42 C         -26.7534    0.4181   29.0862 C.3     1  UNL1        0.1468
     43 C         -22.7046    0.5229   28.7366 C.2     1  UNL1       -0.0042
     44 N         -33.2369    1.0222   27.9129 N.3     1  UNL1       -0.1405
     45 C         -21.8942    1.7187   26.6902 C.2     1  UNL1       -0.0000
     46 S         -34.0653    2.1441   28.8722 S.3     1  UNL1        0.0593
     47 O         -33.9882    2.4240   30.5017 O.3     1  UNL1       -0.1392
     48 C         -21.6112    1.1021   27.9773 C.2     1  UNL1       -0.0003
     49 C         -25.2420    0.0272   29.0604 C.3     1  UNL1        0.0573
@<TRIPOS>BOND
     1     1    49    1
     2     2     7    1
     3     2     1    1
     4     3     2    2
     5     4     3    1
     6     4     5    2
     7     5     6    1
     8     6     7    2
     9     8     1    1
    10     8     9    1
    11     8    12    1
    12     9    10    1
    13    10    11    1
    14    12    11    1
    15    13    33    1
    16    14    13    1
    17    14    15    1
    18    15    18    2
    19    16    17    1
    20    16    15    1
    21    19    14    2
    22    20    21    2
    23    20    19    1
    24    21    26    1
    25    22    21    1
    26    23    22    1
    27    24    23    1
    28    24    25    1
    29    26    27    1
    30    26    13    2
    31    30    45    2
    32    30    33    1
    33    31    28    1
    34    31    34    1
    35    31    39    1
    36    32    28    1
    37    32    38    1
    38    33    35    2
    39    34    29    1
    40    34    39    1
    41    35    43    1
    42    35    49    1
    43    37    46    1
    44    38    44    1
    45    38    29    1
    46    39    40    1
    47    41    46    1
    48    41    36    1
    49    42    40    1
    50    44    46    1
    51    45    48    1
    52    46    36    1
    53    46    47    1
    54    48    43    2
    55    49    42    1
