@<TRIPOS>MOLECULE
outputs/IAG933/test6/raw/output_5023_IAG933_linker_design_.xyz
 42 46 0 0 0
SMALL
GASTEIGER

@<TRIPOS>ATOM
      1 C         -24.8550   -1.0120   30.1430 C.3     1  UNL1        0.1127
      2 C         -24.9730   -2.5050   29.7880 C.2     1  UNL1       -0.0030
      3 C         -23.9060   -3.1730   29.1460 C.2     1  UNL1       -0.0026
      4 C         -23.9890   -4.5490   28.8530 C.2     1  UNL1       -0.0003
      5 C         -25.1370   -5.2800   29.2050 C.2     1  UNL1       -0.0000
      6 C         -26.2320   -4.6110   29.7840 C.2     1  UNL1       -0.0003
      7 C         -26.1550   -3.2320   30.0650 C.2     1  UNL1       -0.0026
      8 C         -25.3870   -0.6790   31.5710 C.3     1  UNL1        0.0951
      9 C         -25.1890    0.7730   32.0280 C.3     1  UNL1        0.0209
     10 C         -25.3360    0.6840   33.5440 C.3     1  UNL1        0.0203
     11 C         -24.8290   -0.7150   33.9050 C.3     1  UNL1        0.0888
     12 N         -24.7580   -1.4810   32.6460 N.3     1  UNL1       -0.2174
     13 C         -25.6880    1.6140   26.4610 C.3     1  UNL1        0.0944
     14 C         -26.2500    2.9200   26.3950 C.2     1  UNL1        0.0590
     15 C         -25.6420    4.0930   27.1230 C.2     1  UNL1        0.2628
     16 N         -25.6140    5.2520   26.4490 N.am    1  UNL1       -0.2000
     17 C         -25.0260    6.4790   26.9630 C.3     1  UNL1        0.1388
     18 O         -25.1430    3.9660   28.2430 O.2     1  UNL1       -0.2686
     19 C         -27.4380    3.0910   25.6450 C.2     1  UNL1        0.1025
     20 N         -28.0750    2.0890   25.0030 N.2     1  UNL1       -0.2118
     21 C         -27.5430    0.8490   25.0790 C.2     1  UNL1        0.2344
     22 O         -28.1930   -0.2080   24.4770 O.2     1  UNL1       -0.4585
     23 C         -29.4600    0.0050   23.8660 C.3     1  UNL1        0.2423
     24 C         -30.0650   -1.3770   23.5730 C.3     1  UNL1        0.2292
     25 O         -30.7290   -1.8780   24.7210 O.3     1  UNL1       -0.2162
     26 C         -26.3540    0.5760   25.7770 C.3     1  UNL1        0.2441
     27 F         -25.8600   -0.6810   25.7950 F       1  UNL1       -0.2265
     28 N         -25.8200    2.1132   29.2360 N.3     1  UNL1       -0.1897
     29 C         -27.1494    2.2037   29.7081 C.3     1  UNL1        0.1365
     30 C         -21.5355    1.3279   27.7157 C.2     1  UNL1        0.0317
     31 N         -29.3138    1.1800   29.5824 N.pl3   1  UNL1       -0.1299
     32 F         -22.3284    0.3915   29.6038 F       1  UNL1       -0.2044
     33 C         -27.9248    1.0560   29.4960 C.2     1  UNL1        0.0988
     34 C         -25.2308    0.9734   28.8258 C.3     1  UNL1        0.1738
     35 C         -24.0094    1.1460   27.9922 C.2     1  UNL1        0.0384
     36 C         -27.2535   -0.1730   29.2080 C.2     1  UNL1        0.0780
     37 C         -21.7193    1.6255   26.3790 C.2     1  UNL1        0.0316
     38 F         -22.9926    1.4110   24.4964 F       1  UNL1       -0.2045
     39 N         -25.8319   -0.1470   29.1705 N.pl3   1  UNL1       -0.2864
     40 C         -22.9909    1.5075   25.8642 C.2     1  UNL1        0.1365
     41 C         -22.6491    0.9436   28.4675 C.2     1  UNL1        0.1389
     42 C         -24.2227    1.4336   26.7539 C.2     1  UNL1        0.0135
@<TRIPOS>BOND
     1     1     2    1
     2     2     7    1
     3     3     2    2
     4     4     3    1
     5     4     5    2
     6     5     6    1
     7     6     7    2
     8     8     1    1
     9     8     9    1
    10     8    12    1
    11     9    10    1
    12    10    11    1
    13    12    11    1
    14    13    42    1
    15    14    13    1
    16    14    15    1
    17    15    18    2
    18    16    17    1
    19    16    15    1
    20    19    14    2
    21    20    21    2
    22    20    19    1
    23    21    26    1
    24    22    21    1
    25    23    22    1
    26    24    23    1
    27    24    25    1
    28    26    27    1
    29    26    13    1
    30    28    29    1
    31    30    41    1
    32    33    31    1
    33    33    29    1
    34    34    35    1
    35    34    39    1
    36    34    28    1
    37    35    41    2
    38    36    33    2
    39    37    30    2
    40    38    40    1
    41    39    36    1
    42    39     1    1
    43    40    37    1
    44    40    42    2
    45    41    32    1
    46    42    35    1
