@<TRIPOS>MOLECULE
outputs/IAG933/test6/raw/output_5026_IAG933_linker_design_.xyz
 50 56 0 0 0
SMALL
GASTEIGER

@<TRIPOS>ATOM
      1 C         -24.8550   -1.0120   30.1430 C.3     1  UNL1        0.0441
      2 C         -24.9730   -2.5050   29.7880 C.2     1  UNL1       -0.0208
      3 C         -23.9060   -3.1730   29.1460 C.2     1  UNL1       -0.0042
      4 C         -23.9890   -4.5490   28.8530 C.2     1  UNL1       -0.0003
      5 C         -25.1370   -5.2800   29.2050 C.2     1  UNL1       -0.0000
      6 C         -26.2320   -4.6110   29.7840 C.2     1  UNL1       -0.0003
      7 C         -26.1550   -3.2320   30.0650 C.2     1  UNL1       -0.0042
      8 C         -25.3870   -0.6790   31.5710 C.3     1  UNL1        0.0840
      9 C         -25.1890    0.7730   32.0280 C.3     1  UNL1        0.0753
     10 C         -25.3360    0.6840   33.5440 C.3     1  UNL1        0.0275
     11 C         -24.8290   -0.7150   33.9050 C.3     1  UNL1        0.0891
     12 N         -24.7580   -1.4810   32.6460 N.3     1  UNL1       -0.2187
     13 C         -25.6880    1.6140   26.4610 C.3     1  UNL1        0.0726
     14 C         -26.2500    2.9200   26.3950 C.2     1  UNL1        0.0527
     15 C         -25.6420    4.0930   27.1230 C.2     1  UNL1        0.2178
     16 N         -25.6140    5.2520   26.4490 N.2     1  UNL1       -0.2359
     17 C         -25.0260    6.4790   26.9630 C.3     1  UNL1        0.1550
     18 O         -25.1430    3.9660   28.2430 O.2     1  UNL1       -0.4605
     19 C         -27.4380    3.0910   25.6450 C.2     1  UNL1        0.1022
     20 N         -28.0750    2.0890   25.0030 N.2     1  UNL1       -0.2119
     21 C         -27.5430    0.8490   25.0790 C.2     1  UNL1        0.2341
     22 O         -28.1930   -0.2080   24.4770 O.2     1  UNL1       -0.4585
     23 C         -29.4600    0.0050   23.8660 C.3     1  UNL1        0.2423
     24 C         -30.0650   -1.3770   23.5730 C.3     1  UNL1        0.2292
     25 O         -30.7290   -1.8780   24.7210 O.3     1  UNL1       -0.2162
     26 C         -26.3540    0.5760   25.7770 C.3     1  UNL1        0.2401
     27 F         -25.8600   -0.6810   25.7950 F       1  UNL1       -0.2269
     28 C         -30.2787    3.4892   29.2845 C.3     1  UNL1        0.0794
     29 N         -27.8252    7.5842   30.9826 N.2     1  UNL1       -0.1431
     30 C         -26.4835    3.9085   30.0557 C.3     1  UNL1        0.2110
     31 C         -25.3554    3.2633   29.4777 C.3     1  UNL1        0.2098
     32 C         -27.8741    6.2565   30.6871 C.3     1  UNL1        0.2250
     33 C         -23.5821    1.6704   27.8753 C.3     1  UNL1        0.1195
     34 C         -27.3215    1.7947   30.6607 C.3     1  UNL1        0.0659
     35 C         -28.8370    1.0374   28.1467 C.3     1  UNL1        0.0583
     36 N         -25.7261    7.3029   30.4162 N.2     1  UNL1       -0.0933
     37 C         -26.2851    6.1591   30.3511 C.2     1  UNL1        0.2500
     38 N         -26.6695    8.1048   30.8831 N.2     1  UNL1       -0.0435
     39 C         -24.4295    1.9897   29.1916 C.3     1  UNL1        0.0769
     40 C         -29.0862    3.8417   30.1306 C.2     1  UNL1       -0.0317
     41 C         -27.7267    3.3914   30.2501 C.3     1  UNL1        0.0696
     42 O         -25.4480    3.1852   31.9908 O.2     1  UNL1       -0.2960
     43 C         -25.9276    2.1257   31.5796 C.2     1  UNL1        0.1517
     44 C         -24.2468    1.4780   26.5826 C.3     1  UNL1        0.0375
     45 O         -22.5086    2.5757   27.8028 O.3     1  UNL1       -0.3534
     46 O         -25.9839    5.1336   30.2154 O.2     1  UNL1       -0.4603
     47 C         -27.9250    0.7861   29.2152 C.3     1  UNL1        0.0194
     48 C         -21.3138    2.0592   27.2381 C.3     1  UNL1        0.1740
     49 S         -30.2091    2.0797   28.1644 S.3     1  UNL1       -0.1358
     50 C         -29.1463    5.4067   30.2757 C.2     1  UNL1        0.0015
@<TRIPOS>BOND
     1     2     7    1
     2     2     1    1
     3     3     2    2
     4     4     3    1
     5     4     5    2
     6     5     6    1
     7     6     7    2
     8     8     1    1
     9     8     9    1
    10     8    12    1
    11     9    43    1
    12     9    10    1
    13    10    11    1
    14    12    11    1
    15    13    44    1
    16    14    13    1
    17    14    15    1
    18    15    18    1
    19    16    17    1
    20    16    15    2
    21    18    31    1
    22    19    14    2
    23    20    21    2
    24    20    19    1
    25    21    26    1
    26    22    21    1
    27    23    22    1
    28    24    23    1
    29    24    25    1
    30    26    27    1
    31    26    13    1
    32    28    40    1
    33    30    46    1
    34    30    41    1
    35    31    39    1
    36    31    30    1
    37    32    50    1
    38    32    29    1
    39    33    45    1
    40    33    39    1
    41    34    43    1
    42    35    49    1
    43    35    47    1
    44    36    38    1
    45    37    36    2
    46    37    32    1
    47    38    29    2
    48    40    50    2
    49    41    40    1
    50    41    34    1
    51    43    42    2
    52    44    33    1
    53    46    37    1
    54    47    34    1
    55    48    45    1
    56    49    28    1
