@<TRIPOS>MOLECULE
outputs/IAG933/test6/raw/output_5029_IAG933_linker_design_.xyz
 39 43 0 0 0
SMALL
GASTEIGER

@<TRIPOS>ATOM
      1 C         -24.8550   -1.0120   30.1430 C.3     1  UNL1        0.1133
      2 C         -24.9730   -2.5050   29.7880 C.2     1  UNL1       -0.0029
      3 C         -23.9060   -3.1730   29.1460 C.2     1  UNL1       -0.0026
      4 C         -23.9890   -4.5490   28.8530 C.2     1  UNL1       -0.0003
      5 C         -25.1370   -5.2800   29.2050 C.2     1  UNL1       -0.0000
      6 C         -26.2320   -4.6110   29.7840 C.2     1  UNL1       -0.0003
      7 C         -26.1550   -3.2320   30.0650 C.2     1  UNL1       -0.0026
      8 C         -25.3870   -0.6790   31.5710 C.3     1  UNL1        0.0951
      9 C         -25.1890    0.7730   32.0280 C.3     1  UNL1        0.0209
     10 C         -25.3360    0.6840   33.5440 C.3     1  UNL1        0.0203
     11 C         -24.8290   -0.7150   33.9050 C.3     1  UNL1        0.0888
     12 N         -24.7580   -1.4810   32.6460 N.3     1  UNL1       -0.2174
     13 C         -25.6880    1.6140   26.4610 C.3     1  UNL1        0.0983
     14 C         -26.2500    2.9200   26.3950 C.2     1  UNL1        0.0572
     15 C         -25.6420    4.0930   27.1230 C.2     1  UNL1        0.2625
     16 N         -25.6140    5.2520   26.4490 N.am    1  UNL1       -0.2000
     17 C         -25.0260    6.4790   26.9630 C.3     1  UNL1        0.1388
     18 O         -25.1430    3.9660   28.2430 O.2     1  UNL1       -0.2687
     19 C         -27.4380    3.0910   25.6450 C.2     1  UNL1        0.1022
     20 N         -28.0750    2.0890   25.0030 N.2     1  UNL1       -0.2119
     21 C         -27.5430    0.8490   25.0790 C.2     1  UNL1        0.2342
     22 O         -28.1930   -0.2080   24.4770 O.2     1  UNL1       -0.4585
     23 C         -29.4600    0.0050   23.8660 C.3     1  UNL1        0.2423
     24 C         -30.0650   -1.3770   23.5730 C.3     1  UNL1        0.2292
     25 O         -30.7290   -1.8780   24.7210 O.3     1  UNL1       -0.2162
     26 C         -26.3540    0.5760   25.7770 C.3     1  UNL1        0.2424
     27 F         -25.8600   -0.6810   25.7950 F       1  UNL1       -0.2268
     28 N         -21.3970    0.8309   28.5383 N.2     1  UNL1       -0.2126
     29 O         -23.7001    2.0634   25.4746 O.3     1  UNL1       -0.3170
     30 N         -24.7724   -0.0414   29.1294 N.pl3   1  UNL1       -0.2783
     31 O         -21.4696    2.0239   26.3939 O.2     1  UNL1       -0.4346
     32 C         -23.4083    1.1434   27.5783 C.3     1  UNL1        0.1409
     33 C         -22.0078    1.3864   27.4508 C.2     1  UNL1        0.2102
     34 C         -22.3526    0.1888   29.3050 C.2     1  UNL1        0.1124
     35 C         -24.2459    1.5459   26.5624 C.3     1  UNL1        0.1404
     36 C         -22.4655    2.4321   25.4955 C.3     1  UNL1        0.3617
     37 C         -23.5750    0.3712   28.7930 C.2     1  UNL1        0.0573
     38 O         -26.9784   -0.3936   28.6628 O.3     1  UNL1       -0.1959
     39 C         -25.9972   -0.1829   28.6692 C.3     1  UNL1        0.2783
@<TRIPOS>BOND
     1     1    30    1
     2     2     7    1
     3     2     1    1
     4     3     2    2
     5     4     3    1
     6     4     5    2
     7     5     6    1
     8     6     7    2
     9     8     1    1
    10     8     9    1
    11     8    12    1
    12     9    10    1
    13    10    11    1
    14    12    11    1
    15    13    14    1
    16    13    35    1
    17    14    15    1
    18    15    18    2
    19    16    17    1
    20    16    15    1
    21    19    14    2
    22    20    21    2
    23    20    19    1
    24    21    26    1
    25    22    21    1
    26    23    22    1
    27    24    23    1
    28    24    25    1
    29    26    27    1
    30    26    13    1
    31    28    34    1
    32    29    36    1
    33    31    33    1
    34    32    33    1
    35    32    37    1
    36    33    28    2
    37    35    29    1
    38    35    32    1
    39    36    31    1
    40    37    30    1
    41    37    34    2
    42    38    39    1
    43    39    30    1
