@<TRIPOS>MOLECULE
No_503-gen_results/8p0m/2024-11-27-11-27-31/
 11 11 0 0 0
SMALL
GASTEIGER

@<TRIPOS>ATOM
      1 O         -28.1229   -1.3353   28.4874 O.2     1  UNL1       -0.2730
      2 C         -27.0637   -0.8242   28.8687 C.2     1  UNL1        0.2459
      3 C         -25.9464   -1.0396   28.8492 C.3     1  UNL1        0.1131
      4 C         -24.7602   -0.1562   29.1644 C.ar    1  UNL1       -0.0130
      5 C         -23.3890   -0.4551   29.0162 C.ar    1  UNL1       -0.0038
      6 N         -27.2690    0.5956   29.5360 N.am    1  UNL1       -0.2032
      7 C         -28.6234    1.0171   29.6516 C.3     1  UNL1        0.1385
      8 C         -22.4144    0.5369   29.0739 C.ar    1  UNL1       -0.0003
      9 C         -22.6893    1.5836   28.4373 C.ar    1  UNL1       -0.0000
     10 C         -24.0434    2.0846   28.2876 C.ar    1  UNL1       -0.0003
     11 C         -25.0484    1.1159   28.4401 C.ar    1  UNL1       -0.0038
@<TRIPOS>BOND
     1     1     2    2
     2     2     3    1
     3     3     4    1
     4     2     6   am
     5     6     7    1
     6     4     5   ar
     7     5     8   ar
     8     8     9   ar
     9     9    10   ar
    10    10    11   ar
    11    11     4   ar
