@<TRIPOS>MOLECULE
outputs/IAG933/test6/raw/output_5033_IAG933_linker_design_.xyz
 45 50 0 0 0
SMALL
GASTEIGER

@<TRIPOS>ATOM
      1 C         -24.8550   -1.0120   30.1430 C.3     1  UNL1        0.0575
      2 C         -24.9730   -2.5050   29.7880 C.2     1  UNL1       -0.0174
      3 C         -23.9060   -3.1730   29.1460 C.2     1  UNL1       -0.0039
      4 C         -23.9890   -4.5490   28.8530 C.2     1  UNL1       -0.0003
      5 C         -25.1370   -5.2800   29.2050 C.2     1  UNL1       -0.0000
      6 C         -26.2320   -4.6110   29.7840 C.2     1  UNL1       -0.0003
      7 C         -26.1550   -3.2320   30.0650 C.2     1  UNL1       -0.0039
      8 C         -25.3870   -0.6790   31.5710 C.3     1  UNL1        0.0806
      9 C         -25.1890    0.7730   32.0280 C.3     1  UNL1        0.0195
     10 C         -25.3360    0.6840   33.5440 C.3     1  UNL1        0.0203
     11 C         -24.8290   -0.7150   33.9050 C.3     1  UNL1        0.0887
     12 N         -24.7580   -1.4810   32.6460 N.3     1  UNL1       -0.2188
     13 C         -25.6880    1.6140   26.4610 C.2     1  UNL1        0.0252
     14 C         -26.2500    2.9200   26.3950 C.2     1  UNL1        0.0732
     15 C         -25.6420    4.0930   27.1230 C.2     1  UNL1        0.2661
     16 N         -25.6140    5.2520   26.4490 N.am    1  UNL1       -0.1997
     17 C         -25.0260    6.4790   26.9630 C.3     1  UNL1        0.1388
     18 O         -25.1430    3.9660   28.2430 O.2     1  UNL1       -0.2683
     19 C         -27.4380    3.0910   25.6450 C.2     1  UNL1        0.1064
     20 N         -28.0750    2.0890   25.0030 N.2     1  UNL1       -0.2081
     21 C         -27.5430    0.8490   25.0790 C.2     1  UNL1        0.2530
     22 O         -28.1930   -0.2080   24.4770 O.2     1  UNL1       -0.4558
     23 C         -29.4600    0.0050   23.8660 C.3     1  UNL1        0.2426
     24 C         -30.0650   -1.3770   23.5730 C.3     1  UNL1        0.2292
     25 O         -30.7290   -1.8780   24.7210 O.3     1  UNL1       -0.2162
     26 C         -26.3540    0.5760   25.7770 C.2     1  UNL1        0.1898
     27 F         -25.8600   -0.6810   25.7950 F       1  UNL1       -0.1996
     28 O         -21.3428    2.1040   26.7373 O.2     1  UNL1       -0.4462
     29 C         -21.4084    1.3657   27.8819 C.2     1  UNL1        0.1958
     30 C         -29.0632   -1.2178   28.6461 C.3     1  UNL1        0.2106
     31 C         -24.7089    1.1973   27.1510 C.3     1  UNL1        0.0885
     32 C         -24.6853    0.4076   28.3198 C.2     1  UNL1        0.0487
     33 O         -29.2705   -2.4381   29.3342 O.3     1  UNL1       -0.2176
     34 O         -30.0960    0.0127   26.9711 O.3     1  UNL1       -0.3259
     35 C         -30.1423   -0.2406   28.4026 C.3     1  UNL1        0.2668
     36 C         -25.4921   -0.4391   28.9356 C.2     1  UNL1       -0.0272
     37 C         -27.9678   -0.3832   29.2519 C.3     1  UNL1        0.0693
     38 C         -26.7521   -0.6954   28.3819 C.3     1  UNL1        0.0286
     39 C         -31.2331    0.7221   26.4706 C.3     1  UNL1        0.1769
     40 C         -23.5259    1.6793   26.7636 C.2     1  UNL1        0.0429
     41 C         -22.6644    1.0853   28.2543 C.2     1  UNL1        0.1073
     42 C         -28.4441    1.0870   29.2436 C.3     1  UNL1        0.1478
     43 C         -22.5420    2.2964   26.1150 C.2     1  UNL1        0.1774
     44 N         -23.5341    0.6045   29.0353 N.pl3   1  UNL1       -0.2138
     45 O         -29.8576    0.9900   29.0524 O.3     1  UNL1       -0.3285
@<TRIPOS>BOND
     1     1    36    1
     2     2     7    1
     3     2     1    1
     4     3     2    2
     5     4     3    1
     6     4     5    2
     7     5     6    1
     8     6     7    2
     9     8     1    1
    10     8     9    1
    11     8    12    1
    12     9    10    1
    13    10    11    1
    14    12    11    1
    15    14    13    1
    16    14    15    1
    17    15    18    2
    18    16    17    1
    19    16    15    1
    20    19    14    2
    21    20    21    2
    22    20    19    1
    23    21    26    1
    24    22    21    1
    25    23    22    1
    26    24    23    1
    27    24    25    1
    28    26    27    1
    29    26    13    2
    30    28    29    1
    31    29    41    2
    32    30    37    1
    33    30    33    1
    34    31    13    1
    35    31    32    1
    36    32    36    2
    37    32    44    1
    38    35    34    1
    39    35    30    1
    40    35    45    1
    41    37    38    1
    42    38    36    1
    43    39    34    1
    44    40    31    1
    45    40    41    1
    46    41    44    1
    47    42    37    1
    48    43    28    1
    49    43    40    2
    50    45    42    1
