@<TRIPOS>MOLECULE
outputs/IAG933/test6/raw/output_5034_IAG933_linker_design_.xyz
 41 44 0 0 0
SMALL
GASTEIGER

@<TRIPOS>ATOM
      1 C         -24.8550   -1.0120   30.1430 C.3     1  UNL1        0.0403
      2 C         -24.9730   -2.5050   29.7880 C.2     1  UNL1       -0.0211
      3 C         -23.9060   -3.1730   29.1460 C.2     1  UNL1       -0.0042
      4 C         -23.9890   -4.5490   28.8530 C.2     1  UNL1       -0.0003
      5 C         -25.1370   -5.2800   29.2050 C.2     1  UNL1       -0.0000
      6 C         -26.2320   -4.6110   29.7840 C.2     1  UNL1       -0.0003
      7 C         -26.1550   -3.2320   30.0650 C.2     1  UNL1       -0.0042
      8 C         -25.3870   -0.6790   31.5710 C.3     1  UNL1        0.0807
      9 C         -25.1890    0.7730   32.0280 C.3     1  UNL1        0.0409
     10 C         -25.3360    0.6840   33.5440 C.3     1  UNL1        0.0244
     11 C         -24.8290   -0.7150   33.9050 C.3     1  UNL1        0.0890
     12 N         -24.7580   -1.4810   32.6460 N.3     1  UNL1       -0.2188
     13 C         -25.6880    1.6140   26.4610 C.3     1  UNL1        0.1288
     14 C         -26.2500    2.9200   26.3950 C.2     1  UNL1        0.0696
     15 C         -25.6420    4.0930   27.1230 C.2     1  UNL1        0.2637
     16 N         -25.6140    5.2520   26.4490 N.am    1  UNL1       -0.2000
     17 C         -25.0260    6.4790   26.9630 C.3     1  UNL1        0.1388
     18 O         -25.1430    3.9660   28.2430 O.2     1  UNL1       -0.2686
     19 C         -27.4380    3.0910   25.6450 C.2     1  UNL1        0.1035
     20 N         -28.0750    2.0890   25.0030 N.2     1  UNL1       -0.2118
     21 C         -27.5430    0.8490   25.0790 C.2     1  UNL1        0.2355
     22 O         -28.1930   -0.2080   24.4770 O.2     1  UNL1       -0.4585
     23 C         -29.4600    0.0050   23.8660 C.3     1  UNL1        0.2423
     24 C         -30.0650   -1.3770   23.5730 C.3     1  UNL1        0.2292
     25 O         -30.7290   -1.8780   24.7210 O.3     1  UNL1       -0.2162
     26 C         -26.3540    0.5760   25.7770 C.3     1  UNL1        0.2546
     27 F         -25.8600   -0.6810   25.7950 F       1  UNL1       -0.2254
     28 O         -22.5420    0.3778   29.0729 O.2     1  UNL1       -0.2946
     29 N         -24.6950    1.4287   27.4887 N.3     1  UNL1       -0.2604
     30 C         -24.7456    2.8794   31.2052 C.2     1  UNL1        0.2164
     31 C         -22.4187    1.0728   28.1337 C.2     1  UNL1        0.1654
     32 C         -24.9494    1.3351   29.0304 C.3     1  UNL1        0.0807
     33 C         -23.0601    2.2660   25.7804 C.3     1  UNL1        0.0254
     34 N         -26.5472    3.8288   33.3309 N.2     1  UNL1        0.1922
     35 C         -23.3809    1.2566   26.9301 C.3     1  UNL1        0.1162
     36 C         -21.0075    1.3995   27.5214 C.3     1  UNL1        0.0737
     37 N         -24.6079    3.6964   32.1292 N.pl3   1  UNL1       -0.0029
     38 C         -25.1833   -0.1925   28.9685 C.3     1  UNL1        0.0260
     39 C         -24.9878    1.5599   30.6492 C.2     1  UNL1        0.0157
     40 C         -25.3762    4.3441   32.9799 C.2     1  UNL1        0.3950
     41 C         -24.8762    5.6650   33.4901 C.3     1  UNL1        0.1393
@<TRIPOS>BOND
     1     1     2    1
     2     1     8    1
     3     2     7    1
     4     3     2    2
     5     4     3    1
     6     4     5    2
     7     5     6    1
     8     6     7    2
     9     8     9    1
    10     8    12    1
    11     9    10    1
    12    10    11    1
    13    12    11    1
    14    13    29    1
    15    14    13    1
    16    14    15    1
    17    15    18    2
    18    16    17    1
    19    16    15    1
    20    19    14    2
    21    20    21    2
    22    20    19    1
    23    21    26    1
    24    22    21    1
    25    23    22    1
    26    24    23    1
    27    24    25    1
    28    26    27    1
    29    26    13    1
    30    30    37    1
    31    31    28    2
    32    32    29    1
    33    32    39    1
    34    35    33    1
    35    35    29    1
    36    35    31    1
    37    36    31    1
    38    37    40    1
    39    38    32    1
    40    38     1    1
    41    39    30    2
    42    39     9    1
    43    40    34    2
    44    40    41    1
