@<TRIPOS>MOLECULE
outputs/IAG933/test6/raw/output_5038_IAG933_linker_design_.xyz
 45 48 0 0 0
SMALL
GASTEIGER

@<TRIPOS>ATOM
      1 C         -24.8550   -1.0120   30.1430 C.3     1  UNL1        0.0384
      2 C         -24.9730   -2.5050   29.7880 C.2     1  UNL1       -0.0212
      3 C         -23.9060   -3.1730   29.1460 C.2     1  UNL1       -0.0042
      4 C         -23.9890   -4.5490   28.8530 C.2     1  UNL1       -0.0003
      5 C         -25.1370   -5.2800   29.2050 C.2     1  UNL1       -0.0000
      6 C         -26.2320   -4.6110   29.7840 C.2     1  UNL1       -0.0003
      7 C         -26.1550   -3.2320   30.0650 C.2     1  UNL1       -0.0042
      8 C         -25.3870   -0.6790   31.5710 C.3     1  UNL1        0.0768
      9 C         -25.1890    0.7730   32.0280 C.3     1  UNL1        0.0192
     10 C         -25.3360    0.6840   33.5440 C.3     1  UNL1        0.0202
     11 C         -24.8290   -0.7150   33.9050 C.3     1  UNL1        0.0887
     12 N         -24.7580   -1.4810   32.6460 N.3     1  UNL1       -0.2191
     13 C         -25.6880    1.6140   26.4610 C.2     1  UNL1        0.0160
     14 C         -26.2500    2.9200   26.3950 C.2     1  UNL1        0.0726
     15 C         -25.6420    4.0930   27.1230 C.2     1  UNL1        0.2661
     16 N         -25.6140    5.2520   26.4490 N.am    1  UNL1       -0.1997
     17 C         -25.0260    6.4790   26.9630 C.3     1  UNL1        0.1388
     18 O         -25.1430    3.9660   28.2430 O.2     1  UNL1       -0.2683
     19 C         -27.4380    3.0910   25.6450 C.2     1  UNL1        0.1064
     20 N         -28.0750    2.0890   25.0030 N.2     1  UNL1       -0.2081
     21 C         -27.5430    0.8490   25.0790 C.2     1  UNL1        0.2530
     22 O         -28.1930   -0.2080   24.4770 O.2     1  UNL1       -0.4558
     23 C         -29.4600    0.0050   23.8660 C.3     1  UNL1        0.2426
     24 C         -30.0650   -1.3770   23.5730 C.3     1  UNL1        0.2292
     25 O         -30.7290   -1.8780   24.7210 O.3     1  UNL1       -0.2162
     26 C         -26.3540    0.5760   25.7770 C.2     1  UNL1        0.1891
     27 F         -25.8600   -0.6810   25.7950 F       1  UNL1       -0.1996
     28 C         -29.9851    2.2499   28.2801 C.3     1  UNL1        0.1135
     29 C         -27.7109    1.4071   29.2134 C.3     1  UNL1        0.0019
     30 C         -24.3139    0.9893   28.5557 C.3     1  UNL1        0.0410
     31 C         -31.2511    1.8648   27.8496 C.2     1  UNL1       -0.0094
     32 F         -29.4754   -0.5559   27.0356 F       1  UNL1       -0.2325
     33 N         -29.4780    3.4388   27.7977 N.3     1  UNL1       -0.1281
     34 C         -31.5126    0.5635   27.4254 C.2     1  UNL1        0.0053
     35 C         -29.6330   -0.0396   28.7985 C.3     1  UNL1        0.0417
     36 C         -30.5638   -0.4828   27.7203 C.3     1  UNL1        0.1828
     37 C         -25.3870   -0.0359   28.9745 C.3     1  UNL1        0.0083
     38 C         -29.1967    1.3234   28.8766 C.3     1  UNL1        0.0248
     39 C         -26.9773    0.0545   28.9355 C.3     1  UNL1        0.0005
     40 F         -20.6188    1.1954   28.0679 F       1  UNL1       -0.1956
     41 O         -22.3077   -0.1126   29.5420 O.3     1  UNL1       -0.2171
     42 F         -21.9143    2.1306   26.7669 F       1  UNL1       -0.1956
     43 C         -24.4572    1.2649   27.1548 C.3     1  UNL1        0.0317
     44 C         -21.9405    1.0837   27.6640 C.3     1  UNL1        0.3483
     45 C         -22.8704    1.0302   28.8839 C.3     1  UNL1        0.2184
@<TRIPOS>BOND
     1     1    37    1
     2     2     7    1
     3     2     1    1
     4     3     2    2
     5     4     3    1
     6     4     5    2
     7     5     6    1
     8     6     7    2
     9     8     1    1
    10     8     9    1
    11     8    12    1
    12     9    10    1
    13    10    11    1
    14    12    11    1
    15    13    43    1
    16    14    13    1
    17    14    15    1
    18    15    18    2
    19    16    17    1
    20    16    15    1
    21    19    14    2
    22    20    21    2
    23    20    19    1
    24    21    26    1
    25    22    21    1
    26    23    22    1
    27    24    23    1
    28    24    25    1
    29    26    27    1
    30    26    13    2
    31    28    33    1
    32    28    38    1
    33    30    43    1
    34    30    45    1
    35    30    37    1
    36    31    28    1
    37    34    36    1
    38    34    31    2
    39    35    38    1
    40    36    32    1
    41    36    35    1
    42    37    39    1
    43    38    29    1
    44    39    29    1
    45    42    44    1
    46    44    40    1
    47    44    45    1
    48    45    41    1
