@<TRIPOS>MOLECULE
outputs/IAG933/test6/raw/output_504_IAG933_linker_design_.xyz
 42 45 0 0 0
SMALL
GASTEIGER

@<TRIPOS>ATOM
      1 C         -24.8550   -1.0120   30.1430 C.3     1  UNL1        0.1404
      2 C         -24.9730   -2.5050   29.7880 C.2     1  UNL1       -0.0030
      3 C         -23.9060   -3.1730   29.1460 C.2     1  UNL1       -0.0028
      4 C         -23.9890   -4.5490   28.8530 C.2     1  UNL1       -0.0003
      5 C         -25.1370   -5.2800   29.2050 C.2     1  UNL1       -0.0000
      6 C         -26.2320   -4.6110   29.7840 C.2     1  UNL1       -0.0003
      7 C         -26.1550   -3.2320   30.0650 C.2     1  UNL1       -0.0028
      8 C         -25.3870   -0.6790   31.5710 C.3     1  UNL1        0.0951
      9 C         -25.1890    0.7730   32.0280 C.3     1  UNL1        0.0207
     10 C         -25.3360    0.6840   33.5440 C.3     1  UNL1        0.0203
     11 C         -24.8290   -0.7150   33.9050 C.3     1  UNL1        0.0888
     12 N         -24.7580   -1.4810   32.6460 N.3     1  UNL1       -0.2176
     13 C         -25.6880    1.6140   26.4610 C.3     1  UNL1        0.1665
     14 C         -26.2500    2.9200   26.3950 C.2     1  UNL1        0.0748
     15 C         -25.6420    4.0930   27.1230 C.2     1  UNL1        0.2641
     16 N         -25.6140    5.2520   26.4490 N.am    1  UNL1       -0.1999
     17 C         -25.0260    6.4790   26.9630 C.3     1  UNL1        0.1388
     18 O         -25.1430    3.9660   28.2430 O.2     1  UNL1       -0.2686
     19 C         -27.4380    3.0910   25.6450 C.2     1  UNL1        0.1038
     20 N         -28.0750    2.0890   25.0030 N.2     1  UNL1       -0.2118
     21 C         -27.5430    0.8490   25.0790 C.2     1  UNL1        0.2359
     22 O         -28.1930   -0.2080   24.4770 O.2     1  UNL1       -0.4585
     23 C         -29.4600    0.0050   23.8660 C.3     1  UNL1        0.2423
     24 C         -30.0650   -1.3770   23.5730 C.3     1  UNL1        0.2292
     25 O         -30.7290   -1.8780   24.7210 O.3     1  UNL1       -0.2162
     26 C         -26.3540    0.5760   25.7770 C.3     1  UNL1        0.2598
     27 F         -25.8600   -0.6810   25.7950 F       1  UNL1       -0.2250
     28 N         -23.4435    0.0763   29.2132 N.pl3   1  UNL1       -0.1429
     29 N         -24.5841   -0.1523   29.2751 N.3     1  UNL1       -0.0480
     30 O         -26.3070   -0.6971   27.9314 O.2     1  UNL1       -0.1363
     31 C         -22.6500    0.6820   28.3694 C.2     1  UNL1        0.1088
     32 C         -22.8214    1.8873   26.3911 C.3     1  UNL1        0.2251
     33 C         -21.2366    0.4753   28.5857 C.3     1  UNL1        0.2005
     34 F         -20.2415    1.3685   28.5424 F       1  UNL1       -0.2309
     35 F         -23.7873    2.8374   25.7038 F       1  UNL1       -0.2311
     36 C         -23.0178    1.8694   24.9659 C.3     1  UNL1        0.2318
     37 C         -23.3689    1.2559   27.2988 C.2     1  UNL1        0.0959
     38 S         -25.6974    0.3010   28.4932 S.O2    1  UNL1        0.1327
     39 O         -21.3341    2.0317   26.5430 O.3     1  UNL1       -0.2138
     40 O         -26.6119    1.1412   29.1873 O.2     1  UNL1       -0.1363
     41 N         -24.8046    1.1614   27.3946 N.pl3   1  UNL1       -0.1741
     42 C         -20.7675   -0.7069   29.3812 C.3     1  UNL1        0.0446
@<TRIPOS>BOND
     1     1     2    1
     2     2     7    1
     3     3     2    2
     4     4     3    1
     5     4     5    2
     6     5     6    1
     7     6     7    2
     8     8     1    1
     9     8     9    1
    10     8    12    1
    11     9    10    1
    12    10    11    1
    13    12    11    1
    14    13    41    1
    15    14    13    1
    16    14    15    1
    17    15    18    2
    18    16    17    1
    19    16    15    1
    20    19    14    2
    21    20    21    2
    22    20    19    1
    23    21    26    1
    24    22    21    1
    25    23    22    1
    26    24    23    1
    27    24    25    1
    28    26    27    1
    29    26    13    1
    30    28    29    1
    31    29     1    1
    32    30    38    2
    33    31    33    1
    34    31    28    1
    35    32    39    1
    36    32    37    1
    37    33    42    1
    38    34    33    1
    39    36    35    1
    40    36    32    1
    41    37    41    1
    42    37    31    2
    43    38    40    2
    44    38    29    1
    45    41    38    1
