@<TRIPOS>MOLECULE
outputs/IAG933/test6/raw/output_5041_IAG933_linker_design_.xyz
 48 54 0 0 0
SMALL
GASTEIGER

@<TRIPOS>ATOM
      1 C         -24.8550   -1.0120   30.1430 C.3     1  UNL1        0.0533
      2 C         -24.9730   -2.5050   29.7880 C.2     1  UNL1       -0.0198
      3 C         -23.9060   -3.1730   29.1460 C.2     1  UNL1       -0.0042
      4 C         -23.9890   -4.5490   28.8530 C.2     1  UNL1       -0.0003
      5 C         -25.1370   -5.2800   29.2050 C.2     1  UNL1       -0.0000
      6 C         -26.2320   -4.6110   29.7840 C.2     1  UNL1       -0.0003
      7 C         -26.1550   -3.2320   30.0650 C.2     1  UNL1       -0.0042
      8 C         -25.3870   -0.6790   31.5710 C.3     1  UNL1        0.0781
      9 C         -25.1890    0.7730   32.0280 C.3     1  UNL1        0.0192
     10 C         -25.3360    0.6840   33.5440 C.3     1  UNL1        0.0202
     11 C         -24.8290   -0.7150   33.9050 C.3     1  UNL1        0.0887
     12 N         -24.7580   -1.4810   32.6460 N.3     1  UNL1       -0.2191
     13 C         -25.6880    1.6140   26.4610 C.2     1  UNL1        0.0303
     14 C         -26.2500    2.9200   26.3950 C.2     1  UNL1        0.0738
     15 C         -25.6420    4.0930   27.1230 C.2     1  UNL1        0.2662
     16 N         -25.6140    5.2520   26.4490 N.am    1  UNL1       -0.1997
     17 C         -25.0260    6.4790   26.9630 C.3     1  UNL1        0.1388
     18 O         -25.1430    3.9660   28.2430 O.2     1  UNL1       -0.2683
     19 C         -27.4380    3.0910   25.6450 C.2     1  UNL1        0.1065
     20 N         -28.0750    2.0890   25.0030 N.2     1  UNL1       -0.2081
     21 C         -27.5430    0.8490   25.0790 C.2     1  UNL1        0.2530
     22 O         -28.1930   -0.2080   24.4770 O.2     1  UNL1       -0.4560
     23 C         -29.4600    0.0050   23.8660 C.3     1  UNL1        0.2392
     24 C         -30.0650   -1.3770   23.5730 C.3     1  UNL1        0.1922
     25 O         -30.7290   -1.8780   24.7210 O.3     1  UNL1       -0.3227
     26 C         -26.3540    0.5760   25.7770 C.2     1  UNL1        0.1904
     27 F         -25.8600   -0.6810   25.7950 F       1  UNL1       -0.1995
     28 C         -21.9588    1.7149   27.2089 C.3     1  UNL1        0.0032
     29 C         -24.4650    1.6659   27.2508 C.3     1  UNL1        0.0826
     30 O         -29.5111   -0.4672   28.1841 O.2     1  UNL1       -0.4372
     31 N         -28.6933    1.4327   31.1510 N.2     1  UNL1       -0.0572
     32 C         -23.2460    2.0144   26.3831 C.3     1  UNL1        0.0206
     33 C         -26.7187   -0.2311   28.6069 C.3     1  UNL1        0.0461
     34 C         -31.0840   -2.1612   26.1780 C.3     1  UNL1        0.2971
     35 N         -24.3387    0.2826   27.9821 N.3     1  UNL1       -0.2709
     36 C         -25.2414   -0.0732   28.9550 C.3     1  UNL1        0.0673
     37 C         -29.0511    0.3002   29.2620 C.2     1  UNL1        0.2198
     38 C         -22.2864    1.1659   28.7062 C.3     1  UNL1        0.0174
     39 N         -30.9390    1.4214   30.0550 N.am    1  UNL1       -0.1287
     40 C         -23.1832   -0.1638   28.4333 C.3     1  UNL1        0.0723
     41 O         -31.3829   -0.9057   26.7569 O.3     1  UNL1       -0.2826
     42 C         -30.9400   -0.5688   28.0806 C.3     1  UNL1        0.3963
     43 C         -31.4858    0.5340   28.9980 C.2     1  UNL1        0.3847
     44 C         -27.5155    0.9972   30.6294 C.3     1  UNL1        0.2889
     45 C         -29.5889    1.1046   30.2077 C.2     1  UNL1        0.3594
     46 C         -27.6652    0.2796   29.4644 C.2     1  UNL1        0.0514
     47 C         -31.5941    2.4642   30.8731 C.3     1  UNL1        0.2615
     48 O         -32.5397   -0.0769   29.5859 O.2     1  UNL1       -0.2397
@<TRIPOS>BOND
     1     1     2    1
     2     2     7    1
     3     3     2    2
     4     4     3    1
     5     4     5    2
     6     5     6    1
     7     6     7    2
     8     8     1    1
     9     8     9    1
    10     8    12    1
    11     9    10    1
    12    10    11    1
    13    12    11    1
    14    13    29    1
    15    14    13    1
    16    14    15    1
    17    15    18    2
    18    16    17    1
    19    16    15    1
    20    19    14    2
    21    20    21    2
    22    20    19    1
    23    21    26    1
    24    22    21    1
    25    23    22    1
    26    24    23    1
    27    24    25    1
    28    25    34    1
    29    26    27    1
    30    26    13    2
    31    28    38    1
    32    29    32    1
    33    29    35    1
    34    30    37    1
    35    32    28    1
    36    33    36    1
    37    33    46    1
    38    34    41    1
    39    35    40    1
    40    35    36    1
    41    36     1    1
    42    37    46    2
    43    37    45    1
    44    39    45    1
    45    39    47    1
    46    40    38    1
    47    42    41    1
    48    42    30    1
    49    42    43    1
    50    43    48    2
    51    43    39   am
    52    44    31    1
    53    45    31    2
    54    46    44    1
