@<TRIPOS>MOLECULE
outputs/IAG933/test6/raw/output_5042_IAG933_linker_design_.xyz
 47 50 0 0 0
SMALL
GASTEIGER

@<TRIPOS>ATOM
      1 C         -24.8550   -1.0120   30.1430 C.3     1  UNL1        0.0438
      2 C         -24.9730   -2.5050   29.7880 C.2     1  UNL1       -0.0208
      3 C         -23.9060   -3.1730   29.1460 C.2     1  UNL1       -0.0042
      4 C         -23.9890   -4.5490   28.8530 C.2     1  UNL1       -0.0003
      5 C         -25.1370   -5.2800   29.2050 C.2     1  UNL1       -0.0000
      6 C         -26.2320   -4.6110   29.7840 C.2     1  UNL1       -0.0003
      7 C         -26.1550   -3.2320   30.0650 C.2     1  UNL1       -0.0042
      8 C         -25.3870   -0.6790   31.5710 C.3     1  UNL1        0.0785
      9 C         -25.1890    0.7730   32.0280 C.3     1  UNL1        0.0353
     10 C         -25.3360    0.6840   33.5440 C.3     1  UNL1        0.0216
     11 C         -24.8290   -0.7150   33.9050 C.3     1  UNL1        0.0887
     12 N         -24.7580   -1.4810   32.6460 N.3     1  UNL1       -0.2191
     13 C         -25.6880    1.6140   26.4610 C.2     1  UNL1        0.1781
     14 C         -26.2500    2.9200   26.3950 C.2     1  UNL1        0.1106
     15 C         -25.6420    4.0930   27.1230 C.2     1  UNL1        0.2694
     16 N         -25.6140    5.2520   26.4490 N.am    1  UNL1       -0.1996
     17 C         -25.0260    6.4790   26.9630 C.3     1  UNL1        0.1388
     18 O         -25.1430    3.9660   28.2430 O.2     1  UNL1       -0.2682
     19 C         -27.4380    3.0910   25.6450 C.2     1  UNL1        0.1098
     20 N         -28.0750    2.0890   25.0030 N.2     1  UNL1       -0.2079
     21 C         -27.5430    0.8490   25.0790 C.2     1  UNL1        0.2564
     22 O         -28.1930   -0.2080   24.4770 O.2     1  UNL1       -0.4558
     23 C         -29.4600    0.0050   23.8660 C.3     1  UNL1        0.2426
     24 C         -30.0650   -1.3770   23.5730 C.3     1  UNL1        0.2292
     25 O         -30.7290   -1.8780   24.7210 O.3     1  UNL1       -0.2162
     26 C         -26.3540    0.5760   25.7770 C.2     1  UNL1        0.2267
     27 F         -25.8600   -0.6810   25.7950 F       1  UNL1       -0.1960
     28 N         -24.1701    2.0529   29.6747 N.3     1  UNL1       -0.1798
     29 C         -28.2200    4.7417   29.9584 C.3     1  UNL1        0.0502
     30 O         -24.5387    1.1511   27.1035 O.2     1  UNL1       -0.4591
     31 C         -26.3238    2.6315   30.8690 C.3     1  UNL1        0.0762
     32 C         -22.0563    0.9905   28.0290 C.2     1  UNL1        0.3701
     33 C         -26.3747    4.0544   32.7910 C.3     1  UNL1        0.0856
     34 C         -25.3491    1.8376   31.0215 C.3     1  UNL1        0.0923
     35 C         -28.3802    3.1863   29.9201 C.3     1  UNL1        0.1548
     36 C         -26.0731    4.6303   35.0452 C.2     1  UNL1        0.4552
     37 C         -26.7034    3.7382   34.1219 C.3     1  UNL1        0.1507
     38 N         -26.2499    4.4586   36.2804 N.pl3   1  UNL1        0.1994
     39 O         -20.7429    1.1068   27.7423 O.co2   1  UNL1       -0.2455
     40 C         -22.8065    2.2734   27.4388 C.3     1  UNL1        0.1764
     41 C         -27.2627    2.2884   29.7082 C.3     1  UNL1        0.0503
     42 N         -26.4815    3.8780   31.4470 N.3     1  UNL1       -0.2719
     43 N         -25.4643    5.7097   34.5960 N.pl3   1  UNL1        0.1994
     44 C         -26.8826    4.9734   30.6870 C.3     1  UNL1        0.0747
     45 O         -22.5132    0.1734   28.8644 O.co2   1  UNL1       -0.2455
     46 O         -29.5950    2.7586   30.0641 O.3     1  UNL1       -0.2231
     47 C         -24.0834    2.0125   28.1024 C.3     1  UNL1        0.2526
@<TRIPOS>BOND
     1     2     7    1
     2     2     1    1
     3     3     2    2
     4     4     3    1
     5     4     5    2
     6     5     6    1
     7     6     7    2
     8     8     1    1
     9     8     9    1
    10     8    12    1
    11     9    34    1
    12     9    10    1
    13    10    11    1
    14    12    11    1
    15    13    30    1
    16    14    13    1
    17    14    15    1
    18    15    18    2
    19    16    17    1
    20    16    15    1
    21    19    14    2
    22    20    21    2
    23    20    19    1
    24    21    26    1
    25    22    21    1
    26    23    22    1
    27    24    23    1
    28    24    25    1
    29    26    27    1
    30    26    13    2
    31    29    44    1
    32    30    47    1
    33    31    34    1
    34    31    42    1
    35    32    45   ar
    36    33    37    1
    37    34    28    1
    38    35    29    1
    39    35    46    1
    40    36    38    1
    41    37    36    1
    42    39    32   ar
    43    40    32    1
    44    41    35    1
    45    41    31    1
    46    42    33    1
    47    43    36    2
    48    44    42    1
    49    47    40    1
    50    47    28    1
