@<TRIPOS>MOLECULE
outputs/IAG933/test6/raw/output_5044_IAG933_linker_design_.xyz
 41 45 0 0 0
SMALL
GASTEIGER

@<TRIPOS>ATOM
      1 C         -24.8550   -1.0120   30.1430 C.3     1  UNL1        0.1120
      2 C         -24.9730   -2.5050   29.7880 C.2     1  UNL1       -0.0030
      3 C         -23.9060   -3.1730   29.1460 C.2     1  UNL1       -0.0026
      4 C         -23.9890   -4.5490   28.8530 C.2     1  UNL1       -0.0003
      5 C         -25.1370   -5.2800   29.2050 C.2     1  UNL1       -0.0000
      6 C         -26.2320   -4.6110   29.7840 C.2     1  UNL1       -0.0003
      7 C         -26.1550   -3.2320   30.0650 C.2     1  UNL1       -0.0026
      8 C         -25.3870   -0.6790   31.5710 C.3     1  UNL1        0.0951
      9 C         -25.1890    0.7730   32.0280 C.3     1  UNL1        0.0209
     10 C         -25.3360    0.6840   33.5440 C.3     1  UNL1        0.0203
     11 C         -24.8290   -0.7150   33.9050 C.3     1  UNL1        0.0888
     12 N         -24.7580   -1.4810   32.6460 N.3     1  UNL1       -0.2174
     13 C         -25.6880    1.6140   26.4610 C.3     1  UNL1        0.0902
     14 C         -26.2500    2.9200   26.3950 C.2     1  UNL1        0.0586
     15 C         -25.6420    4.0930   27.1230 C.2     1  UNL1        0.2627
     16 N         -25.6140    5.2520   26.4490 N.am    1  UNL1       -0.2000
     17 C         -25.0260    6.4790   26.9630 C.3     1  UNL1        0.1388
     18 O         -25.1430    3.9660   28.2430 O.2     1  UNL1       -0.2686
     19 C         -27.4380    3.0910   25.6450 C.2     1  UNL1        0.1025
     20 N         -28.0750    2.0890   25.0030 N.2     1  UNL1       -0.2118
     21 C         -27.5430    0.8490   25.0790 C.2     1  UNL1        0.2344
     22 O         -28.1930   -0.2080   24.4770 O.2     1  UNL1       -0.4585
     23 C         -29.4600    0.0050   23.8660 C.3     1  UNL1        0.2423
     24 C         -30.0650   -1.3770   23.5730 C.3     1  UNL1        0.2292
     25 O         -30.7290   -1.8780   24.7210 O.3     1  UNL1       -0.2162
     26 C         -26.3540    0.5760   25.7770 C.3     1  UNL1        0.2437
     27 F         -25.8600   -0.6810   25.7950 F       1  UNL1       -0.2265
     28 C         -21.9925    2.4735   25.7657 C.3     1  UNL1        0.0659
     29 C         -26.8160    0.1923   28.7891 C.2     1  UNL1        0.3863
     30 C         -24.8658    1.0922   27.5013 C.2     1  UNL1       -0.0098
     31 O         -27.2568   -0.9325   28.4957 O.co2   1  UNL1       -0.2434
     32 N         -24.4840    0.0839   29.1449 N.pl3   1  UNL1       -0.2922
     33 C         -25.4110    0.5034   28.4876 C.3     1  UNL1        0.1965
     34 C         -21.0409    2.2863   26.7692 C.2     1  UNL1       -0.0229
     35 C         -21.3085    1.5609   27.9227 C.2     1  UNL1       -0.0035
     36 C         -22.9801    0.2069   29.3965 C.2     1  UNL1        0.0619
     37 C         -23.5857    1.2976   27.2154 C.2     1  UNL1        0.0060
     38 O         -27.4958    1.0079   29.4154 O.co2   1  UNL1       -0.2434
     39 F         -23.6937    1.4379   24.7561 F       1  UNL1       -0.2321
     40 C         -23.1396    1.7672   25.9297 C.3     1  UNL1        0.1871
     41 C         -22.5997    1.0936   28.1486 C.2     1  UNL1        0.0123
@<TRIPOS>BOND
     1     1     2    1
     2     2     7    1
     3     3     2    2
     4     4     3    1
     5     4     5    2
     6     5     6    1
     7     6     7    2
     8     8     1    1
     9     8     9    1
    10     8    12    1
    11     9    10    1
    12    10    11    1
    13    12    11    1
    14    13    30    1
    15    14    13    1
    16    14    15    1
    17    15    18    2
    18    16    17    1
    19    16    15    1
    20    19    14    2
    21    20    21    2
    22    20    19    1
    23    21    26    1
    24    22    21    1
    25    23    22    1
    26    24    23    1
    27    24    25    1
    28    26    27    1
    29    26    13    1
    30    28    40    1
    31    28    34    1
    32    29    38   ar
    33    30    33    1
    34    31    29   ar
    35    32    36    1
    36    32     1    1
    37    33    29    1
    38    33    32    1
    39    34    35    2
    40    35    41    1
    41    37    30    2
    42    37    41    1
    43    40    39    1
    44    40    37    1
    45    41    36    2
