@<TRIPOS>MOLECULE
outputs/IAG933/test6/raw/output_5046_IAG933_linker_design_.xyz
 45 48 0 0 0
SMALL
GASTEIGER

@<TRIPOS>ATOM
      1 C         -24.8550   -1.0120   30.1430 C.3     1  UNL1        0.0589
      2 C         -24.9730   -2.5050   29.7880 C.2     1  UNL1       -0.0195
      3 C         -23.9060   -3.1730   29.1460 C.2     1  UNL1       -0.0042
      4 C         -23.9890   -4.5490   28.8530 C.2     1  UNL1       -0.0003
      5 C         -25.1370   -5.2800   29.2050 C.2     1  UNL1       -0.0000
      6 C         -26.2320   -4.6110   29.7840 C.2     1  UNL1       -0.0003
      7 C         -26.1550   -3.2320   30.0650 C.2     1  UNL1       -0.0042
      8 C         -25.3870   -0.6790   31.5710 C.3     1  UNL1        0.0785
      9 C         -25.1890    0.7730   32.0280 C.3     1  UNL1        0.0192
     10 C         -25.3360    0.6840   33.5440 C.3     1  UNL1        0.0202
     11 C         -24.8290   -0.7150   33.9050 C.3     1  UNL1        0.0887
     12 N         -24.7580   -1.4810   32.6460 N.3     1  UNL1       -0.2191
     13 C         -25.6880    1.6140   26.4610 C.2     1  UNL1        0.0353
     14 C         -26.2500    2.9200   26.3950 C.2     1  UNL1        0.0763
     15 C         -25.6420    4.0930   27.1230 C.2     1  UNL1        0.2664
     16 N         -25.6140    5.2520   26.4490 N.am    1  UNL1       -0.1997
     17 C         -25.0260    6.4790   26.9630 C.3     1  UNL1        0.1388
     18 O         -25.1430    3.9660   28.2430 O.2     1  UNL1       -0.2683
     19 C         -27.4380    3.0910   25.6450 C.2     1  UNL1        0.1067
     20 N         -28.0750    2.0890   25.0030 N.2     1  UNL1       -0.2081
     21 C         -27.5430    0.8490   25.0790 C.2     1  UNL1        0.2533
     22 O         -28.1930   -0.2080   24.4770 O.2     1  UNL1       -0.4558
     23 C         -29.4600    0.0050   23.8660 C.3     1  UNL1        0.2426
     24 C         -30.0650   -1.3770   23.5730 C.3     1  UNL1        0.2292
     25 O         -30.7290   -1.8780   24.7210 O.3     1  UNL1       -0.2162
     26 C         -26.3540    0.5760   25.7770 C.2     1  UNL1        0.1928
     27 F         -25.8600   -0.6810   25.7950 F       1  UNL1       -0.1992
     28 C         -22.7186    0.9058   28.7284 C.2     1  UNL1       -0.0194
     29 N         -26.3777    0.6654   29.0752 N.am    1  UNL1       -0.2046
     30 C         -25.0839   -0.0641   29.0054 C.3     1  UNL1        0.1087
     31 O         -28.2739   -0.5899   28.9916 O.2     1  UNL1       -0.2714
     32 C         -27.6334    0.3652   29.3202 C.2     1  UNL1        0.2630
     33 C         -22.0717    1.5953   27.5911 C.2     1  UNL1        0.0069
     34 C         -29.4073    7.0664   27.6906 C.3     1  UNL1        0.0726
     35 O         -29.8364    4.9138   26.9990 O.2     1  UNL1       -0.2957
     36 C         -28.2960    4.0036   29.7559 C.2     1  UNL1       -0.0210
     37 C         -24.3247    1.3756   27.1245 C.2     1  UNL1       -0.0037
     38 C         -29.2018    5.6141   27.8494 C.2     1  UNL1        0.1554
     39 C         -28.4633    2.6778   29.1211 C.2     1  UNL1       -0.0024
     40 C         -24.0621    0.7105   28.3659 C.3     1  UNL1        0.0655
     41 C         -23.0755    1.7645   26.6092 C.2     1  UNL1        0.0538
     42 N         -28.7899    1.2660   31.3222 N.3     1  UNL1       -0.1182
     43 C         -28.2827    1.4961   29.9307 C.3     1  UNL1        0.1909
     44 C         -28.1157    5.2189   28.8586 C.3     1  UNL1        0.0902
     45 CL        -22.8832    2.3037   24.9113 Cl      1  UNL1       -0.0826
@<TRIPOS>BOND
     1     1    30    1
     2     2     7    1
     3     2     1    1
     4     3     2    2
     5     4     3    1
     6     4     5    2
     7     5     6    1
     8     6     7    2
     9     8     1    1
    10     8     9    1
    11     8    12    1
    12     9    10    1
    13    10    11    1
    14    12    11    1
    15    13    37    1
    16    14    13    1
    17    14    15    1
    18    15    18    2
    19    16    17    1
    20    16    15    1
    21    19    14    2
    22    20    21    2
    23    20    19    1
    24    21    26    1
    25    22    21    1
    26    23    22    1
    27    24    23    1
    28    24    25    1
    29    26    27    1
    30    26    13    2
    31    29    32    1
    32    30    29    1
    33    31    32    2
    34    32    43    1
    35    33    28    2
    36    34    38    1
    37    35    38    2
    38    37    40    1
    39    38    44    1
    40    39    36    2
    41    39    43    1
    42    40    28    1
    43    40    30    1
    44    41    37    2
    45    41    33    1
    46    43    42    1
    47    44    36    1
    48    45    41    1
