@<TRIPOS>MOLECULE
outputs/IAG933/test6/raw/output_505_IAG933_linker_design_.xyz
 44 48 0 0 0
SMALL
GASTEIGER

@<TRIPOS>ATOM
      1 C         -24.8550   -1.0120   30.1430 C.3     1  UNL1        0.0558
      2 C         -24.9730   -2.5050   29.7880 C.2     1  UNL1       -0.0197
      3 C         -23.9060   -3.1730   29.1460 C.2     1  UNL1       -0.0042
      4 C         -23.9890   -4.5490   28.8530 C.2     1  UNL1       -0.0003
      5 C         -25.1370   -5.2800   29.2050 C.2     1  UNL1       -0.0000
      6 C         -26.2320   -4.6110   29.7840 C.2     1  UNL1       -0.0003
      7 C         -26.1550   -3.2320   30.0650 C.2     1  UNL1       -0.0042
      8 C         -25.3870   -0.6790   31.5710 C.3     1  UNL1        0.0782
      9 C         -25.1890    0.7730   32.0280 C.3     1  UNL1        0.0192
     10 C         -25.3360    0.6840   33.5440 C.3     1  UNL1        0.0202
     11 C         -24.8290   -0.7150   33.9050 C.3     1  UNL1        0.0887
     12 N         -24.7580   -1.4810   32.6460 N.3     1  UNL1       -0.2191
     13 C         -25.6880    1.6140   26.4610 C.2     1  UNL1        0.0303
     14 C         -26.2500    2.9200   26.3950 C.2     1  UNL1        0.0738
     15 C         -25.6420    4.0930   27.1230 C.2     1  UNL1        0.2662
     16 N         -25.6140    5.2520   26.4490 N.am    1  UNL1       -0.1997
     17 C         -25.0260    6.4790   26.9630 C.3     1  UNL1        0.1388
     18 O         -25.1430    3.9660   28.2430 O.2     1  UNL1       -0.2683
     19 C         -27.4380    3.0910   25.6450 C.2     1  UNL1        0.1065
     20 N         -28.0750    2.0890   25.0030 N.2     1  UNL1       -0.2081
     21 C         -27.5430    0.8490   25.0790 C.2     1  UNL1        0.2530
     22 O         -28.1930   -0.2080   24.4770 O.2     1  UNL1       -0.4558
     23 C         -29.4600    0.0050   23.8660 C.3     1  UNL1        0.2426
     24 C         -30.0650   -1.3770   23.5730 C.3     1  UNL1        0.2292
     25 O         -30.7290   -1.8780   24.7210 O.3     1  UNL1       -0.2162
     26 C         -26.3540    0.5760   25.7770 C.2     1  UNL1        0.1904
     27 F         -25.8600   -0.6810   25.7950 F       1  UNL1       -0.1995
     28 S         -29.7138   -1.1173   29.6704 S.O2    1  UNL1        0.0061
     29 N         -24.1916    1.2975   28.3957 N.3     1  UNL1       -0.2690
     30 C         -25.9403   -0.2269   29.3449 C.3     1  UNL1        0.0959
     31 C         -25.4711    0.7472   28.8419 C.3     1  UNL1        0.0903
     32 C         -23.2370    1.7539   26.1019 C.3     1  UNL1        0.0206
     33 C         -22.9102    0.6582   28.8711 C.3     1  UNL1        0.0724
     34 C         -31.2560   -0.7080   30.4665 C.3     1  UNL1        0.1552
     35 C         -24.3419    1.2345   26.9654 C.3     1  UNL1        0.0827
     36 O         -30.1225   -0.6889   28.0725 O.2     1  UNL1       -0.1716
     37 C         -21.9604    2.0081   26.8980 C.3     1  UNL1        0.0032
     38 C         -30.5820    0.0867   31.5762 C.3     1  UNL1        0.0615
     39 C         -28.5701   -0.2051   30.4411 C.3     1  UNL1        0.2321
     40 N         -27.4040   -0.4069   29.4433 N.3     1  UNL1       -0.1945
     41 O         -28.4493    1.9598   29.9000 O.3     1  UNL1       -0.2197
     42 C         -21.7552    0.9141   27.9279 C.3     1  UNL1        0.0174
     43 C         -29.3721    0.9234   30.7572 C.3     1  UNL1        0.1920
     44 O         -29.2425   -2.6661   29.5658 O.2     1  UNL1       -0.1716
@<TRIPOS>BOND
     1     1    30    1
     2     2     7    1
     3     2     1    1
     4     3     2    2
     5     4     3    1
     6     4     5    2
     7     5     6    1
     8     6     7    2
     9     8     1    1
    10     8     9    1
    11     8    12    1
    12     9    10    1
    13    10    11    1
    14    12    11    1
    15    14    13    1
    16    14    15    1
    17    15    18    2
    18    16    17    1
    19    16    15    1
    20    19    14    2
    21    20    21    2
    22    20    19    1
    23    21    26    1
    24    22    21    1
    25    23    22    1
    26    24    23    1
    27    24    25    1
    28    26    27    1
    29    26    13    2
    30    28    39    1
    31    28    34    1
    32    29    31    1
    33    29    33    1
    34    30    31    1
    35    30    40    1
    36    32    37    1
    37    32    35    1
    38    34    38    1
    39    35    13    1
    40    35    29    1
    41    36    28    2
    42    37    42    1
    43    39    40    1
    44    39    43    1
    45    42    33    1
    46    43    41    1
    47    43    38    1
    48    44    28    2
