@<TRIPOS>MOLECULE
outputs/IAG933/test6/raw/output_5051_IAG933_linker_design_.xyz
 45 49 0 0 0
SMALL
GASTEIGER

@<TRIPOS>ATOM
      1 C         -24.8550   -1.0120   30.1430 C.3     1  UNL1        0.0794
      2 C         -24.9730   -2.5050   29.7880 C.2     1  UNL1       -0.0155
      3 C         -23.9060   -3.1730   29.1460 C.2     1  UNL1       -0.0039
      4 C         -23.9890   -4.5490   28.8530 C.2     1  UNL1       -0.0003
      5 C         -25.1370   -5.2800   29.2050 C.2     1  UNL1       -0.0000
      6 C         -26.2320   -4.6110   29.7840 C.2     1  UNL1       -0.0003
      7 C         -26.1550   -3.2320   30.0650 C.2     1  UNL1       -0.0039
      8 C         -25.3870   -0.6790   31.5710 C.3     1  UNL1        0.0824
      9 C         -25.1890    0.7730   32.0280 C.3     1  UNL1        0.0196
     10 C         -25.3360    0.6840   33.5440 C.3     1  UNL1        0.0203
     11 C         -24.8290   -0.7150   33.9050 C.3     1  UNL1        0.0887
     12 N         -24.7580   -1.4810   32.6460 N.3     1  UNL1       -0.2187
     13 C         -25.6880    1.6140   26.4610 C.3     1  UNL1        0.1435
     14 C         -26.2500    2.9200   26.3950 C.2     1  UNL1        0.0730
     15 C         -25.6420    4.0930   27.1230 C.2     1  UNL1        0.2640
     16 N         -25.6140    5.2520   26.4490 N.am    1  UNL1       -0.1999
     17 C         -25.0260    6.4790   26.9630 C.3     1  UNL1        0.1388
     18 O         -25.1430    3.9660   28.2430 O.2     1  UNL1       -0.2686
     19 C         -27.4380    3.0910   25.6450 C.2     1  UNL1        0.1038
     20 N         -28.0750    2.0890   25.0030 N.2     1  UNL1       -0.2118
     21 C         -27.5430    0.8490   25.0790 C.2     1  UNL1        0.2358
     22 O         -28.1930   -0.2080   24.4770 O.2     1  UNL1       -0.4585
     23 C         -29.4600    0.0050   23.8660 C.3     1  UNL1        0.2423
     24 C         -30.0650   -1.3770   23.5730 C.3     1  UNL1        0.2292
     25 O         -30.7290   -1.8780   24.7210 O.3     1  UNL1       -0.2162
     26 C         -26.3540    0.5760   25.7770 C.3     1  UNL1        0.2580
     27 F         -25.8600   -0.6810   25.7950 F       1  UNL1       -0.2251
     28 C         -30.3884    0.0658   27.8167 C.3     1  UNL1        0.1870
     29 N         -23.0705    0.0412   29.2301 N.2     1  UNL1       -0.2234
     30 C         -29.2981   -0.0998   28.9164 C.3     1  UNL1        0.0631
     31 O         -31.3788   -0.1695   30.5804 O.3     1  UNL1       -0.3509
     32 C         -29.9638   -0.0794   30.3675 C.3     1  UNL1        0.1448
     33 C         -32.2163    0.3936   29.5454 C.3     1  UNL1        0.1775
     34 C         -22.6110    0.9259   28.2664 C.2     1  UNL1        0.2166
     35 C         -23.4836    1.4317   27.3505 C.3     1  UNL1        0.1422
     36 C         -28.1761    0.9358   28.8767 C.3     1  UNL1        0.0112
     37 C         -26.7977    0.4058   28.8278 C.3     1  UNL1        0.0425
     38 N         -24.7840    1.1668   27.5015 N.pl3   1  UNL1       -0.2993
     39 C         -25.3435    0.4752   28.5359 C.2     1  UNL1        0.0395
     40 C         -24.3961   -0.1550   29.3372 C.2     1  UNL1        0.0753
     41 O         -30.3875    1.4573   27.4916 O.3     1  UNL1       -0.2202
     42 C         -23.0645    2.2488   26.2466 C.3     1  UNL1        0.0306
     43 F         -21.2904    1.2977   28.1970 F       1  UNL1       -0.1864
     44 C         -31.8614   -0.3653   28.2228 C.3     1  UNL1        0.2115
     45 O         -31.8295   -1.7974   28.4817 O.3     1  UNL1       -0.2177
@<TRIPOS>BOND
     1     1    40    1
     2     2     7    1
     3     2     1    1
     4     3     2    2
     5     4     3    1
     6     4     5    2
     7     5     6    1
     8     6     7    2
     9     8     1    1
    10     8     9    1
    11     8    12    1
    12     9    10    1
    13    10    11    1
    14    12    11    1
    15    13    38    1
    16    14    13    1
    17    14    15    1
    18    15    18    2
    19    16    17    1
    20    16    15    1
    21    19    14    2
    22    20    21    2
    23    20    19    1
    24    21    26    1
    25    22    21    1
    26    23    22    1
    27    24    23    1
    28    24    25    1
    29    26    27    1
    30    26    13    1
    31    28    41    1
    32    28    44    1
    33    28    30    1
    34    29    40    1
    35    30    36    1
    36    30    32    1
    37    32    31    1
    38    33    31    1
    39    34    29    2
    40    35    42    1
    41    35    38    1
    42    35    34    1
    43    37    36    1
    44    38    39    1
    45    39    37    1
    46    39    40    2
    47    43    34    1
    48    44    45    1
    49    44    33    1
