@<TRIPOS>MOLECULE
outputs/IAG933/test6/raw/output_5056_IAG933_linker_design_.xyz
 47 50 0 0 0
SMALL
GASTEIGER

@<TRIPOS>ATOM
      1 C         -24.8550   -1.0120   30.1430 C.3     1  UNL1        0.0543
      2 C         -24.9730   -2.5050   29.7880 C.2     1  UNL1       -0.0198
      3 C         -23.9060   -3.1730   29.1460 C.2     1  UNL1       -0.0042
      4 C         -23.9890   -4.5490   28.8530 C.2     1  UNL1       -0.0003
      5 C         -25.1370   -5.2800   29.2050 C.2     1  UNL1       -0.0000
      6 C         -26.2320   -4.6110   29.7840 C.2     1  UNL1       -0.0003
      7 C         -26.1550   -3.2320   30.0650 C.2     1  UNL1       -0.0042
      8 C         -25.3870   -0.6790   31.5710 C.3     1  UNL1        0.0782
      9 C         -25.1890    0.7730   32.0280 C.3     1  UNL1        0.0192
     10 C         -25.3360    0.6840   33.5440 C.3     1  UNL1        0.0202
     11 C         -24.8290   -0.7150   33.9050 C.3     1  UNL1        0.0887
     12 N         -24.7580   -1.4810   32.6460 N.3     1  UNL1       -0.2191
     13 C         -25.6880    1.6140   26.4610 C.3     1  UNL1        0.0941
     14 C         -26.2500    2.9200   26.3950 C.2     1  UNL1        0.0566
     15 C         -25.6420    4.0930   27.1230 C.2     1  UNL1        0.2625
     16 N         -25.6140    5.2520   26.4490 N.am    1  UNL1       -0.2000
     17 C         -25.0260    6.4790   26.9630 C.3     1  UNL1        0.1388
     18 O         -25.1430    3.9660   28.2430 O.2     1  UNL1       -0.2687
     19 C         -27.4380    3.0910   25.6450 C.2     1  UNL1        0.1022
     20 N         -28.0750    2.0890   25.0030 N.2     1  UNL1       -0.2119
     21 C         -27.5430    0.8490   25.0790 C.2     1  UNL1        0.2341
     22 O         -28.1930   -0.2080   24.4770 O.2     1  UNL1       -0.4585
     23 C         -29.4600    0.0050   23.8660 C.3     1  UNL1        0.2423
     24 C         -30.0650   -1.3770   23.5730 C.3     1  UNL1        0.2292
     25 O         -30.7290   -1.8780   24.7210 O.3     1  UNL1       -0.2162
     26 C         -26.3540    0.5760   25.7770 C.3     1  UNL1        0.2418
     27 F         -25.8600   -0.6810   25.7950 F       1  UNL1       -0.2268
     28 C         -22.9792    0.2319   28.6147 C.1     1  UNL1        0.1675
     29 N         -25.7347    1.0539   28.6786 N.3     1  UNL1       -0.2117
     30 C         -31.6052   -1.3808   31.7914 C.3     1  UNL1        0.0935
     31 O         -22.4613   -0.3884   29.2899 O.2     1  UNL1       -0.2283
     32 C         -29.5368   -0.7953   29.0358 C.3     1  UNL1        0.2275
     33 C         -32.5086   -0.4632   32.6342 C.3     1  UNL1        0.0215
     34 N         -30.6375   -0.4187   30.8960 N.am    1  UNL1       -0.2775
     35 O         -29.9560   -0.7834   27.6524 O.3     1  UNL1       -0.2133
     36 C         -27.1652   -0.8845   29.0227 C.3     1  UNL1        0.0209
     37 C         -30.2119    1.0895   30.6233 C.3     1  UNL1        0.0936
     38 C         -28.3224    0.1526   29.2706 C.3     1  UNL1        0.0426
     39 O         -22.8047    1.5613   26.6803 O.2     1  UNL1       -0.4639
     40 O         -29.2971   -2.3226   30.8140 O.2     1  UNL1       -0.2721
     41 C         -33.2991   -1.0566   33.7528 C.3     1  UNL1        0.0018
     42 C         -21.4495    1.7496   27.1317 C.3     1  UNL1        0.2531
     43 C         -28.8207    0.9985   30.5632 C.3     1  UNL1        0.0246
     44 C         -29.9042   -1.3785   30.2221 C.2     1  UNL1        0.2561
     45 C         -23.5823    1.1575   27.6014 C.2     1  UNL1        0.2059
     46 C         -25.0782    1.1741   27.6400 C.3     1  UNL1        0.1471
     47 C         -25.7567   -0.2913   29.2111 C.3     1  UNL1        0.0787
@<TRIPOS>BOND
     1     1    47    1
     2     2     7    1
     3     2     1    1
     4     3     2    2
     5     4     3    1
     6     4     5    2
     7     5     6    1
     8     6     7    2
     9     8     1    1
    10     8     9    1
    11     8    12    1
    12     9    10    1
    13    10    11    1
    14    12    11    1
    15    13    46    1
    16    14    13    1
    17    14    15    1
    18    15    18    2
    19    16    17    1
    20    16    15    1
    21    19    14    2
    22    20    21    2
    23    20    19    1
    24    21    26    1
    25    22    21    1
    26    23    22    1
    27    24    23    1
    28    24    25    1
    29    26    27    1
    30    26    13    1
    31    28    31    2
    32    29    47    1
    33    30    33    1
    34    32    35    1
    35    32    38    1
    36    32    44    1
    37    33    41    1
    38    34    30    1
    39    37    34    1
    40    38    36    1
    41    38    43    1
    42    39    42    1
    43    39    45    1
    44    43    37    1
    45    44    40    2
    46    44    34   am
    47    45    28    2
    48    46    45    1
    49    46    29    1
    50    47    36    1
