@<TRIPOS>MOLECULE
outputs/IAG933/test6/raw/output_5059_IAG933_linker_design_.xyz
 40 43 0 0 0
SMALL
GASTEIGER

@<TRIPOS>ATOM
      1 C         -24.8550   -1.0120   30.1430 C.3     1  UNL1        0.0983
      2 C         -24.9730   -2.5050   29.7880 C.2     1  UNL1       -0.0064
      3 C         -23.9060   -3.1730   29.1460 C.2     1  UNL1       -0.0029
      4 C         -23.9890   -4.5490   28.8530 C.2     1  UNL1       -0.0003
      5 C         -25.1370   -5.2800   29.2050 C.2     1  UNL1       -0.0000
      6 C         -26.2320   -4.6110   29.7840 C.2     1  UNL1       -0.0003
      7 C         -26.1550   -3.2320   30.0650 C.2     1  UNL1       -0.0029
      8 C         -25.3870   -0.6790   31.5710 C.3     1  UNL1        0.0916
      9 C         -25.1890    0.7730   32.0280 C.3     1  UNL1        0.0206
     10 C         -25.3360    0.6840   33.5440 C.3     1  UNL1        0.0203
     11 C         -24.8290   -0.7150   33.9050 C.3     1  UNL1        0.0888
     12 N         -24.7580   -1.4810   32.6460 N.3     1  UNL1       -0.2178
     13 C         -25.6880    1.6140   26.4610 C.2     1  UNL1        0.0209
     14 C         -26.2500    2.9200   26.3950 C.2     1  UNL1        0.0729
     15 C         -25.6420    4.0930   27.1230 C.2     1  UNL1        0.2661
     16 N         -25.6140    5.2520   26.4490 N.am    1  UNL1       -0.1997
     17 C         -25.0260    6.4790   26.9630 C.3     1  UNL1        0.1388
     18 O         -25.1430    3.9660   28.2430 O.2     1  UNL1       -0.2683
     19 C         -27.4380    3.0910   25.6450 C.2     1  UNL1        0.1064
     20 N         -28.0750    2.0890   25.0030 N.2     1  UNL1       -0.2081
     21 C         -27.5430    0.8490   25.0790 C.2     1  UNL1        0.2530
     22 O         -28.1930   -0.2080   24.4770 O.2     1  UNL1       -0.4558
     23 C         -29.4600    0.0050   23.8660 C.3     1  UNL1        0.2426
     24 C         -30.0650   -1.3770   23.5730 C.3     1  UNL1        0.2292
     25 O         -30.7290   -1.8780   24.7210 O.3     1  UNL1       -0.2162
     26 C         -26.3540    0.5760   25.7770 C.2     1  UNL1        0.1895
     27 F         -25.8600   -0.6810   25.7950 F       1  UNL1       -0.1996
     28 F         -21.3280    1.8766   25.6702 F       1  UNL1       -0.1726
     29 C         -24.4433    1.2021   27.2955 C.3     1  UNL1        0.0663
     30 C         -26.8068   -0.4505   28.9630 C.3     1  UNL1        0.2592
     31 N         -25.5073   -0.1592   29.1742 N.3     1  UNL1       -0.2393
     32 C         -22.6566    1.8951   25.8373 C.2     1  UNL1        0.2726
     33 F         -23.2619    2.1084   24.7239 F       1  UNL1       -0.1726
     34 N         -20.8492    1.6716   28.2465 N.3     1  UNL1       -0.1255
     35 O         -23.0997    2.3290   30.1622 O.3     1  UNL1       -0.2198
     36 C         -22.3002    1.1229   28.2258 C.3     1  UNL1        0.1464
     37 O         -27.8714   -0.8386   28.9485 O.3     1  UNL1       -0.2005
     38 C         -23.3026    1.1212   29.3913 C.3     1  UNL1        0.1885
     39 C         -23.0969    1.5337   27.0658 C.2     1  UNL1        0.0365
     40 C         -24.7170    1.0234   28.7227 C.3     1  UNL1        0.1002
@<TRIPOS>BOND
     1     1    31    1
     2     2     7    1
     3     2     1    1
     4     3     2    2
     5     4     3    1
     6     4     5    2
     7     5     6    1
     8     6     7    2
     9     8     1    1
    10     8     9    1
    11     8    12    1
    12     9    10    1
    13    10    11    1
    14    12    11    1
    15    14    13    1
    16    14    15    1
    17    15    18    2
    18    16    17    1
    19    16    15    1
    20    19    14    2
    21    20    21    2
    22    20    19    1
    23    21    26    1
    24    22    21    1
    25    23    22    1
    26    24    23    1
    27    24    25    1
    28    26    27    1
    29    26    13    2
    30    28    32    1
    31    29    13    1
    32    29    40    1
    33    30    31    1
    34    32    39    2
    35    33    32    1
    36    36    34    1
    37    36    38    1
    38    37    30    1
    39    38    35    1
    40    39    29    1
    41    39    36    1
    42    40    31    1
    43    40    38    1
