@<TRIPOS>MOLECULE
No_506-gen_results/8p0m/2024-11-27-11-27-31/
 15 16 0 0 0
SMALL
GASTEIGER

@<TRIPOS>ATOM
      1 C         -28.0162   -0.8135   28.8779 C.ar    1  UNL1        0.0013
      2 C         -27.0636   -0.1189   28.6079 C.ar    1  UNL1        0.0001
      3 C         -26.9716    0.7139   27.5060 C.ar    1  UNL1        0.0012
      4 C         -28.1053    0.7744   26.6421 C.ar    1  UNL1        0.0145
      5 C         -29.2041    0.1179   27.0477 C.ar    1  UNL1        0.0479
      6 C         -29.2127   -0.6088   28.1281 C.ar    1  UNL1        0.0145
      7 N         -30.3053    0.2258   26.1930 N.pl3   1  UNL1       -0.3041
      8 C         -30.2058    0.0159   24.9027 C.3     1  UNL1        0.1122
      9 C         -31.6277    0.3727   26.7076 C.3     1  UNL1        0.1122
     10 C         -25.6546    1.3863   27.1071 C.ar    1  UNL1        0.0000
     11 C         -25.4024    2.1391   26.1907 C.ar    1  UNL1        0.0000
     12 C         -24.2595    2.8383   26.1827 C.ar    1  UNL1        0.0000
     13 C         -23.1247    2.5267   26.9667 C.ar    1  UNL1        0.0000
     14 C         -23.3344    1.5026   27.9228 C.ar    1  UNL1        0.0000
     15 C         -24.6131    0.9522   28.0548 C.ar    1  UNL1        0.0000
@<TRIPOS>BOND
     1     5     7    1
     2     7     8    1
     3     7     9    1
     4     3    10    1
     5     1     2   ar
     6     2     3   ar
     7     3     4   ar
     8     4     5   ar
     9     5     6   ar
    10     6     1   ar
    11    10    11   ar
    12    11    12   ar
    13    12    13   ar
    14    13    14   ar
    15    14    15   ar
    16    15    10   ar
