@<TRIPOS>MOLECULE
outputs/IAG933/test6/raw/output_5062_IAG933_linker_design_.xyz
 37 39 0 0 0
SMALL
GASTEIGER

@<TRIPOS>ATOM
      1 C         -24.8550   -1.0120   30.1430 C.3     1  UNL1        0.1334
      2 C         -24.9730   -2.5050   29.7880 C.2     1  UNL1       -0.0012
      3 C         -23.9060   -3.1730   29.1460 C.2     1  UNL1       -0.0026
      4 C         -23.9890   -4.5490   28.8530 C.2     1  UNL1       -0.0003
      5 C         -25.1370   -5.2800   29.2050 C.2     1  UNL1       -0.0000
      6 C         -26.2320   -4.6110   29.7840 C.2     1  UNL1       -0.0003
      7 C         -26.1550   -3.2320   30.0650 C.2     1  UNL1       -0.0026
      8 C         -25.3870   -0.6790   31.5710 C.3     1  UNL1        0.0969
      9 C         -25.1890    0.7730   32.0280 C.3     1  UNL1        0.0210
     10 C         -25.3360    0.6840   33.5440 C.3     1  UNL1        0.0203
     11 C         -24.8290   -0.7150   33.9050 C.3     1  UNL1        0.0888
     12 N         -24.7580   -1.4810   32.6460 N.3     1  UNL1       -0.2174
     13 C         -25.6880    1.6140   26.4610 C.2     1  UNL1        0.0619
     14 C         -26.2500    2.9200   26.3950 C.2     1  UNL1        0.0804
     15 C         -25.6420    4.0930   27.1230 C.2     1  UNL1        0.2667
     16 N         -25.6140    5.2520   26.4490 N.am    1  UNL1       -0.1997
     17 C         -25.0260    6.4790   26.9630 C.3     1  UNL1        0.1388
     18 O         -25.1430    3.9660   28.2430 O.2     1  UNL1       -0.2683
     19 C         -27.4380    3.0910   25.6450 C.2     1  UNL1        0.1067
     20 N         -28.0750    2.0890   25.0030 N.2     1  UNL1       -0.2112
     21 C         -27.5430    0.8490   25.0790 C.2     1  UNL1        0.2389
     22 O         -28.1930   -0.2080   24.4770 O.2     1  UNL1       -0.4583
     23 C         -29.4600    0.0050   23.8660 C.3     1  UNL1        0.2423
     24 C         -30.0650   -1.3770   23.5730 C.3     1  UNL1        0.2292
     25 O         -30.7290   -1.8780   24.7210 O.3     1  UNL1       -0.2162
     26 C         -26.3540    0.5760   25.7770 C.3     1  UNL1        0.2654
     27 F         -25.8600   -0.6810   25.7950 F       1  UNL1       -0.2217
     28 N         -24.3761   -0.2162   29.3060 N.am    1  UNL1       -0.2006
     29 C         -22.5804    0.8555   28.2249 C.3     1  UNL1        0.1641
     30 C         -24.5008    1.4182   27.0340 C.1     1  UNL1       -0.0701
     31 C         -23.2215    1.3902   27.3307 C.2     1  UNL1        0.1628
     32 C         -23.3127    2.1056   24.9131 C.3     1  UNL1        0.2529
     33 O         -23.3396    2.2508   26.4438 O.2     1  UNL1       -0.4676
     34 C         -21.1235    0.9689   28.2383 C.2     1  UNL1       -0.0091
     35 C         -20.1955    0.0415   28.6216 C.2     1  UNL1       -0.0040
     36 C         -23.1752    0.3021   29.3703 C.2     1  UNL1        0.2532
     37 O         -22.5705    0.2868   30.4222 O.2     1  UNL1       -0.2725
@<TRIPOS>BOND
     1     1    28    1
     2     2     7    1
     3     2     1    1
     4     3     2    2
     5     4     3    1
     6     4     5    2
     7     5     6    1
     8     6     7    2
     9     8     1    1
    10     8     9    1
    11     8    12    1
    12     9    10    1
    13    10    11    1
    14    12    11    1
    15    13    30    2
    16    14    13    1
    17    14    15    1
    18    15    18    2
    19    16    17    1
    20    16    15    1
    21    19    14    2
    22    20    21    2
    23    20    19    1
    24    21    26    1
    25    22    21    1
    26    23    22    1
    27    24    23    1
    28    24    25    1
    29    26    27    1
    30    26    13    1
    31    28    36    1
    32    29    34    1
    33    29    36    1
    34    30    31    2
    35    31    29    1
    36    32    33    1
    37    33    31    1
    38    34    35    2
    39    36    37    2
