@<TRIPOS>MOLECULE
outputs/IAG933/test6/raw/output_5069_IAG933_linker_design_.xyz
 40 43 0 0 0
SMALL
GASTEIGER

@<TRIPOS>ATOM
      1 C         -24.8550   -1.0120   30.1430 C.3     1  UNL1        0.0997
      2 C         -24.9730   -2.5050   29.7880 C.2     1  UNL1       -0.0139
      3 C         -23.9060   -3.1730   29.1460 C.2     1  UNL1       -0.0038
      4 C         -23.9890   -4.5490   28.8530 C.2     1  UNL1       -0.0003
      5 C         -25.1370   -5.2800   29.2050 C.2     1  UNL1       -0.0000
      6 C         -26.2320   -4.6110   29.7840 C.2     1  UNL1       -0.0003
      7 C         -26.1550   -3.2320   30.0650 C.2     1  UNL1       -0.0038
      8 C         -25.3870   -0.6790   31.5710 C.3     1  UNL1        0.0841
      9 C         -25.1890    0.7730   32.0280 C.3     1  UNL1        0.0196
     10 C         -25.3360    0.6840   33.5440 C.3     1  UNL1        0.0203
     11 C         -24.8290   -0.7150   33.9050 C.3     1  UNL1        0.0887
     12 N         -24.7580   -1.4810   32.6460 N.3     1  UNL1       -0.2187
     13 C         -25.6880    1.6140   26.4610 C.3     1  UNL1        0.0905
     14 C         -26.2500    2.9200   26.3950 C.2     1  UNL1        0.0586
     15 C         -25.6420    4.0930   27.1230 C.2     1  UNL1        0.2627
     16 N         -25.6140    5.2520   26.4490 N.am    1  UNL1       -0.2000
     17 C         -25.0260    6.4790   26.9630 C.3     1  UNL1        0.1388
     18 O         -25.1430    3.9660   28.2430 O.2     1  UNL1       -0.2686
     19 C         -27.4380    3.0910   25.6450 C.2     1  UNL1        0.1025
     20 N         -28.0750    2.0890   25.0030 N.2     1  UNL1       -0.2118
     21 C         -27.5430    0.8490   25.0790 C.2     1  UNL1        0.2344
     22 O         -28.1930   -0.2080   24.4770 O.2     1  UNL1       -0.4585
     23 C         -29.4600    0.0050   23.8660 C.3     1  UNL1        0.2423
     24 C         -30.0650   -1.3770   23.5730 C.3     1  UNL1        0.2292
     25 O         -30.7290   -1.8780   24.7210 O.3     1  UNL1       -0.2162
     26 C         -26.3540    0.5760   25.7770 C.3     1  UNL1        0.2437
     27 F         -25.8600   -0.6810   25.7950 F       1  UNL1       -0.2265
     28 C         -21.8824    1.3542   27.6859 C.3     1  UNL1        0.1766
     29 C         -23.4256    2.3092   26.2423 C.3     1  UNL1        0.1733
     30 C         -24.1949    0.7624   28.0458 C.2     1  UNL1        0.0188
     31 O         -26.3996   -0.2843   28.5350 O.2     1  UNL1       -0.2913
     32 C         -24.4102    1.5359   26.8826 C.2     1  UNL1       -0.0079
     33 C         -25.2513   -0.1732   28.8794 C.2     1  UNL1        0.1741
     34 O         -23.8591    3.3709   25.4999 O.3     1  UNL1       -0.2185
     35 N         -21.9459   -0.4572   30.1691 N.am    1  UNL1       -0.0874
     36 C         -22.5832    0.6119   29.8714 C.2     1  UNL1        0.2671
     37 C         -22.1032    2.0959   26.5389 C.3     1  UNL1        0.0732
     38 F         -20.5865    1.0919   28.0313 F       1  UNL1       -0.2363
     39 C         -22.9161    0.8888   28.5124 C.3     1  UNL1        0.1368
     40 O         -22.9219    1.3629   30.7558 O.2     1  UNL1       -0.2712
@<TRIPOS>BOND
     1     1    33    1
     2     2     7    1
     3     2     1    1
     4     3     2    2
     5     4     3    1
     6     4     5    2
     7     5     6    1
     8     6     7    2
     9     8     1    1
    10     8     9    1
    11     8    12    1
    12     9    10    1
    13    10    11    1
    14    12    11    1
    15    13    32    1
    16    14    13    1
    17    14    15    1
    18    15    18    2
    19    16    17    1
    20    16    15    1
    21    19    14    2
    22    20    21    2
    23    20    19    1
    24    21    26    1
    25    22    21    1
    26    23    22    1
    27    24    23    1
    28    24    25    1
    29    26    27    1
    30    26    13    1
    31    28    38    1
    32    28    39    1
    33    29    34    1
    34    29    37    1
    35    29    32    1
    36    30    39    1
    37    30    33    1
    38    31    33    2
    39    32    30    2
    40    36    35    1
    41    36    40    2
    42    37    28    1
    43    39    36    1
