@<TRIPOS>MOLECULE
No_507-gen_results/8p0m/2024-11-27-11-27-31/
 14 14 0 0 0
SMALL
GASTEIGER

@<TRIPOS>ATOM
      1 C         -28.0162   -0.8135   28.8779 C.ar    1  UNL1        0.0056
      2 C         -27.0636   -0.1189   28.6079 C.ar    1  UNL1        0.0002
      3 C         -25.7923   -0.4302   29.0761 C.ar    1  UNL1        0.0000
      4 C         -25.5681   -1.2411   29.7572 C.ar    1  UNL1        0.0002
      5 C         -26.6114   -2.1840   30.2439 C.ar    1  UNL1        0.0056
      6 C         -27.8191   -1.9189   29.8034 C.ar    1  UNL1        0.0678
      7 C         -28.9162   -2.8082   30.2727 C.2     1  UNL1        0.3334
      8 O         -28.7398   -4.0163   30.2622 O.2     1  UNL1       -0.2541
      9 F         -29.7667   -2.3585   31.0345 F       1  UNL1       -0.1586
     10 C         -27.2229    1.0886   27.6549 C.2     1  UNL1       -0.0000
     11 C         -26.8875    2.0415   27.5355 C.2     1  UNL1       -0.0003
     12 C         -26.5974    3.0117   27.0775 C.2     1  UNL1       -0.0046
     13 C         -27.0105    3.6994   26.2404 C.2     1  UNL1       -0.0258
     14 C         -28.0638    3.0104   25.4440 C.3     1  UNL1        0.0307
@<TRIPOS>BOND
     1     6     7    1
     2     7     8    2
     3     7     9    1
     4     2    10    1
     5    10    11    2
     6    11    12    1
     7    12    13    2
     8    13    14    1
     9     1     2   ar
    10     2     3   ar
    11     3     4   ar
    12     4     5   ar
    13     5     6   ar
    14     6     1   ar
