@<TRIPOS>MOLECULE
outputs/IAG933/test6/raw/output_5070_IAG933_linker_design_.xyz
 46 51 0 0 0
SMALL
GASTEIGER

@<TRIPOS>ATOM
      1 C         -24.8550   -1.0120   30.1430 C.3     1  UNL1        0.0959
      2 C         -24.9730   -2.5050   29.7880 C.2     1  UNL1       -0.0142
      3 C         -23.9060   -3.1730   29.1460 C.2     1  UNL1       -0.0038
      4 C         -23.9890   -4.5490   28.8530 C.2     1  UNL1       -0.0003
      5 C         -25.1370   -5.2800   29.2050 C.2     1  UNL1       -0.0000
      6 C         -26.2320   -4.6110   29.7840 C.2     1  UNL1       -0.0003
      7 C         -26.1550   -3.2320   30.0650 C.2     1  UNL1       -0.0038
      8 C         -25.3870   -0.6790   31.5710 C.3     1  UNL1        0.0838
      9 C         -25.1890    0.7730   32.0280 C.3     1  UNL1        0.0196
     10 C         -25.3360    0.6840   33.5440 C.3     1  UNL1        0.0203
     11 C         -24.8290   -0.7150   33.9050 C.3     1  UNL1        0.0887
     12 N         -24.7580   -1.4810   32.6460 N.3     1  UNL1       -0.2187
     13 C         -25.6880    1.6140   26.4610 C.2     1  UNL1        0.0189
     14 C         -26.2500    2.9200   26.3950 C.2     1  UNL1        0.0705
     15 C         -25.6420    4.0930   27.1230 C.2     1  UNL1        0.2218
     16 N         -25.6140    5.2520   26.4490 N.2     1  UNL1       -0.2357
     17 C         -25.0260    6.4790   26.9630 C.3     1  UNL1        0.1550
     18 O         -25.1430    3.9660   28.2430 O.2     1  UNL1       -0.4591
     19 C         -27.4380    3.0910   25.6450 C.2     1  UNL1        0.1065
     20 N         -28.0750    2.0890   25.0030 N.2     1  UNL1       -0.2081
     21 C         -27.5430    0.8490   25.0790 C.2     1  UNL1        0.2530
     22 O         -28.1930   -0.2080   24.4770 O.2     1  UNL1       -0.4558
     23 C         -29.4600    0.0050   23.8660 C.3     1  UNL1        0.2426
     24 C         -30.0650   -1.3770   23.5730 C.3     1  UNL1        0.2292
     25 O         -30.7290   -1.8780   24.7210 O.3     1  UNL1       -0.2162
     26 C         -26.3540    0.5760   25.7770 C.2     1  UNL1        0.1892
     27 F         -25.8600   -0.6810   25.7950 F       1  UNL1       -0.1996
     28 C         -27.9170    5.9662   29.6008 C.2     1  UNL1        0.0383
     29 O         -25.4552    5.9348   30.0348 O.2     1  UNL1       -0.4045
     30 C         -25.4380    0.1027   29.2446 C.2     1  UNL1        0.1591
     31 C         -25.6594    2.7809   29.1242 C.3     1  UNL1        0.1995
     32 C         -26.7008    3.8808   29.8351 C.2     1  UNL1        0.0532
     33 C         -29.0933    3.9274   30.2069 C.2     1  UNL1       -0.0000
     34 C         -22.3672    1.4291   28.0229 C.3     1  UNL1        0.1941
     35 C         -24.8272    7.5747   31.8651 C.1     1  UNL1        0.0316
     36 C         -25.1715    6.8050   30.9059 C.1     1  UNL1        0.1312
     37 C         -23.3839    1.7148   29.3733 C.3     1  UNL1        0.0494
     38 C         -26.6455    5.3455   29.7640 C.2     1  UNL1        0.1571
     39 F         -22.7859    1.8803   25.7202 F       1  UNL1       -0.2340
     40 C         -23.0801    1.6157   26.8485 C.3     1  UNL1        0.1978
     41 C         -24.6783    1.2993   27.2867 C.3     1  UNL1        0.0706
     42 C         -27.8470    3.2752   30.3643 C.2     1  UNL1        0.0023
     43 F         -20.9988    2.1202   27.7555 F       1  UNL1       -0.2343
     44 C         -29.1299    5.2648   29.7590 C.2     1  UNL1        0.0031
     45 O         -26.5098   -0.1555   28.7530 O.2     1  UNL1       -0.2956
     46 C         -24.8458    1.5054   28.8154 C.3     1  UNL1        0.1018
@<TRIPOS>BOND
     1     1    30    1
     2     2     7    1
     3     2     1    1
     4     3     2    2
     5     4     3    1
     6     4     5    2
     7     5     6    1
     8     6     7    2
     9     8     1    1
    10     8     9    1
    11     8    12    1
    12     9    10    1
    13    10    11    1
    14    12    11    1
    15    14    13    1
    16    14    15    1
    17    15    18    1
    18    16    17    1
    19    16    15    2
    20    18    31    1
    21    19    14    2
    22    20    21    2
    23    20    19    1
    24    21    26    1
    25    22    21    1
    26    23    22    1
    27    24    23    1
    28    24    25    1
    29    26    27    1
    30    26    13    2
    31    28    44    2
    32    28    38    1
    33    29    36    1
    34    31    32    1
    35    32    42    1
    36    33    42    2
    37    34    43    1
    38    34    37    1
    39    36    35    3
    40    38    32    2
    41    38    29    1
    42    40    39    1
    43    40    41    1
    44    40    34    1
    45    41    13    1
    46    41    46    1
    47    44    33    1
    48    45    30    2
    49    46    31    1
    50    46    30    1
    51    46    37    1
