@<TRIPOS>MOLECULE
outputs/IAG933/test6/raw/output_5071_IAG933_linker_design_.xyz
 44 49 0 0 0
SMALL
GASTEIGER

@<TRIPOS>ATOM
      1 C         -24.8550   -1.0120   30.1430 C.3     1  UNL1        0.0697
      2 C         -24.9730   -2.5050   29.7880 C.2     1  UNL1       -0.0184
      3 C         -23.9060   -3.1730   29.1460 C.2     1  UNL1       -0.0041
      4 C         -23.9890   -4.5490   28.8530 C.2     1  UNL1       -0.0003
      5 C         -25.1370   -5.2800   29.2050 C.2     1  UNL1       -0.0000
      6 C         -26.2320   -4.6110   29.7840 C.2     1  UNL1       -0.0003
      7 C         -26.1550   -3.2320   30.0650 C.2     1  UNL1       -0.0041
      8 C         -25.3870   -0.6790   31.5710 C.3     1  UNL1        0.0795
      9 C         -25.1890    0.7730   32.0280 C.3     1  UNL1        0.0193
     10 C         -25.3360    0.6840   33.5440 C.3     1  UNL1        0.0202
     11 C         -24.8290   -0.7150   33.9050 C.3     1  UNL1        0.0887
     12 N         -24.7580   -1.4810   32.6460 N.3     1  UNL1       -0.2190
     13 C         -25.6880    1.6140   26.4610 C.2     1  UNL1        0.0438
     14 C         -26.2500    2.9200   26.3950 C.2     1  UNL1        0.0770
     15 C         -25.6420    4.0930   27.1230 C.2     1  UNL1        0.2664
     16 N         -25.6140    5.2520   26.4490 N.am    1  UNL1       -0.1997
     17 C         -25.0260    6.4790   26.9630 C.3     1  UNL1        0.1388
     18 O         -25.1430    3.9660   28.2430 O.2     1  UNL1       -0.2683
     19 C         -27.4380    3.0910   25.6450 C.2     1  UNL1        0.1067
     20 N         -28.0750    2.0890   25.0030 N.2     1  UNL1       -0.2081
     21 C         -27.5430    0.8490   25.0790 C.2     1  UNL1        0.2533
     22 O         -28.1930   -0.2080   24.4770 O.2     1  UNL1       -0.4558
     23 C         -29.4600    0.0050   23.8660 C.3     1  UNL1        0.2426
     24 C         -30.0650   -1.3770   23.5730 C.3     1  UNL1        0.2292
     25 O         -30.7290   -1.8780   24.7210 O.3     1  UNL1       -0.2162
     26 C         -26.3540    0.5760   25.7770 C.2     1  UNL1        0.1935
     27 F         -25.8600   -0.6810   25.7950 F       1  UNL1       -0.1992
     28 O         -31.9861   -2.6130   27.6130 O.3     1  UNL1       -0.2204
     29 C         -27.6703    0.7146   29.3433 C.3     1  UNL1        0.1157
     30 C         -25.2670   -0.0696   28.8673 C.3     1  UNL1        0.1431
     31 C         -24.0928    0.6337   28.1090 C.2     1  UNL1        0.0115
     32 C         -29.6720    1.4883   28.6226 C.3     1  UNL1        0.0051
     33 C         -28.3552    2.0087   28.9643 C.3     1  UNL1        0.0296
     34 C         -32.6413   -2.6133   28.8911 C.3     1  UNL1        0.1847
     35 C         -28.3155   -0.4658   28.5946 C.3     1  UNL1        0.0321
     36 O         -26.2660    0.8850   29.2414 O.3     1  UNL1       -0.3539
     37 C         -29.8091    0.0251   28.7188 C.3     1  UNL1        0.0330
     38 S         -22.7910    1.9326   26.3774 S.3     1  UNL1       -0.0866
     39 C         -24.3265    1.3339   26.9905 C.2     1  UNL1        0.0303
     40 C         -30.7748   -1.0445   28.6963 C.3     1  UNL1        0.1546
     41 C         -21.8964    1.4100   27.7347 C.2     1  UNL1        0.0352
     42 C         -22.7962    0.7545   28.6458 C.2     1  UNL1        0.0055
     43 O         -31.0686   -1.5360   27.4954 O.3     1  UNL1       -0.2230
     44 C         -31.6685   -1.8130   29.7115 C.3     1  UNL1        0.0684
@<TRIPOS>BOND
     1     1    30    1
     2     2     7    1
     3     2     1    1
     4     3     2    2
     5     4     3    1
     6     4     5    2
     7     5     6    1
     8     6     7    2
     9     8     1    1
    10     8     9    1
    11     8    12    1
    12     9    10    1
    13    10    11    1
    14    12    11    1
    15    13    39    1
    16    14    13    1
    17    14    15    1
    18    15    18    2
    19    16    17    1
    20    16    15    1
    21    19    14    2
    22    20    21    2
    23    20    19    1
    24    21    26    1
    25    22    21    1
    26    23    22    1
    27    24    23    1
    28    24    25    1
    29    26    27    1
    30    26    13    2
    31    28    34    1
    32    29    36    1
    33    30    36    1
    34    31    42    1
    35    31    30    1
    36    32    37    1
    37    32    33    1
    38    33    29    1
    39    34    44    1
    40    35    29    1
    41    37    35    1
    42    38    39    1
    43    38    41    1
    44    39    31    2
    45    40    37    1
    46    40    44    1
    47    41    42    2
    48    43    28    1
    49    43    40    1
