@<TRIPOS>MOLECULE
outputs/IAG933/test6/raw/output_5077_IAG933_linker_design_.xyz
 46 50 0 0 0
SMALL
GASTEIGER

@<TRIPOS>ATOM
      1 C         -24.8550   -1.0120   30.1430 C.3     1  UNL1        0.1402
      2 C         -24.9730   -2.5050   29.7880 C.2     1  UNL1       -0.0027
      3 C         -23.9060   -3.1730   29.1460 C.2     1  UNL1       -0.0028
      4 C         -23.9890   -4.5490   28.8530 C.2     1  UNL1       -0.0003
      5 C         -25.1370   -5.2800   29.2050 C.2     1  UNL1       -0.0000
      6 C         -26.2320   -4.6110   29.7840 C.2     1  UNL1       -0.0003
      7 C         -26.1550   -3.2320   30.0650 C.2     1  UNL1       -0.0028
      8 C         -25.3870   -0.6790   31.5710 C.3     1  UNL1        0.0954
      9 C         -25.1890    0.7730   32.0280 C.3     1  UNL1        0.0207
     10 C         -25.3360    0.6840   33.5440 C.3     1  UNL1        0.0203
     11 C         -24.8290   -0.7150   33.9050 C.3     1  UNL1        0.0888
     12 N         -24.7580   -1.4810   32.6460 N.3     1  UNL1       -0.2176
     13 C         -25.6880    1.6140   26.4610 C.2     1  UNL1        0.0452
     14 C         -26.2500    2.9200   26.3950 C.2     1  UNL1        0.0727
     15 C         -25.6420    4.0930   27.1230 C.2     1  UNL1        0.2221
     16 N         -25.6140    5.2520   26.4490 N.2     1  UNL1       -0.2357
     17 C         -25.0260    6.4790   26.9630 C.3     1  UNL1        0.1550
     18 O         -25.1430    3.9660   28.2430 O.2     1  UNL1       -0.4518
     19 C         -27.4380    3.0910   25.6450 C.2     1  UNL1        0.1066
     20 N         -28.0750    2.0890   25.0030 N.2     1  UNL1       -0.2081
     21 C         -27.5430    0.8490   25.0790 C.2     1  UNL1        0.2530
     22 O         -28.1930   -0.2080   24.4770 O.2     1  UNL1       -0.4558
     23 C         -29.4600    0.0050   23.8660 C.3     1  UNL1        0.2426
     24 C         -30.0650   -1.3770   23.5730 C.3     1  UNL1        0.2292
     25 O         -30.7290   -1.8780   24.7210 O.3     1  UNL1       -0.2162
     26 C         -26.3540    0.5760   25.7770 C.2     1  UNL1        0.1915
     27 F         -25.8600   -0.6810   25.7950 F       1  UNL1       -0.1995
     28 N         -22.9161    0.3189   29.6839 N.3     1  UNL1       -0.1214
     29 C         -28.8540    3.7895   31.1222 C.2     1  UNL1        0.0622
     30 C         -22.9350    1.4038   29.6333 C.3     1  UNL1        0.1217
     31 C         -28.7700    5.0477   31.8977 C.3     1  UNL1        0.0522
     32 N         -24.0055   -0.1796   29.2022 N.3     1  UNL1       -0.0876
     33 C         -27.6855    3.2013   30.5852 C.2     1  UNL1        0.0520
     34 O         -26.1208    5.0471   30.8899 O.2     1  UNL1       -0.2873
     35 C         -27.8882    1.8807   30.1647 C.2     1  UNL1        0.0057
     36 O         -21.1281    1.5374   27.7799 O.2     1  UNL1       -0.2787
     37 O         -24.7520    0.0593   27.9845 O.3     1  UNL1       -0.2641
     38 C         -25.3965    3.4188   29.5199 C.3     1  UNL1        0.2753
     39 C         -22.2481    1.8130   27.2913 C.2     1  UNL1        0.2344
     40 C         -29.1872    1.3711   30.0152 C.2     1  UNL1        0.0207
     41 C         -24.5798    1.2853   27.3932 C.3     1  UNL1        0.1735
     42 N         -30.1114    3.3467   30.8699 N.2     1  UNL1       -0.2480
     43 C         -26.4261    3.9797   30.3524 C.2     1  UNL1        0.2181
     44 C         -23.4281    2.0460   28.1381 C.3     1  UNL1        0.1258
     45 CL        -22.4504    2.1816   25.7293 Cl      1  UNL1       -0.0427
     46 C         -30.3043    2.1176   30.3632 C.2     1  UNL1        0.0984
@<TRIPOS>BOND
     1     1     2    1
     2     2     7    1
     3     3     2    2
     4     4     3    1
     5     4     5    2
     6     5     6    1
     7     6     7    2
     8     8     1    1
     9     8     9    1
    10     8    12    1
    11     9    10    1
    12    10    11    1
    13    12    11    1
    14    14    13    1
    15    14    15    1
    16    15    18    1
    17    16    17    1
    18    16    15    2
    19    18    38    1
    20    19    14    2
    21    20    21    2
    22    20    19    1
    23    21    26    1
    24    22    21    1
    25    23    22    1
    26    24    23    1
    27    24    25    1
    28    26    27    1
    29    26    13    2
    30    29    31    1
    31    30    28    1
    32    32    28    1
    33    32     1    1
    34    33    29    2
    35    35    33    1
    36    37    32    1
    37    38    43    1
    38    39    36    2
    39    40    35    2
    40    40    46    1
    41    41    13    1
    42    41    37    1
    43    41    44    1
    44    42    29    1
    45    43    33    1
    46    43    34    2
    47    44    39    1
    48    44    30    1
    49    45    39    1
    50    46    42    2
