@<TRIPOS>MOLECULE
outputs/IAG933/test6/raw/output_5078_IAG933_linker_design_.xyz
 44 47 0 0 0
SMALL
GASTEIGER

@<TRIPOS>ATOM
      1 C         -24.8550   -1.0120   30.1430 C.3     1  UNL1        0.2189
      2 C         -24.9730   -2.5050   29.7880 C.2     1  UNL1        0.0230
      3 C         -23.9060   -3.1730   29.1460 C.2     1  UNL1       -0.0003
      4 C         -23.9890   -4.5490   28.8530 C.2     1  UNL1       -0.0002
      5 C         -25.1370   -5.2800   29.2050 C.2     1  UNL1       -0.0000
      6 C         -26.2320   -4.6110   29.7840 C.2     1  UNL1       -0.0002
      7 C         -26.1550   -3.2320   30.0650 C.2     1  UNL1       -0.0003
      8 C         -25.3870   -0.6790   31.5710 C.3     1  UNL1        0.1215
      9 C         -25.1890    0.7730   32.0280 C.3     1  UNL1        0.0234
     10 C         -25.3360    0.6840   33.5440 C.3     1  UNL1        0.0204
     11 C         -24.8290   -0.7150   33.9050 C.3     1  UNL1        0.0889
     12 N         -24.7580   -1.4810   32.6460 N.3     1  UNL1       -0.2150
     13 C         -25.6880    1.6140   26.4610 C.2     1  UNL1        0.0510
     14 C         -26.2500    2.9200   26.3950 C.2     1  UNL1        0.0773
     15 C         -25.6420    4.0930   27.1230 C.2     1  UNL1        0.2664
     16 N         -25.6140    5.2520   26.4490 N.am    1  UNL1       -0.1997
     17 C         -25.0260    6.4790   26.9630 C.3     1  UNL1        0.1388
     18 O         -25.1430    3.9660   28.2430 O.2     1  UNL1       -0.2683
     19 C         -27.4380    3.0910   25.6450 C.2     1  UNL1        0.1067
     20 N         -28.0750    2.0890   25.0030 N.2     1  UNL1       -0.2081
     21 C         -27.5430    0.8490   25.0790 C.2     1  UNL1        0.2533
     22 O         -28.1930   -0.2080   24.4770 O.2     1  UNL1       -0.4558
     23 C         -29.4600    0.0050   23.8660 C.3     1  UNL1        0.2426
     24 C         -30.0650   -1.3770   23.5730 C.3     1  UNL1        0.2292
     25 O         -30.7290   -1.8780   24.7210 O.3     1  UNL1       -0.2162
     26 C         -26.3540    0.5760   25.7770 C.2     1  UNL1        0.1938
     27 F         -25.8600   -0.6810   25.7950 F       1  UNL1       -0.1992
     28 C         -24.1204    0.4433   28.2426 C.2     1  UNL1        0.3359
     29 C         -24.3901    1.2728   27.1189 C.2     1  UNL1        0.1143
     30 N         -25.1753   -0.0569   29.0692 N.pl3   1  UNL1       -0.1045
     31 N         -22.7452    0.1951   28.4324 N.pl3   1  UNL1       -0.0059
     32 S         -22.9507    1.8722   26.3513 S.3     1  UNL1       -0.0373
     33 C         -29.9820    0.2287   27.3977 C.3     1  UNL1        0.0688
     34 N         -20.7135    1.3019   27.7327 N.3     1  UNL1       -0.0684
     35 C         -27.7468    1.1541   28.5482 C.3     1  UNL1        0.2014
     36 C         -31.8314    1.3238   26.0531 C.3     1  UNL1        0.1825
     37 C         -29.1172    0.4244   28.6525 C.2     1  UNL1        0.1723
     38 C         -33.7325    1.2755   28.0866 C.3     1  UNL1        0.0001
     39 O         -29.4237   -0.0700   29.7313 O.2     1  UNL1       -0.2944
     40 C         -22.0663    1.0209   27.6250 C.3     1  UNL1        0.3491
     41 C         -31.2776    1.1163   27.4761 C.3     1  UNL1        0.0404
     42 O         -32.1719    0.0668   25.5123 O.3     1  UNL1       -0.2204
     43 N         -26.7220    0.1546   29.1537 N.3     1  UNL1       -0.0287
     44 C         -32.4327    0.5578   28.3623 C.3     1  UNL1        0.0030
@<TRIPOS>BOND
     1     1    30    1
     2     2     7    1
     3     2     1    1
     4     3     2    2
     5     4     3    1
     6     4     5    2
     7     5     6    1
     8     6     7    2
     9     8     1    1
    10     8     9    1
    11     8    12    1
    12     9    10    1
    13    10    11    1
    14    12    11    1
    15    13    29    1
    16    14    13    1
    17    14    15    1
    18    15    18    2
    19    16    17    1
    20    16    15    1
    21    19    14    2
    22    20    21    2
    23    20    19    1
    24    21    26    1
    25    22    21    1
    26    23    22    1
    27    24    23    1
    28    24    25    1
    29    26    27    1
    30    26    13    2
    31    28    31    1
    32    28    30    1
    33    29    28    2
    34    30    43    1
    35    32    29    1
    36    32    40    1
    37    33    41    1
    38    33    37    1
    39    35    37    1
    40    35    43    1
    41    37    39    2
    42    38    44    1
    43    40    34    1
    44    40    31    1
    45    41    36    1
    46    41    44    1
    47    42    36    1
