@<TRIPOS>MOLECULE
No_508-gen_results/8p0m/2024-11-27-11-27-31/
 15 15 0 0 0
SMALL
GASTEIGER

@<TRIPOS>ATOM
      1 C         -28.0162   -0.8135   28.8779 C.ar    1  UNL1        0.0072
      2 C         -28.4690   -0.7850   29.8287 C.ar    1  UNL1        0.0798
      3 C         -27.0871    0.2903   28.6377 C.ar    1  UNL1        0.0085
      4 C         -26.0239    0.3644   29.2526 C.ar    1  UNL1        0.0420
      5 C         -29.4161   -1.9279   30.1751 C.2     1  UNL1        0.3878
      6 C         -26.2326    0.1422   30.7730 C.ar    1  UNL1        0.0085
      7 C         -27.3914   -0.7532   31.0134 C.ar    1  UNL1        0.0072
      8 O         -29.2202   -2.9946   30.4480 O.co2   1  UNL1       -0.2406
      9 O         -30.7041   -1.4768   30.1604 O.co2   1  UNL1       -0.2406
     10 C         -24.6912    0.2406   29.0606 C.1     1  UNL1       -0.0597
     11 C         -23.7968    0.7915   28.9015 C.1     1  UNL1       -0.0591
     12 C         -22.3757    0.5064   28.5626 C.2     1  UNL1        0.0496
     13 C         -21.3521    1.3258   28.2318 C.2     1  UNL1        0.0089
     14 C         -21.8441    2.6628   27.8442 C.2     1  UNL1        0.0006
     15 C         -23.1875    2.9469   27.8367 C.2     1  UNL1        0.0000
@<TRIPOS>BOND
     1     2     5    1
     2     5     8   ar
     3     5     9   ar
     4     4    10    1
     5    10    11    3
     6    11    12    1
     7    12    13    2
     8    13    14    1
     9    14    15    2
    10     1     2   ar
    11     2     7   ar
    12     7     6   ar
    13     6     4   ar
    14     4     3   ar
    15     3     1   ar
