@<TRIPOS>MOLECULE
outputs/IAG933/test6/raw/output_5080_IAG933_linker_design_.xyz
 42 45 0 0 0
SMALL
GASTEIGER

@<TRIPOS>ATOM
      1 C         -24.8550   -1.0120   30.1430 C.3     1  UNL1        0.1117
      2 C         -24.9730   -2.5050   29.7880 C.2     1  UNL1       -0.0030
      3 C         -23.9060   -3.1730   29.1460 C.2     1  UNL1       -0.0026
      4 C         -23.9890   -4.5490   28.8530 C.2     1  UNL1       -0.0003
      5 C         -25.1370   -5.2800   29.2050 C.2     1  UNL1       -0.0000
      6 C         -26.2320   -4.6110   29.7840 C.2     1  UNL1       -0.0003
      7 C         -26.1550   -3.2320   30.0650 C.2     1  UNL1       -0.0026
      8 C         -25.3870   -0.6790   31.5710 C.3     1  UNL1        0.0950
      9 C         -25.1890    0.7730   32.0280 C.3     1  UNL1        0.0209
     10 C         -25.3360    0.6840   33.5440 C.3     1  UNL1        0.0203
     11 C         -24.8290   -0.7150   33.9050 C.3     1  UNL1        0.0888
     12 N         -24.7580   -1.4810   32.6460 N.3     1  UNL1       -0.2174
     13 C         -25.6880    1.6140   26.4610 C.2     1  UNL1        0.0399
     14 C         -26.2500    2.9200   26.3950 C.2     1  UNL1        0.0766
     15 C         -25.6420    4.0930   27.1230 C.2     1  UNL1        0.2664
     16 N         -25.6140    5.2520   26.4490 N.am    1  UNL1       -0.1997
     17 C         -25.0260    6.4790   26.9630 C.3     1  UNL1        0.1388
     18 O         -25.1430    3.9660   28.2430 O.2     1  UNL1       -0.2683
     19 C         -27.4380    3.0910   25.6450 C.2     1  UNL1        0.1067
     20 N         -28.0750    2.0890   25.0030 N.2     1  UNL1       -0.2081
     21 C         -27.5430    0.8490   25.0790 C.2     1  UNL1        0.2533
     22 O         -28.1930   -0.2080   24.4770 O.2     1  UNL1       -0.4558
     23 C         -29.4600    0.0050   23.8660 C.3     1  UNL1        0.2426
     24 C         -30.0650   -1.3770   23.5730 C.3     1  UNL1        0.2292
     25 O         -30.7290   -1.8780   24.7210 O.3     1  UNL1       -0.2162
     26 C         -26.3540    0.5760   25.7770 C.2     1  UNL1        0.1931
     27 F         -25.8600   -0.6810   25.7950 F       1  UNL1       -0.1992
     28 C         -27.9792    2.7568   29.9451 C.3     1  UNL1        0.0955
     29 C         -26.4990   -0.5104   28.4500 C.3     1  UNL1        0.1790
     30 C         -28.4397    2.8020   31.3977 C.3     1  UNL1        0.0234
     31 O         -28.5370    0.4014   28.7379 O.2     1  UNL1       -0.2715
     32 C         -23.3253    1.6198   26.6604 C.2     1  UNL1        0.0731
     33 F         -20.9285    1.4707   27.1718 F       1  UNL1       -0.2266
     34 C         -22.7750    0.6390   28.4988 C.2     1  UNL1        0.0284
     35 C         -24.1897    0.6501   28.2743 C.2     1  UNL1        0.0477
     36 C         -24.4663    1.3335   27.1533 C.2     1  UNL1        0.0251
     37 C         -22.2164    1.2424   27.4119 C.3     1  UNL1        0.2170
     38 N         -26.9789    1.6060   29.8334 N.am    1  UNL1       -0.2057
     39 CL        -23.0411    2.2487   24.9931 Cl      1  UNL1       -0.0838
     40 C         -27.3972    0.5583   29.0384 C.2     1  UNL1        0.2615
     41 N         -25.0590   -0.1788   28.9134 N.pl3   1  UNL1       -0.2964
     42 C         -29.3869    2.9686   29.1568 C.3     1  UNL1        0.0234
@<TRIPOS>BOND
     1     1    41    1
     2     2     7    1
     3     2     1    1
     4     3     2    2
     5     4     3    1
     6     4     5    2
     7     5     6    1
     8     6     7    2
     9     8     1    1
    10     8     9    1
    11     8    12    1
    12     9    10    1
    13    10    11    1
    14    12    11    1
    15    13    36    1
    16    14    13    1
    17    14    15    1
    18    15    18    2
    19    16    17    1
    20    16    15    1
    21    19    14    2
    22    20    21    2
    23    20    19    1
    24    21    26    1
    25    22    21    1
    26    23    22    1
    27    24    23    1
    28    24    25    1
    29    26    27    1
    30    26    13    2
    31    28    30    1
    32    29    41    1
    33    29    40    1
    34    31    40    2
    35    32    36    2
    36    32    37    1
    37    35    34    2
    38    35    41    1
    39    36    35    1
    40    37    33    1
    41    37    34    1
    42    38    28    1
    43    39    32    1
    44    40    38    1
    45    42    28    1
