@<TRIPOS>MOLECULE
outputs/IAG933/test6/raw/output_5086_IAG933_linker_design_.xyz
 44 46 0 0 0
SMALL
GASTEIGER

@<TRIPOS>ATOM
      1 C         -24.8550   -1.0120   30.1430 C.3     1  UNL1        0.0451
      2 C         -24.9730   -2.5050   29.7880 C.2     1  UNL1       -0.0207
      3 C         -23.9060   -3.1730   29.1460 C.2     1  UNL1       -0.0042
      4 C         -23.9890   -4.5490   28.8530 C.2     1  UNL1       -0.0003
      5 C         -25.1370   -5.2800   29.2050 C.2     1  UNL1       -0.0000
      6 C         -26.2320   -4.6110   29.7840 C.2     1  UNL1       -0.0003
      7 C         -26.1550   -3.2320   30.0650 C.2     1  UNL1       -0.0042
      8 C         -25.3870   -0.6790   31.5710 C.3     1  UNL1        0.0917
      9 C         -25.1890    0.7730   32.0280 C.3     1  UNL1        0.0756
     10 C         -25.3360    0.6840   33.5440 C.3     1  UNL1        0.0362
     11 C         -24.8290   -0.7150   33.9050 C.3     1  UNL1        0.0901
     12 N         -24.7580   -1.4810   32.6460 N.3     1  UNL1       -0.2177
     13 C         -25.6880    1.6140   26.4610 C.2     1  UNL1        0.0407
     14 C         -26.2500    2.9200   26.3950 C.2     1  UNL1        0.0744
     15 C         -25.6420    4.0930   27.1230 C.2     1  UNL1        0.2223
     16 N         -25.6140    5.2520   26.4490 N.2     1  UNL1       -0.2356
     17 C         -25.0260    6.4790   26.9630 C.3     1  UNL1        0.1550
     18 O         -25.1430    3.9660   28.2430 O.2     1  UNL1       -0.4525
     19 C         -27.4380    3.0910   25.6450 C.2     1  UNL1        0.1068
     20 N         -28.0750    2.0890   25.0030 N.2     1  UNL1       -0.2081
     21 C         -27.5430    0.8490   25.0790 C.2     1  UNL1        0.2533
     22 O         -28.1930   -0.2080   24.4770 O.2     1  UNL1       -0.4558
     23 C         -29.4600    0.0050   23.8660 C.3     1  UNL1        0.2426
     24 C         -30.0650   -1.3770   23.5730 C.3     1  UNL1        0.2292
     25 O         -30.7290   -1.8780   24.7210 O.3     1  UNL1       -0.2162
     26 C         -26.3540    0.5760   25.7770 C.2     1  UNL1        0.1931
     27 F         -25.8600   -0.6810   25.7950 F       1  UNL1       -0.1992
     28 C         -30.7094    0.2298   33.6361 C.2     1  UNL1        0.0566
     29 O         -30.2312    0.3222   35.9548 O.2     1  UNL1       -0.2667
     30 C         -29.1801    0.3261   31.5646 C.3     1  UNL1        0.0435
     31 C         -22.4261    1.4084   28.1465 C.2     1  UNL1        0.3177
     32 N         -26.6758    1.2718   31.7342 N.3     1  UNL1       -0.2660
     33 C         -25.8701    2.1349   31.4125 C.3     1  UNL1        0.1416
     34 O         -27.1449    3.8810   30.2302 O.2     1  UNL1       -0.2907
     35 C         -26.1726    3.1012   30.3236 C.2     1  UNL1        0.2102
     36 C         -29.7606    0.9440   32.8644 C.2     1  UNL1       -0.0199
     37 C         -24.1972    2.3668   29.5129 C.3     1  UNL1        0.2594
     38 C         -21.1374    1.6550   27.4615 C.3     1  UNL1        0.1212
     39 O         -22.5675    0.2624   28.5514 O.2     1  UNL1       -0.2501
     40 C         -30.9722    0.7091   35.0406 C.2     1  UNL1        0.2840
     41 N         -31.8926    1.6601   35.2331 N.am    1  UNL1       -0.0837
     42 C         -28.0567    1.1418   30.8133 C.3     1  UNL1        0.0772
     43 C         -25.1793    3.1745   29.3547 C.3     1  UNL1        0.2687
     44 O         -23.3173    2.4655   28.2835 O.3     1  UNL1       -0.4440
@<TRIPOS>BOND
     1     2     7    1
     2     2     1    1
     3     3     2    2
     4     4     3    1
     5     4     5    2
     6     5     6    1
     7     6     7    2
     8     8     1    1
     9     8     9    1
    10     8    12    1
    11     9    32    1
    12     9    10    1
    13    10    11    1
    14    12    11    1
    15    14    13    1
    16    14    15    1
    17    15    18    1
    18    16    17    1
    19    16    15    2
    20    18    43    1
    21    19    14    2
    22    20    21    2
    23    20    19    1
    24    21    26    1
    25    22    21    1
    26    23    22    1
    27    24    23    1
    28    24    25    1
    29    26    27    1
    30    26    13    2
    31    28    40    1
    32    30    36    1
    33    31    44    1
    34    31    39    2
    35    33    32    1
    36    34    35    2
    37    35    33    1
    38    36    28    2
    39    38    31    1
    40    40    41    1
    41    40    29    2
    42    42    30    1
    43    42    32    1
    44    43    37    1
    45    43    35    1
    46    44    37    1
