@<TRIPOS>MOLECULE
outputs/IAG933/test6/raw/output_509_IAG933_linker_design_.xyz
 44 48 0 0 0
SMALL
GASTEIGER

@<TRIPOS>ATOM
      1 C         -24.8550   -1.0120   30.1430 C.3     1  UNL1        0.0441
      2 C         -24.9730   -2.5050   29.7880 C.2     1  UNL1       -0.0208
      3 C         -23.9060   -3.1730   29.1460 C.2     1  UNL1       -0.0042
      4 C         -23.9890   -4.5490   28.8530 C.2     1  UNL1       -0.0003
      5 C         -25.1370   -5.2800   29.2050 C.2     1  UNL1       -0.0000
      6 C         -26.2320   -4.6110   29.7840 C.2     1  UNL1       -0.0003
      7 C         -26.1550   -3.2320   30.0650 C.2     1  UNL1       -0.0042
      8 C         -25.3870   -0.6790   31.5710 C.3     1  UNL1        0.0842
      9 C         -25.1890    0.7730   32.0280 C.3     1  UNL1        0.0748
     10 C         -25.3360    0.6840   33.5440 C.3     1  UNL1        0.0277
     11 C         -24.8290   -0.7150   33.9050 C.3     1  UNL1        0.0892
     12 N         -24.7580   -1.4810   32.6460 N.3     1  UNL1       -0.2187
     13 C         -25.6880    1.6140   26.4610 C.2     1  UNL1        0.0390
     14 C         -26.2500    2.9200   26.3950 C.2     1  UNL1        0.0766
     15 C         -25.6420    4.0930   27.1230 C.2     1  UNL1        0.2664
     16 N         -25.6140    5.2520   26.4490 N.am    1  UNL1       -0.1997
     17 C         -25.0260    6.4790   26.9630 C.3     1  UNL1        0.1388
     18 O         -25.1430    3.9660   28.2430 O.2     1  UNL1       -0.2683
     19 C         -27.4380    3.0910   25.6450 C.2     1  UNL1        0.1067
     20 N         -28.0750    2.0890   25.0030 N.2     1  UNL1       -0.2081
     21 C         -27.5430    0.8490   25.0790 C.2     1  UNL1        0.2533
     22 O         -28.1930   -0.2080   24.4770 O.2     1  UNL1       -0.4558
     23 C         -29.4600    0.0050   23.8660 C.3     1  UNL1        0.2426
     24 C         -30.0650   -1.3770   23.5730 C.3     1  UNL1        0.2292
     25 O         -30.7290   -1.8780   24.7210 O.3     1  UNL1       -0.2162
     26 C         -26.3540    0.5760   25.7770 C.2     1  UNL1        0.1931
     27 F         -25.8600   -0.6810   25.7950 F       1  UNL1       -0.1992
     28 C         -24.5147    1.5219   27.1227 C.2     1  UNL1        0.0161
     29 CL        -22.7484    2.5027   25.2061 Cl      1  UNL1       -0.0822
     30 C         -22.5051    1.5929   29.0184 C.2     1  UNL1        0.0383
     31 C         -28.7515    0.9595   32.0887 C.3     1  UNL1        0.1591
     32 C         -25.5262    2.0071   31.2675 C.2     1  UNL1        0.1196
     33 O         -29.1344   -0.8647   30.8480 O.3     1  UNL1       -0.0347
     34 O         -24.3523    2.3276   30.3911 O.2     1  UNL1       -0.4581
     35 C         -28.8880    3.1728   33.1830 C.3     1  UNL1        0.0071
     36 C         -27.9760    2.3004   32.3123 C.3     1  UNL1        0.0553
     37 O         -28.8891    0.5025   30.8265 O.3     1  UNL1       -0.1914
     38 C         -30.1136    2.2722   33.6187 C.3     1  UNL1        0.0030
     39 C         -22.1698    1.6318   27.6666 C.2     1  UNL1        0.0145
     40 C         -23.1979    1.7974   26.7523 C.2     1  UNL1        0.0579
     41 C         -24.7894    1.2942   28.4584 C.2     1  UNL1        0.0384
     42 C         -29.9070    0.8430   33.0225 C.3     1  UNL1        0.0333
     43 C         -26.7462    2.6757   31.5509 C.2     1  UNL1        0.0090
     44 C         -23.9102    1.5810   29.3350 C.2     1  UNL1        0.1449
@<TRIPOS>BOND
     1     2     7    1
     2     2     1    1
     3     3     2    2
     4     4     3    1
     5     4     5    2
     6     5     6    1
     7     6     7    2
     8     8     1    1
     9     8     9    1
    10     8    12    1
    11     9    32    1
    12     9    10    1
    13    10    11    1
    14    12    11    1
    15    13    28    1
    16    14    13    1
    17    14    15    1
    18    15    18    2
    19    16    17    1
    20    16    15    1
    21    19    14    2
    22    20    21    2
    23    20    19    1
    24    21    26    1
    25    22    21    1
    26    23    22    1
    27    24    23    1
    28    24    25    1
    29    26    27    1
    30    26    13    2
    31    28    41    1
    32    29    40    1
    33    30    44    1
    34    31    37    1
    35    31    36    1
    36    31    42    1
    37    32    43    2
    38    34    32    1
    39    35    38    1
    40    36    43    1
    41    36    35    1
    42    37    33    1
    43    39    30    2
    44    40    28    2
    45    40    39    1
    46    41    44    2
    47    42    38    1
    48    44    34    1
