@<TRIPOS>MOLECULE
outputs/IAG933/test6/raw/output_5092_IAG933_linker_design_.xyz
 43 47 0 0 0
SMALL
GASTEIGER

@<TRIPOS>ATOM
      1 C         -24.8550   -1.0120   30.1430 C.3     1  UNL1        0.0504
      2 C         -24.9730   -2.5050   29.7880 C.2     1  UNL1       -0.0203
      3 C         -23.9060   -3.1730   29.1460 C.2     1  UNL1       -0.0042
      4 C         -23.9890   -4.5490   28.8530 C.2     1  UNL1       -0.0003
      5 C         -25.1370   -5.2800   29.2050 C.2     1  UNL1       -0.0000
      6 C         -26.2320   -4.6110   29.7840 C.2     1  UNL1       -0.0003
      7 C         -26.1550   -3.2320   30.0650 C.2     1  UNL1       -0.0042
      8 C         -25.3870   -0.6790   31.5710 C.3     1  UNL1        0.0777
      9 C         -25.1890    0.7730   32.0280 C.3     1  UNL1        0.0192
     10 C         -25.3360    0.6840   33.5440 C.3     1  UNL1        0.0202
     11 C         -24.8290   -0.7150   33.9050 C.3     1  UNL1        0.0887
     12 N         -24.7580   -1.4810   32.6460 N.3     1  UNL1       -0.2191
     13 C         -25.6880    1.6140   26.4610 C.3     1  UNL1        0.0792
     14 C         -26.2500    2.9200   26.3950 C.2     1  UNL1        0.0553
     15 C         -25.6420    4.0930   27.1230 C.2     1  UNL1        0.2625
     16 N         -25.6140    5.2520   26.4490 N.am    1  UNL1       -0.2000
     17 C         -25.0260    6.4790   26.9630 C.3     1  UNL1        0.1388
     18 O         -25.1430    3.9660   28.2430 O.2     1  UNL1       -0.2687
     19 C         -27.4380    3.0910   25.6450 C.2     1  UNL1        0.1022
     20 N         -28.0750    2.0890   25.0030 N.2     1  UNL1       -0.2119
     21 C         -27.5430    0.8490   25.0790 C.2     1  UNL1        0.2341
     22 O         -28.1930   -0.2080   24.4770 O.2     1  UNL1       -0.4585
     23 C         -29.4600    0.0050   23.8660 C.3     1  UNL1        0.2423
     24 C         -30.0650   -1.3770   23.5730 C.3     1  UNL1        0.2292
     25 O         -30.7290   -1.8780   24.7210 O.3     1  UNL1       -0.2162
     26 C         -26.3540    0.5760   25.7770 C.3     1  UNL1        0.2405
     27 F         -25.8600   -0.6810   25.7950 F       1  UNL1       -0.2269
     28 C         -29.1871    3.7825   30.2429 C.2     1  UNL1        0.0434
     29 C         -28.5310    4.6320   31.1456 C.2     1  UNL1        0.0034
     30 C         -24.3021    0.0724   29.3357 C.3     1  UNL1        0.0798
     31 C         -24.6560    1.4070   27.4672 C.3     1  UNL1        0.0929
     32 C         -22.2906    1.2322   27.6980 C.2     1  UNL1        0.2003
     33 C         -26.3890    3.6624   30.5029 C.2     1  UNL1        0.0193
     34 F         -20.9617    1.5343   27.4257 F       1  UNL1       -0.1943
     35 C         -23.3918    1.6813   27.0176 C.2     1  UNL1        0.2078
     36 C         -27.0158    2.6302   29.7655 C.2     1  UNL1        0.1041
     37 O         -29.1343    1.6431   29.1647 O.2     1  UNL1       -0.2852
     38 C         -27.1412    4.5976   31.2583 C.2     1  UNL1        0.0015
     39 C         -28.3938    2.7011   29.6466 C.2     1  UNL1        0.2103
     40 C         -25.1805    1.0971   28.6924 C.3     1  UNL1        0.1109
     41 S         -22.5837    0.1820   29.1083 S.3     1  UNL1       -0.0806
     42 N         -26.3620    1.4391   29.2348 N.pl3   1  UNL1       -0.2348
     43 O         -23.1279    2.2851   25.8337 O.2     1  UNL1       -0.2883
@<TRIPOS>BOND
     1     1     2    1
     2     2     7    1
     3     3     2    2
     4     4     3    1
     5     4     5    2
     6     5     6    1
     7     6     7    2
     8     8     1    1
     9     8     9    1
    10     8    12    1
    11     9    10    1
    12    10    11    1
    13    12    11    1
    14    13    14    1
    15    13    31    1
    16    14    15    1
    17    15    18    2
    18    16    17    1
    19    16    15    1
    20    19    14    2
    21    20    21    2
    22    20    19    1
    23    21    26    1
    24    22    21    1
    25    23    22    1
    26    24    23    1
    27    24    25    1
    28    26    27    1
    29    26    13    1
    30    28    29    1
    31    29    38    2
    32    30     1    1
    33    31    35    1
    34    31    40    1
    35    32    41    1
    36    33    38    1
    37    34    32    1
    38    35    32    2
    39    36    33    2
    40    37    39    1
    41    39    36    1
    42    39    28    2
    43    40    42    1
    44    40    30    1
    45    41    30    1
    46    42    36    1
    47    43    35    1
