@<TRIPOS>MOLECULE
outputs/IAG933/test6/raw/output_5093_IAG933_linker_design_.xyz
 43 45 0 0 0
SMALL
GASTEIGER

@<TRIPOS>ATOM
      1 C         -24.8550   -1.0120   30.1430 C.3     1  UNL1        0.0438
      2 C         -24.9730   -2.5050   29.7880 C.2     1  UNL1       -0.0208
      3 C         -23.9060   -3.1730   29.1460 C.2     1  UNL1       -0.0042
      4 C         -23.9890   -4.5490   28.8530 C.2     1  UNL1       -0.0003
      5 C         -25.1370   -5.2800   29.2050 C.2     1  UNL1       -0.0000
      6 C         -26.2320   -4.6110   29.7840 C.2     1  UNL1       -0.0003
      7 C         -26.1550   -3.2320   30.0650 C.2     1  UNL1       -0.0042
      8 C         -25.3870   -0.6790   31.5710 C.3     1  UNL1        0.0789
      9 C         -25.1890    0.7730   32.0280 C.3     1  UNL1        0.0411
     10 C         -25.3360    0.6840   33.5440 C.3     1  UNL1        0.0220
     11 C         -24.8290   -0.7150   33.9050 C.3     1  UNL1        0.0888
     12 N         -24.7580   -1.4810   32.6460 N.3     1  UNL1       -0.2191
     13 C         -25.6880    1.6140   26.4610 C.3     1  UNL1        0.0716
     14 C         -26.2500    2.9200   26.3950 C.2     1  UNL1        0.0548
     15 C         -25.6420    4.0930   27.1230 C.2     1  UNL1        0.2624
     16 N         -25.6140    5.2520   26.4490 N.am    1  UNL1       -0.2000
     17 C         -25.0260    6.4790   26.9630 C.3     1  UNL1        0.1388
     18 O         -25.1430    3.9660   28.2430 O.2     1  UNL1       -0.2687
     19 C         -27.4380    3.0910   25.6450 C.2     1  UNL1        0.1021
     20 N         -28.0750    2.0890   25.0030 N.2     1  UNL1       -0.2119
     21 C         -27.5430    0.8490   25.0790 C.2     1  UNL1        0.2341
     22 O         -28.1930   -0.2080   24.4770 O.2     1  UNL1       -0.4585
     23 C         -29.4600    0.0050   23.8660 C.3     1  UNL1        0.2423
     24 C         -30.0650   -1.3770   23.5730 C.3     1  UNL1        0.2292
     25 O         -30.7290   -1.8780   24.7210 O.3     1  UNL1       -0.2162
     26 C         -26.3540    0.5760   25.7770 C.3     1  UNL1        0.2400
     27 F         -25.8600   -0.6810   25.7950 F       1  UNL1       -0.2269
     28 N         -25.3031    2.1547   29.9520 N.3     1  UNL1       -0.2118
     29 C         -22.9185    2.2274   25.5226 C.3     1  UNL1        0.1450
     30 C         -20.9726    1.6368   26.9791 C.3     1  UNL1        0.2940
     31 N         -26.6191    4.9585   31.0476 N.3     1  UNL1       -0.0920
     32 C         -25.6732    4.6532   32.1050 C.3     1  UNL1        0.2662
     33 O         -21.2302    1.2236   28.2334 O.3     1  UNL1       -0.3241
     34 C         -24.8188    3.4816   32.0690 C.2     1  UNL1        0.2117
     35 C         -24.6389    1.4240   27.5068 C.3     1  UNL1        0.0273
     36 C         -25.4512    2.1836   31.4358 C.3     1  UNL1        0.1352
     37 C         -25.3234    1.1192   28.9106 C.3     1  UNL1        0.0896
     38 C         -27.1434    5.4921   33.7680 C.3     1  UNL1        0.1763
     39 C         -23.4607    1.7902   26.4841 C.3     1  UNL1        0.0340
     40 C         -22.0450    0.8568   29.0550 C.3     1  UNL1        0.1770
     41 O         -25.7947    5.5237   33.2484 O.3     1  UNL1       -0.3302
     42 O         -21.8710    1.8350   25.9825 O.3     1  UNL1       -0.3268
     43 O         -23.6849    3.6083   32.5853 O.2     1  UNL1       -0.2904
@<TRIPOS>BOND
     1     2     7    1
     2     2     1    1
     3     3     2    2
     4     4     3    1
     5     4     5    2
     6     5     6    1
     7     6     7    2
     8     8     1    1
     9     8     9    1
    10     8    12    1
    11     9    36    1
    12     9    10    1
    13    10    11    1
    14    12    11    1
    15    13    35    1
    16    14    13    1
    17    14    15    1
    18    15    18    2
    19    16    17    1
    20    16    15    1
    21    19    14    2
    22    20    21    2
    23    20    19    1
    24    21    26    1
    25    22    21    1
    26    23    22    1
    27    24    23    1
    28    24    25    1
    29    26    27    1
    30    26    13    1
    31    29    42    1
    32    29    39    1
    33    30    33    1
    34    32    31    1
    35    32    41    1
    36    33    40    1
    37    34    32    1
    38    34    43    2
    39    35    39    1
    40    35    37    1
    41    36    28    1
    42    36    34    1
    43    37    28    1
    44    41    38    1
    45    42    30    1
