@<TRIPOS>MOLECULE
outputs/IAG933/test6/raw/output_5096_IAG933_linker_design_.xyz
 43 47 0 0 0
SMALL
GASTEIGER

@<TRIPOS>ATOM
      1 C         -24.8550   -1.0120   30.1430 C.3     1  UNL1        0.0438
      2 C         -24.9730   -2.5050   29.7880 C.2     1  UNL1       -0.0208
      3 C         -23.9060   -3.1730   29.1460 C.2     1  UNL1       -0.0042
      4 C         -23.9890   -4.5490   28.8530 C.2     1  UNL1       -0.0003
      5 C         -25.1370   -5.2800   29.2050 C.2     1  UNL1       -0.0000
      6 C         -26.2320   -4.6110   29.7840 C.2     1  UNL1       -0.0003
      7 C         -26.1550   -3.2320   30.0650 C.2     1  UNL1       -0.0042
      8 C         -25.3870   -0.6790   31.5710 C.3     1  UNL1        0.0795
      9 C         -25.1890    0.7730   32.0280 C.3     1  UNL1        0.0450
     10 C         -25.3360    0.6840   33.5440 C.3     1  UNL1        0.0226
     11 C         -24.8290   -0.7150   33.9050 C.3     1  UNL1        0.0888
     12 N         -24.7580   -1.4810   32.6460 N.3     1  UNL1       -0.2190
     13 C         -25.6880    1.6140   26.4610 C.3     1  UNL1        0.1283
     14 C         -26.2500    2.9200   26.3950 C.2     1  UNL1        0.0696
     15 C         -25.6420    4.0930   27.1230 C.2     1  UNL1        0.2637
     16 N         -25.6140    5.2520   26.4490 N.am    1  UNL1       -0.2000
     17 C         -25.0260    6.4790   26.9630 C.3     1  UNL1        0.1388
     18 O         -25.1430    3.9660   28.2430 O.2     1  UNL1       -0.2686
     19 C         -27.4380    3.0910   25.6450 C.2     1  UNL1        0.1035
     20 N         -28.0750    2.0890   25.0030 N.2     1  UNL1       -0.2118
     21 C         -27.5430    0.8490   25.0790 C.2     1  UNL1        0.2355
     22 O         -28.1930   -0.2080   24.4770 O.2     1  UNL1       -0.4585
     23 C         -29.4600    0.0050   23.8660 C.3     1  UNL1        0.2423
     24 C         -30.0650   -1.3770   23.5730 C.3     1  UNL1        0.2292
     25 O         -30.7290   -1.8780   24.7210 O.3     1  UNL1       -0.2162
     26 C         -26.3540    0.5760   25.7770 C.3     1  UNL1        0.2546
     27 F         -25.8600   -0.6810   25.7950 F       1  UNL1       -0.2254
     28 C         -24.4639    5.7761   34.6420 C.2     1  UNL1        0.0648
     29 C         -23.9654    1.9069   30.4418 C.3     1  UNL1        0.0310
     30 O         -23.9077    3.3918   31.8925 O.3     1  UNL1       -0.3543
     31 N         -24.3402    1.4497   26.8465 N.3     1  UNL1       -0.2688
     32 C         -23.2726    2.0694   25.8189 C.3     1  UNL1        0.0724
     33 C         -26.6384    5.1532   33.6900 C.3     1  UNL1        0.0090
     34 C         -25.8931    5.6964   34.7970 C.3     1  UNL1        0.0446
     35 C         -22.1976    1.6065   27.9373 C.3     1  UNL1        0.0174
     36 C         -23.7352    1.2060   28.1547 C.3     1  UNL1        0.0580
     37 N         -23.8897    6.8514   35.2441 N.pl3   1  UNL1       -0.1330
     38 C         -24.4375    2.0412   31.6755 C.3     1  UNL1        0.1169
     39 C         -26.0526    4.0942   32.8169 C.3     1  UNL1        0.0346
     40 C         -21.9395    1.5510   26.4356 C.3     1  UNL1        0.0187
     41 C         -24.7939    1.2473   29.3618 C.3     1  UNL1        0.0185
     42 C         -24.6530    4.1523   32.7465 C.3     1  UNL1        0.1381
     43 C         -23.8749    4.9906   33.5662 C.2     1  UNL1        0.0165
@<TRIPOS>BOND
     1     2     7    1
     2     2     1    1
     3     3     2    2
     4     4     3    1
     5     4     5    2
     6     5     6    1
     7     6     7    2
     8     8     1    1
     9     8     9    1
    10     8    12    1
    11     9    38    1
    12     9    10    1
    13    10    11    1
    14    12    11    1
    15    13    14    1
    16    13    31    1
    17    14    15    1
    18    15    18    2
    19    16    17    1
    20    16    15    1
    21    19    14    2
    22    20    21    2
    23    20    19    1
    24    21    26    1
    25    22    21    1
    26    23    22    1
    27    24    23    1
    28    24    25    1
    29    26    27    1
    30    26    13    1
    31    28    34    1
    32    28    37    1
    33    31    32    1
    34    31    36    1
    35    32    40    1
    36    33    34    1
    37    35    36    1
    38    36    41    1
    39    38    29    1
    40    38    30    1
    41    39    33    1
    42    40    35    1
    43    41    29    1
    44    42    30    1
    45    42    39    1
    46    42    43    1
    47    43    28    2
