@<TRIPOS>MOLECULE
outputs/IAG933/test6/raw/output_51_IAG933_linker_design_.xyz
 42 46 0 0 0
SMALL
GASTEIGER

@<TRIPOS>ATOM
      1 C         -24.8550   -1.0120   30.1430 C.3     1  UNL1        0.0584
      2 C         -24.9730   -2.5050   29.7880 C.2     1  UNL1       -0.0195
      3 C         -23.9060   -3.1730   29.1460 C.2     1  UNL1       -0.0042
      4 C         -23.9890   -4.5490   28.8530 C.2     1  UNL1       -0.0003
      5 C         -25.1370   -5.2800   29.2050 C.2     1  UNL1       -0.0000
      6 C         -26.2320   -4.6110   29.7840 C.2     1  UNL1       -0.0003
      7 C         -26.1550   -3.2320   30.0650 C.2     1  UNL1       -0.0042
      8 C         -25.3870   -0.6790   31.5710 C.3     1  UNL1        0.0788
      9 C         -25.1890    0.7730   32.0280 C.3     1  UNL1        0.0238
     10 C         -25.3360    0.6840   33.5440 C.3     1  UNL1        0.0206
     11 C         -24.8290   -0.7150   33.9050 C.3     1  UNL1        0.0887
     12 N         -24.7580   -1.4810   32.6460 N.3     1  UNL1       -0.2191
     13 C         -25.6880    1.6140   26.4610 C.2     1  UNL1        0.0526
     14 C         -26.2500    2.9200   26.3950 C.2     1  UNL1        0.0778
     15 C         -25.6420    4.0930   27.1230 C.2     1  UNL1        0.2665
     16 N         -25.6140    5.2520   26.4490 N.am    1  UNL1       -0.1997
     17 C         -25.0260    6.4790   26.9630 C.3     1  UNL1        0.1388
     18 O         -25.1430    3.9660   28.2430 O.2     1  UNL1       -0.2683
     19 C         -27.4380    3.0910   25.6450 C.2     1  UNL1        0.1068
     20 N         -28.0750    2.0890   25.0030 N.2     1  UNL1       -0.2081
     21 C         -27.5430    0.8490   25.0790 C.2     1  UNL1        0.2533
     22 O         -28.1930   -0.2080   24.4770 O.2     1  UNL1       -0.4558
     23 C         -29.4600    0.0050   23.8660 C.3     1  UNL1        0.2426
     24 C         -30.0650   -1.3770   23.5730 C.3     1  UNL1        0.2292
     25 O         -30.7290   -1.8780   24.7210 O.3     1  UNL1       -0.2162
     26 C         -26.3540    0.5760   25.7770 C.2     1  UNL1        0.1943
     27 F         -25.8600   -0.6810   25.7950 F       1  UNL1       -0.1992
     28 C         -24.4213    3.5965   32.6152 C.2     1  UNL1        0.0147
     29 C         -24.2998    4.9259   32.9664 C.2     1  UNL1        0.0028
     30 C         -25.4224   -0.1742   29.0413 C.3     1  UNL1        0.1014
     31 CL        -23.0362    2.8631   25.3706 Cl      1  UNL1       -0.0785
     32 C         -22.4067    1.3844   27.6247 C.2     1  UNL1        0.1666
     33 C         -22.9870    0.5781   28.6058 C.2     1  UNL1        0.0963
     34 N         -24.3378    0.4944   28.2684 N.pl3   1  UNL1       -0.2829
     35 C         -25.3469    3.2731   31.6401 C.2     1  UNL1        0.0590
     36 C         -24.5391    1.2678   27.1804 C.2     1  UNL1        0.0671
     37 C         -25.0115    5.8704   32.3199 C.2     1  UNL1        0.0207
     38 N         -25.9665    4.2155   30.9829 N.2     1  UNL1       -0.2481
     39 C         -25.9241    1.9093   31.3368 C.3     1  UNL1        0.0472
     40 C         -23.3451    1.8270   26.7214 C.2     1  UNL1        0.0999
     41 F         -21.1210    1.6892   27.4690 F       1  UNL1       -0.2019
     42 C         -25.8104    5.4736   31.2870 C.2     1  UNL1        0.0984
@<TRIPOS>BOND
     1     1    30    1
     2     2     7    1
     3     2     1    1
     4     3     2    2
     5     4     3    1
     6     4     5    2
     7     5     6    1
     8     6     7    2
     9     8     1    1
    10     8     9    1
    11     8    12    1
    12     9    39    1
    13     9    10    1
    14    10    11    1
    15    12    11    1
    16    13    36    1
    17    14    13    1
    18    14    15    1
    19    15    18    2
    20    16    17    1
    21    16    15    1
    22    19    14    2
    23    20    21    2
    24    20    19    1
    25    21    26    1
    26    22    21    1
    27    23    22    1
    28    24    23    1
    29    24    25    1
    30    26    27    1
    31    26    13    2
    32    28    29    1
    33    31    40    1
    34    32    33    2
    35    34    33    1
    36    34    30    1
    37    35    28    2
    38    36    34    1
    39    37    29    2
    40    38    42    2
    41    38    35    1
    42    39    35    1
    43    40    36    2
    44    40    32    1
    45    41    32    1
    46    42    37    1
