@<TRIPOS>MOLECULE
outputs/IAG933/test6/raw/output_5101_IAG933_linker_design_.xyz
 48 52 0 0 0
SMALL
GASTEIGER

@<TRIPOS>ATOM
      1 C         -24.8550   -1.0120   30.1430 C.3     1  UNL1        0.0638
      2 C         -24.9730   -2.5050   29.7880 C.2     1  UNL1       -0.0191
      3 C         -23.9060   -3.1730   29.1460 C.2     1  UNL1       -0.0042
      4 C         -23.9890   -4.5490   28.8530 C.2     1  UNL1       -0.0003
      5 C         -25.1370   -5.2800   29.2050 C.2     1  UNL1       -0.0000
      6 C         -26.2320   -4.6110   29.7840 C.2     1  UNL1       -0.0003
      7 C         -26.1550   -3.2320   30.0650 C.2     1  UNL1       -0.0042
      8 C         -25.3870   -0.6790   31.5710 C.3     1  UNL1        0.0788
      9 C         -25.1890    0.7730   32.0280 C.3     1  UNL1        0.0193
     10 C         -25.3360    0.6840   33.5440 C.3     1  UNL1        0.0202
     11 C         -24.8290   -0.7150   33.9050 C.3     1  UNL1        0.0887
     12 N         -24.7580   -1.4810   32.6460 N.3     1  UNL1       -0.2191
     13 C         -25.6880    1.6140   26.4610 C.2     1  UNL1        0.0389
     14 C         -26.2500    2.9200   26.3950 C.2     1  UNL1        0.0766
     15 C         -25.6420    4.0930   27.1230 C.2     1  UNL1        0.2664
     16 N         -25.6140    5.2520   26.4490 N.am    1  UNL1       -0.1997
     17 C         -25.0260    6.4790   26.9630 C.3     1  UNL1        0.1388
     18 O         -25.1430    3.9660   28.2430 O.2     1  UNL1       -0.2683
     19 C         -27.4380    3.0910   25.6450 C.2     1  UNL1        0.1067
     20 N         -28.0750    2.0890   25.0030 N.2     1  UNL1       -0.2081
     21 C         -27.5430    0.8490   25.0790 C.2     1  UNL1        0.2533
     22 O         -28.1930   -0.2080   24.4770 O.2     1  UNL1       -0.4558
     23 C         -29.4600    0.0050   23.8660 C.3     1  UNL1        0.2426
     24 C         -30.0650   -1.3770   23.5730 C.3     1  UNL1        0.2292
     25 O         -30.7290   -1.8780   24.7210 O.3     1  UNL1       -0.2162
     26 C         -26.3540    0.5760   25.7770 C.2     1  UNL1        0.1931
     27 F         -25.8600   -0.6810   25.7950 F       1  UNL1       -0.1992
     28 C         -27.8918    0.4641   29.1455 C.2     1  UNL1        0.2417
     29 C         -29.3182    2.4336   29.9296 C.3     1  UNL1        0.0097
     30 C         -24.3830    0.5471   28.3290 C.2     1  UNL1        0.0705
     31 O         -28.3852   -0.6082   28.7961 O.2     1  UNL1       -0.2733
     32 C         -22.9654    2.5086   25.4868 C.3     1  UNL1        0.0349
     33 C         -22.3748    1.1910   27.7226 C.2     1  UNL1        0.2077
     34 F         -21.0550    1.5722   27.8064 F       1  UNL1       -0.1863
     35 C         -30.1598    3.9296   31.6297 C.3     1  UNL1        0.0002
     36 C         -30.5609    2.7499   30.7754 C.3     1  UNL1        0.0029
     37 N         -26.6688    0.8038   28.8659 N.am    1  UNL1       -0.2009
     38 C         -23.2409    1.6833   26.7641 C.2     1  UNL1        0.0227
     39 C         -24.4702    1.3453   27.1528 C.2     1  UNL1        0.0149
     40 C         -25.5106   -0.0699   29.0891 C.3     1  UNL1        0.1379
     41 C         -31.9083    2.4572   30.5950 C.3     1  UNL1        0.0296
     42 O         -33.9137    3.3908   31.5844 O.3     1  UNL1       -0.3536
     43 C         -34.2788    4.5153   32.4139 C.3     1  UNL1        0.1740
     44 C         -32.8056    3.5474   30.8496 C.3     1  UNL1        0.1153
     45 C         -28.3784    1.5274   30.0711 C.3     1  UNL1        0.0868
     46 N         -23.0191    0.4265   28.6003 N.pl3   1  UNL1       -0.1885
     47 C         -31.0452    5.0042   31.4940 C.3     1  UNL1        0.0025
     48 C         -32.2992    4.8872   30.8496 C.3     1  UNL1        0.0296
@<TRIPOS>BOND
     1     1    40    1
     2     2     7    1
     3     2     1    1
     4     3     2    2
     5     4     3    1
     6     4     5    2
     7     5     6    1
     8     6     7    2
     9     8     1    1
    10     8     9    1
    11     8    12    1
    12     9    10    1
    13    10    11    1
    14    12    11    1
    15    13    39    1
    16    14    13    1
    17    14    15    1
    18    15    18    2
    19    16    17    1
    20    16    15    1
    21    19    14    2
    22    20    21    2
    23    20    19    1
    24    21    26    1
    25    22    21    1
    26    23    22    1
    27    24    23    1
    28    24    25    1
    29    26    27    1
    30    26    13    2
    31    28    45    1
    32    29    45    1
    33    30    46    1
    34    30    40    1
    35    31    28    2
    36    32    38    1
    37    33    34    1
    38    33    46    1
    39    36    29    1
    40    36    35    1
    41    37    28    1
    42    38    39    1
    43    38    33    2
    44    39    30    2
    45    40    37    1
    46    41    36    1
    47    41    44    1
    48    42    43    1
    49    44    48    1
    50    44    42    1
    51    47    35    1
    52    48    47    1
