@<TRIPOS>MOLECULE
outputs/IAG933/test6/raw/output_5103_IAG933_linker_design_.xyz
 41 44 0 0 0
SMALL
GASTEIGER

@<TRIPOS>ATOM
      1 C         -24.8550   -1.0120   30.1430 C.3     1  UNL1        0.0438
      2 C         -24.9730   -2.5050   29.7880 C.2     1  UNL1       -0.0208
      3 C         -23.9060   -3.1730   29.1460 C.2     1  UNL1       -0.0042
      4 C         -23.9890   -4.5490   28.8530 C.2     1  UNL1       -0.0003
      5 C         -25.1370   -5.2800   29.2050 C.2     1  UNL1       -0.0000
      6 C         -26.2320   -4.6110   29.7840 C.2     1  UNL1       -0.0003
      7 C         -26.1550   -3.2320   30.0650 C.2     1  UNL1       -0.0042
      8 C         -25.3870   -0.6790   31.5710 C.3     1  UNL1        0.0796
      9 C         -25.1890    0.7730   32.0280 C.3     1  UNL1        0.0508
     10 C         -25.3360    0.6840   33.5440 C.3     1  UNL1        0.0228
     11 C         -24.8290   -0.7150   33.9050 C.3     1  UNL1        0.0888
     12 N         -24.7580   -1.4810   32.6460 N.3     1  UNL1       -0.2190
     13 C         -25.6880    1.6140   26.4610 C.3     1  UNL1        0.0788
     14 C         -26.2500    2.9200   26.3950 C.2     1  UNL1        0.0553
     15 C         -25.6420    4.0930   27.1230 C.2     1  UNL1        0.2625
     16 N         -25.6140    5.2520   26.4490 N.am    1  UNL1       -0.2000
     17 C         -25.0260    6.4790   26.9630 C.3     1  UNL1        0.1388
     18 O         -25.1430    3.9660   28.2430 O.2     1  UNL1       -0.2687
     19 C         -27.4380    3.0910   25.6450 C.2     1  UNL1        0.1022
     20 N         -28.0750    2.0890   25.0030 N.2     1  UNL1       -0.2119
     21 C         -27.5430    0.8490   25.0790 C.2     1  UNL1        0.2341
     22 O         -28.1930   -0.2080   24.4770 O.2     1  UNL1       -0.4585
     23 C         -29.4600    0.0050   23.8660 C.3     1  UNL1        0.2423
     24 C         -30.0650   -1.3770   23.5730 C.3     1  UNL1        0.2292
     25 O         -30.7290   -1.8780   24.7210 O.3     1  UNL1       -0.2162
     26 C         -26.3540    0.5760   25.7770 C.3     1  UNL1        0.2405
     27 F         -25.8600   -0.6810   25.7950 F       1  UNL1       -0.2269
     28 C         -22.1813    0.9466   27.7451 C.3     1  UNL1        0.0895
     29 C         -21.3716    0.0659   28.6494 C.2     1  UNL1        0.1534
     30 C         -21.4483    1.2972   26.4951 C.3     1  UNL1        0.0378
     31 O         -22.0356   -0.5127   29.5284 O.2     1  UNL1       -0.2960
     32 O         -24.1378    1.5484   29.3020 O.3     1  UNL1       -0.3527
     33 C         -23.5082    1.7406   25.5389 C.2     1  UNL1        0.1158
     34 F         -23.0799    2.0547   24.8778 F       1  UNL1       -0.2091
     35 O         -25.0344    3.2120   31.7870 O.3     1  UNL1       -0.2204
     36 C         -20.1215   -0.0001   28.4492 C.3     1  UNL1        0.0723
     37 C         -25.6714    2.0436   31.3042 C.3     1  UNL1        0.1827
     38 C         -25.4173    1.9807   29.7998 C.3     1  UNL1        0.1748
     39 C         -22.2058    1.6959   25.5201 C.2     1  UNL1       -0.0004
     40 C         -24.2877    1.5070   26.7552 C.3     1  UNL1        0.0848
     41 C         -23.6032    1.3462   27.9824 C.3     1  UNL1        0.1291
@<TRIPOS>BOND
     1     2     7    1
     2     2     1    1
     3     3     2    2
     4     4     3    1
     5     4     5    2
     6     5     6    1
     7     6     7    2
     8     8     1    1
     9     8     9    1
    10     8    12    1
    11     9    37    1
    12     9    10    1
    13    10    11    1
    14    12    11    1
    15    13    14    1
    16    13    40    1
    17    14    15    1
    18    15    18    2
    19    16    17    1
    20    16    15    1
    21    19    14    2
    22    20    21    2
    23    20    19    1
    24    21    26    1
    25    22    21    1
    26    23    22    1
    27    24    23    1
    28    24    25    1
    29    26    27    1
    30    26    13    1
    31    28    41    1
    32    28    29    1
    33    29    31    2
    34    30    28    1
    35    32    38    1
    36    34    33    1
    37    36    29    1
    38    37    35    1
    39    38    37    1
    40    39    33    2
    41    39    30    1
    42    40    33    1
    43    40    41    1
    44    41    32    1
