@<TRIPOS>MOLECULE
outputs/IAG933/test6/raw/output_5107_IAG933_linker_design_.xyz
 41 45 0 0 0
SMALL
GASTEIGER

@<TRIPOS>ATOM
      1 C         -24.8550   -1.0120   30.1430 C.3     1  UNL1        0.0974
      2 C         -24.9730   -2.5050   29.7880 C.2     1  UNL1       -0.0064
      3 C         -23.9060   -3.1730   29.1460 C.2     1  UNL1       -0.0029
      4 C         -23.9890   -4.5490   28.8530 C.2     1  UNL1       -0.0003
      5 C         -25.1370   -5.2800   29.2050 C.2     1  UNL1       -0.0000
      6 C         -26.2320   -4.6110   29.7840 C.2     1  UNL1       -0.0003
      7 C         -26.1550   -3.2320   30.0650 C.2     1  UNL1       -0.0029
      8 C         -25.3870   -0.6790   31.5710 C.3     1  UNL1        0.0916
      9 C         -25.1890    0.7730   32.0280 C.3     1  UNL1        0.0206
     10 C         -25.3360    0.6840   33.5440 C.3     1  UNL1        0.0203
     11 C         -24.8290   -0.7150   33.9050 C.3     1  UNL1        0.0888
     12 N         -24.7580   -1.4810   32.6460 N.3     1  UNL1       -0.2178
     13 C         -25.6880    1.6140   26.4610 C.2     1  UNL1        0.0872
     14 C         -26.2500    2.9200   26.3950 C.2     1  UNL1        0.0899
     15 C         -25.6420    4.0930   27.1230 C.2     1  UNL1        0.2676
     16 N         -25.6140    5.2520   26.4490 N.am    1  UNL1       -0.1997
     17 C         -25.0260    6.4790   26.9630 C.3     1  UNL1        0.1388
     18 O         -25.1430    3.9660   28.2430 O.2     1  UNL1       -0.2683
     19 C         -27.4380    3.0910   25.6450 C.2     1  UNL1        0.1080
     20 N         -28.0750    2.0890   25.0030 N.2     1  UNL1       -0.2080
     21 C         -27.5430    0.8490   25.0790 C.2     1  UNL1        0.2546
     22 O         -28.1930   -0.2080   24.4770 O.2     1  UNL1       -0.4558
     23 C         -29.4600    0.0050   23.8660 C.3     1  UNL1        0.2426
     24 C         -30.0650   -1.3770   23.5730 C.3     1  UNL1        0.2292
     25 O         -30.7290   -1.8780   24.7210 O.3     1  UNL1       -0.2162
     26 C         -26.3540    0.5760   25.7770 C.2     1  UNL1        0.2063
     27 F         -25.8600   -0.6810   25.7950 F       1  UNL1       -0.1979
     28 C         -27.3545   -0.4281   28.6997 C.3     1  UNL1        0.0271
     29 C         -29.0136   -0.5053   30.4927 C.2     1  UNL1        0.2608
     30 C         -28.1483    0.3727   29.7446 C.3     1  UNL1        0.0900
     31 C         -22.7368    2.2664   26.1504 C.3     1  UNL1        0.0803
     32 N         -24.7025    1.4345   27.3521 N.pl3   1  UNL1       -0.2930
     33 N         -29.2962   -0.2071   31.7189 N.am    1  UNL1       -0.0878
     34 N         -24.8651   -0.0698   29.0837 N.3     1  UNL1       -0.2556
     35 O         -29.4162   -1.5440   29.9355 O.2     1  UNL1       -0.2717
     36 C         -25.9584    0.0197   28.3681 C.3     1  UNL1        0.0743
     37 S         -21.4247    1.9499   27.0688 S.3     1  UNL1       -0.1383
     38 C         -23.4730    1.0379   26.6893 C.3     1  UNL1        0.1153
     39 C         -21.1176    0.6627   27.9353 C.3     1  UNL1        0.0607
     40 C         -22.4350    0.4234   28.8421 C.3     1  UNL1        0.0471
     41 C         -23.7393    0.9778   28.2003 C.3     1  UNL1        0.1244
@<TRIPOS>BOND
     1     1    34    1
     2     2     7    1
     3     2     1    1
     4     3     2    2
     5     4     3    1
     6     4     5    2
     7     5     6    1
     8     6     7    2
     9     8     1    1
    10     8     9    1
    11     8    12    1
    12     9    10    1
    13    10    11    1
    14    12    11    1
    15    13    32    1
    16    14    13    1
    17    14    15    1
    18    15    18    2
    19    16    17    1
    20    16    15    1
    21    19    14    2
    22    20    21    2
    23    20    19    1
    24    21    26    1
    25    22    21    1
    26    23    22    1
    27    24    23    1
    28    24    25    1
    29    26    27    1
    30    26    13    2
    31    28    30    1
    32    29    33    1
    33    30    29    1
    34    31    37    1
    35    32    41    1
    36    35    29    2
    37    36    28    1
    38    36    34    1
    39    37    39    1
    40    38    31    1
    41    38    32    1
    42    38    41    1
    43    39    40    1
    44    41    40    1
    45    41    34    1
