@<TRIPOS>MOLECULE
outputs/IAG933/test6/raw/output_511_IAG933_linker_design_.xyz
 45 49 0 0 0
SMALL
GASTEIGER

@<TRIPOS>ATOM
      1 C         -24.8550   -1.0120   30.1430 C.3     1  UNL1        0.0972
      2 C         -24.9730   -2.5050   29.7880 C.2     1  UNL1       -0.0064
      3 C         -23.9060   -3.1730   29.1460 C.2     1  UNL1       -0.0029
      4 C         -23.9890   -4.5490   28.8530 C.2     1  UNL1       -0.0003
      5 C         -25.1370   -5.2800   29.2050 C.2     1  UNL1       -0.0000
      6 C         -26.2320   -4.6110   29.7840 C.2     1  UNL1       -0.0003
      7 C         -26.1550   -3.2320   30.0650 C.2     1  UNL1       -0.0029
      8 C         -25.3870   -0.6790   31.5710 C.3     1  UNL1        0.0916
      9 C         -25.1890    0.7730   32.0280 C.3     1  UNL1        0.0206
     10 C         -25.3360    0.6840   33.5440 C.3     1  UNL1        0.0203
     11 C         -24.8290   -0.7150   33.9050 C.3     1  UNL1        0.0888
     12 N         -24.7580   -1.4810   32.6460 N.3     1  UNL1       -0.2178
     13 C         -25.6880    1.6140   26.4610 C.3     1  UNL1        0.1439
     14 C         -26.2500    2.9200   26.3950 C.2     1  UNL1        0.0710
     15 C         -25.6420    4.0930   27.1230 C.2     1  UNL1        0.2638
     16 N         -25.6140    5.2520   26.4490 N.am    1  UNL1       -0.2000
     17 C         -25.0260    6.4790   26.9630 C.3     1  UNL1        0.1388
     18 O         -25.1430    3.9660   28.2430 O.2     1  UNL1       -0.2686
     19 C         -27.4380    3.0910   25.6450 C.2     1  UNL1        0.1035
     20 N         -28.0750    2.0890   25.0030 N.2     1  UNL1       -0.2118
     21 C         -27.5430    0.8490   25.0790 C.2     1  UNL1        0.2356
     22 O         -28.1930   -0.2080   24.4770 O.2     1  UNL1       -0.4585
     23 C         -29.4600    0.0050   23.8660 C.3     1  UNL1        0.2423
     24 C         -30.0650   -1.3770   23.5730 C.3     1  UNL1        0.2292
     25 O         -30.7290   -1.8780   24.7210 O.3     1  UNL1       -0.2162
     26 C         -26.3540    0.5760   25.7770 C.3     1  UNL1        0.2559
     27 F         -25.8600   -0.6810   25.7950 F       1  UNL1       -0.2253
     28 C         -24.7626    0.6943   28.6398 C.3     1  UNL1        0.1351
     29 C         -28.3400    1.2609   30.4312 C.3     1  UNL1        0.2097
     30 O         -30.2108   -0.8951   28.2425 O.3     1  UNL1       -0.2180
     31 C         -27.2578   -0.3597   28.9124 C.3     1  UNL1        0.0802
     32 C         -23.3807    0.8529   28.9052 C.3     1  UNL1        0.0661
     33 C         -22.9033    1.8944   28.4333 C.3     1  UNL1        0.0666
     34 O         -21.6548    2.0160   26.4099 O.3     1  UNL1       -0.3278
     35 C         -29.6663    2.7037   29.0963 C.2     1  UNL1        0.1702
     36 N         -25.7120   -0.1956   29.2593 N.3     1  UNL1       -0.2563
     37 C         -28.5304    0.3720   29.3953 C.3     1  UNL1        0.0944
     38 O         -28.8564    2.4979   30.1932 O.2     1  UNL1       -0.4725
     39 C         -21.9652    1.4236   27.5943 C.3     1  UNL1        0.2353
     40 C         -29.6969    0.3380   28.6564 C.3     1  UNL1        0.1820
     41 C         -22.2414    0.0252   29.2388 C.3     1  UNL1        0.1477
     42 C         -22.7497    2.3974   25.5483 C.3     1  UNL1        0.1768
     43 C         -30.2396    1.6107   28.3958 C.2     1  UNL1        0.0463
     44 O         -21.3149    0.4684   28.1654 O.3     1  UNL1       -0.3304
     45 N         -25.1966    1.2340   27.6278 N.3     1  UNL1       -0.1969
@<TRIPOS>BOND
     1     1    36    1
     2     2     7    1
     3     2     1    1
     4     3     2    2
     5     4     3    1
     6     4     5    2
     7     5     6    1
     8     6     7    2
     9     8     1    1
    10     8     9    1
    11     8    12    1
    12     9    10    1
    13    10    11    1
    14    12    11    1
    15    13    45    1
    16    14    13    1
    17    14    15    1
    18    15    18    2
    19    16    17    1
    20    16    15    1
    21    19    14    2
    22    20    21    2
    23    20    19    1
    24    21    26    1
    25    22    21    1
    26    23    22    1
    27    24    23    1
    28    24    25    1
    29    26    27    1
    30    26    13    1
    31    28    45    1
    32    28    36    1
    33    31    36    1
    34    32    28    1
    35    32    41    1
    36    33    32    1
    37    35    38    1
    38    37    31    1
    39    37    29    1
    40    38    29    1
    41    39    34    1
    42    39    44    1
    43    39    33    1
    44    40    30    1
    45    40    37    1
    46    42    34    1
    47    43    40    1
    48    43    35    2
    49    44    41    1
