@<TRIPOS>MOLECULE
outputs/IAG933/test6/raw/output_5110_IAG933_linker_design_.xyz
 47 51 0 0 0
SMALL
GASTEIGER

@<TRIPOS>ATOM
      1 C         -24.8550   -1.0120   30.1430 C.3     1  UNL1        0.1141
      2 C         -24.9730   -2.5050   29.7880 C.2     1  UNL1       -0.0029
      3 C         -23.9060   -3.1730   29.1460 C.2     1  UNL1       -0.0026
      4 C         -23.9890   -4.5490   28.8530 C.2     1  UNL1       -0.0003
      5 C         -25.1370   -5.2800   29.2050 C.2     1  UNL1       -0.0000
      6 C         -26.2320   -4.6110   29.7840 C.2     1  UNL1       -0.0003
      7 C         -26.1550   -3.2320   30.0650 C.2     1  UNL1       -0.0026
      8 C         -25.3870   -0.6790   31.5710 C.3     1  UNL1        0.0951
      9 C         -25.1890    0.7730   32.0280 C.3     1  UNL1        0.0209
     10 C         -25.3360    0.6840   33.5440 C.3     1  UNL1        0.0203
     11 C         -24.8290   -0.7150   33.9050 C.3     1  UNL1        0.0888
     12 N         -24.7580   -1.4810   32.6460 N.3     1  UNL1       -0.2174
     13 C         -25.6880    1.6140   26.4610 C.2     1  UNL1        0.0222
     14 C         -26.2500    2.9200   26.3950 C.2     1  UNL1        0.0708
     15 C         -25.6420    4.0930   27.1230 C.2     1  UNL1        0.2231
     16 N         -25.6140    5.2520   26.4490 N.2     1  UNL1       -0.2356
     17 C         -25.0260    6.4790   26.9630 C.3     1  UNL1        0.1550
     18 O         -25.1430    3.9660   28.2430 O.2     1  UNL1       -0.4431
     19 C         -27.4380    3.0910   25.6450 C.2     1  UNL1        0.1065
     20 N         -28.0750    2.0890   25.0030 N.2     1  UNL1       -0.2081
     21 C         -27.5430    0.8490   25.0790 C.2     1  UNL1        0.2530
     22 O         -28.1930   -0.2080   24.4770 O.2     1  UNL1       -0.4558
     23 C         -29.4600    0.0050   23.8660 C.3     1  UNL1        0.2426
     24 C         -30.0650   -1.3770   23.5730 C.3     1  UNL1        0.2292
     25 O         -30.7290   -1.8780   24.7210 O.3     1  UNL1       -0.2162
     26 C         -26.3540    0.5760   25.7770 C.2     1  UNL1        0.1895
     27 F         -25.8600   -0.6810   25.7950 F       1  UNL1       -0.1996
     28 O         -26.6516    4.3829   32.4935 O.2     1  UNL1       -0.2727
     29 CL        -22.8584    2.4818   25.5519 Cl      1  UNL1       -0.0841
     30 O         -28.2601    5.0773   28.8871 O.co2   1  UNL1       -0.2452
     31 C         -26.2144    7.3438   30.6713 C.3     1  UNL1        0.0206
     32 C         -24.6368    1.5166   27.3945 C.3     1  UNL1        0.0786
     33 N         -24.2712    0.1821   29.3514 N.am    1  UNL1       -0.2715
     34 C         -22.4044    1.0082   27.7983 C.2     1  UNL1        0.2001
     35 C         -27.2356    6.3024   31.1583 C.3     1  UNL1        0.1637
     36 C         -23.3245    1.6033   26.9474 C.2     1  UNL1        0.0727
     37 C         -25.5439    3.6166   29.4881 C.3     1  UNL1        0.2659
     38 F         -21.0903    1.2446   27.6012 F       1  UNL1       -0.1988
     39 O         -22.0896   -0.4768   29.5924 O.2     1  UNL1       -0.2674
     40 N         -25.5076    4.5756   30.4485 N.am    1  UNL1       -0.1653
     41 O         -29.4082    5.3949   30.7736 O.co2   1  UNL1       -0.2452
     42 C         -22.9301    0.2237   28.9441 C.2     1  UNL1        0.2774
     43 C         -27.9036    6.9407   32.3422 C.3     1  UNL1        0.0206
     44 C         -26.4477    4.9970   31.4631 C.2     1  UNL1        0.2537
     45 C         -28.3640    5.6247   30.2527 C.2     1  UNL1        0.3721
     46 C         -25.9390    2.1561   29.6421 C.3     1  UNL1        0.0877
     47 C         -24.9672    1.2511   28.8094 C.3     1  UNL1        0.0905
@<TRIPOS>BOND
     1     1     2    1
     2     2     7    1
     3     3     2    2
     4     4     3    1
     5     4     5    2
     6     5     6    1
     7     6     7    2
     8     8     1    1
     9     8     9    1
    10     8    12    1
    11     9    10    1
    12    10    11    1
    13    12    11    1
    14    14    13    1
    15    14    15    1
    16    15    18    1
    17    16    17    1
    18    16    15    2
    19    18    37    1
    20    19    14    2
    21    20    21    2
    22    20    19    1
    23    21    26    1
    24    22    21    1
    25    23    22    1
    26    24    23    1
    27    24    25    1
    28    26    27    1
    29    26    13    2
    30    29    36    1
    31    30    45   ar
    32    31    35    1
    33    32    13    1
    34    32    47    1
    35    33     1    1
    36    34    42    1
    37    35    44    1
    38    35    43    1
    39    36    32    1
    40    36    34    2
    41    37    46    1
    42    37    40    1
    43    38    34    1
    44    40    44    1
    45    42    33   am
    46    42    39    2
    47    44    28    2
    48    45    41   ar
    49    45    35    1
    50    47    33    1
    51    47    46    1
