@<TRIPOS>MOLECULE
outputs/IAG933/test6/raw/output_5113_IAG933_linker_design_.xyz
 41 43 0 0 0
SMALL
GASTEIGER

@<TRIPOS>ATOM
      1 C         -24.8550   -1.0120   30.1430 C.3     1  UNL1        0.0638
      2 C         -24.9730   -2.5050   29.7880 C.2     1  UNL1       -0.0193
      3 C         -23.9060   -3.1730   29.1460 C.2     1  UNL1       -0.0042
      4 C         -23.9890   -4.5490   28.8530 C.2     1  UNL1       -0.0003
      5 C         -25.1370   -5.2800   29.2050 C.2     1  UNL1       -0.0000
      6 C         -26.2320   -4.6110   29.7840 C.2     1  UNL1       -0.0003
      7 C         -26.1550   -3.2320   30.0650 C.2     1  UNL1       -0.0042
      8 C         -25.3870   -0.6790   31.5710 C.3     1  UNL1        0.0787
      9 C         -25.1890    0.7730   32.0280 C.3     1  UNL1        0.0193
     10 C         -25.3360    0.6840   33.5440 C.3     1  UNL1        0.0202
     11 C         -24.8290   -0.7150   33.9050 C.3     1  UNL1        0.0887
     12 N         -24.7580   -1.4810   32.6460 N.3     1  UNL1       -0.2191
     13 C         -25.6880    1.6140   26.4610 C.2     1  UNL1        0.1785
     14 C         -26.2500    2.9200   26.3950 C.2     1  UNL1        0.1106
     15 C         -25.6420    4.0930   27.1230 C.2     1  UNL1        0.2694
     16 N         -25.6140    5.2520   26.4490 N.am    1  UNL1       -0.1996
     17 C         -25.0260    6.4790   26.9630 C.3     1  UNL1        0.1388
     18 O         -25.1430    3.9660   28.2430 O.2     1  UNL1       -0.2682
     19 C         -27.4380    3.0910   25.6450 C.2     1  UNL1        0.1098
     20 N         -28.0750    2.0890   25.0030 N.2     1  UNL1       -0.2079
     21 C         -27.5430    0.8490   25.0790 C.2     1  UNL1        0.2564
     22 O         -28.1930   -0.2080   24.4770 O.2     1  UNL1       -0.4558
     23 C         -29.4600    0.0050   23.8660 C.3     1  UNL1        0.2426
     24 C         -30.0650   -1.3770   23.5730 C.3     1  UNL1        0.2292
     25 O         -30.7290   -1.8780   24.7210 O.3     1  UNL1       -0.2162
     26 C         -26.3540    0.5760   25.7770 C.2     1  UNL1        0.2268
     27 F         -25.8600   -0.6810   25.7950 F       1  UNL1       -0.1960
     28 C         -25.3138    0.0397   29.0628 C.3     1  UNL1        0.1631
     29 N         -26.7011    0.0227   28.7772 N.am    1  UNL1       -0.1945
     30 C         -24.5441    0.9646   28.4144 C.3     1  UNL1        0.2883
     31 C         -22.1023    1.1314   28.1114 C.1     1  UNL1        0.0348
     32 C         -29.2445    1.6182   29.7653 C.2     1  UNL1        0.2193
     33 O         -24.4658    1.5057   27.1646 O.2     1  UNL1       -0.4537
     34 N         -23.1596    0.7803   28.8562 N.pl3   1  UNL1       -0.1464
     35 O         -28.4682    1.8804   30.9165 O.2     1  UNL1       -0.4651
     36 C         -28.9073    3.0536   31.5886 C.3     1  UNL1        0.2528
     37 C         -28.8792    0.4930   28.8772 C.2     1  UNL1        0.2868
     38 C         -21.0997    1.5903   27.6071 C.1     1  UNL1        0.0087
     39 O         -29.4625   -0.0897   27.6537 O.2     1  UNL1       -0.2782
     40 C         -27.9296   -0.3292   29.1803 C.2     1  UNL1        0.3073
     41 O         -28.2272   -1.4155   29.7044 O.2     1  UNL1       -0.2647
@<TRIPOS>BOND
     1     1    28    1
     2     2     7    1
     3     2     1    1
     4     3     2    2
     5     4     3    1
     6     4     5    2
     7     5     6    1
     8     6     7    2
     9     8     1    1
    10     8     9    1
    11     8    12    1
    12     9    10    1
    13    10    11    1
    14    12    11    1
    15    13    33    1
    16    14    13    1
    17    14    15    1
    18    15    18    2
    19    16    17    1
    20    16    15    1
    21    19    14    2
    22    20    21    2
    23    20    19    1
    24    21    26    1
    25    22    21    1
    26    23    22    1
    27    24    23    1
    28    24    25    1
    29    26    27    1
    30    26    13    2
    31    28    29    1
    32    29    40    1
    33    30    33    1
    34    30    34    1
    35    30    28    1
    36    31    34    1
    37    32    35    1
    38    35    36    1
    39    37    40    1
    40    37    32    2
    41    38    31    3
    42    39    37    1
    43    40    41    2
