@<TRIPOS>MOLECULE
outputs/IAG933/test6/raw/output_5114_IAG933_linker_design_.xyz
 40 44 0 0 0
SMALL
GASTEIGER

@<TRIPOS>ATOM
      1 C         -24.8550   -1.0120   30.1430 C.3     1  UNL1        0.1237
      2 C         -24.9730   -2.5050   29.7880 C.2     1  UNL1       -0.0004
      3 C         -23.9060   -3.1730   29.1460 C.2     1  UNL1       -0.0024
      4 C         -23.9890   -4.5490   28.8530 C.2     1  UNL1       -0.0003
      5 C         -25.1370   -5.2800   29.2050 C.2     1  UNL1       -0.0000
      6 C         -26.2320   -4.6110   29.7840 C.2     1  UNL1       -0.0003
      7 C         -26.1550   -3.2320   30.0650 C.2     1  UNL1       -0.0024
      8 C         -25.3870   -0.6790   31.5710 C.3     1  UNL1        0.0976
      9 C         -25.1890    0.7730   32.0280 C.3     1  UNL1        0.0211
     10 C         -25.3360    0.6840   33.5440 C.3     1  UNL1        0.0203
     11 C         -24.8290   -0.7150   33.9050 C.3     1  UNL1        0.0888
     12 N         -24.7580   -1.4810   32.6460 N.3     1  UNL1       -0.2172
     13 C         -25.6880    1.6140   26.4610 C.3     1  UNL1        0.0936
     14 C         -26.2500    2.9200   26.3950 C.2     1  UNL1        0.0589
     15 C         -25.6420    4.0930   27.1230 C.2     1  UNL1        0.2628
     16 N         -25.6140    5.2520   26.4490 N.am    1  UNL1       -0.2000
     17 C         -25.0260    6.4790   26.9630 C.3     1  UNL1        0.1388
     18 O         -25.1430    3.9660   28.2430 O.2     1  UNL1       -0.2686
     19 C         -27.4380    3.0910   25.6450 C.2     1  UNL1        0.1025
     20 N         -28.0750    2.0890   25.0030 N.2     1  UNL1       -0.2118
     21 C         -27.5430    0.8490   25.0790 C.2     1  UNL1        0.2344
     22 O         -28.1930   -0.2080   24.4770 O.2     1  UNL1       -0.4585
     23 C         -29.4600    0.0050   23.8660 C.3     1  UNL1        0.2423
     24 C         -30.0650   -1.3770   23.5730 C.3     1  UNL1        0.2292
     25 O         -30.7290   -1.8780   24.7210 O.3     1  UNL1       -0.2162
     26 C         -26.3540    0.5760   25.7770 C.3     1  UNL1        0.2440
     27 F         -25.8600   -0.6810   25.7950 F       1  UNL1       -0.2265
     28 C         -21.3799    1.5571   27.4643 C.2     1  UNL1        0.2767
     29 N         -22.1093   -0.4575   30.3095 N.pl3   1  UNL1        0.2180
     30 C         -22.6218    1.5865   26.8535 C.2     1  UNL1        0.2336
     31 C         -27.1757    0.1092   28.9060 C.3     1  UNL1        0.0497
     32 C         -23.7168    1.1176   27.5801 C.ar    1  UNL1        0.0628
     33 C         -22.2665    0.3226   29.2800 C.2     1  UNL1        0.4314
     34 O         -22.8054    1.9217   25.5430 O.2     1  UNL1       -0.2990
     35 C         -25.7182    0.3405   28.4247 C.ar    1  UNL1        0.0345
     36 C         -25.0696    1.0737   27.4142 C.ar    1  UNL1        0.0015
     37 O         -23.5313    3.0522   25.4102 O.3     1  UNL1        0.0285
     38 N         -21.2129    0.9171   28.6486 N.2     1  UNL1       -0.0240
     39 N         -24.6886   -0.0311   29.1732 N.ar    1  UNL1       -0.3215
     40 C         -23.5287    0.4466   28.7637 C.ar    1  UNL1        0.1546
@<TRIPOS>BOND
     1     1     2    1
     2     2     7    1
     3     3     2    2
     4     4     3    1
     5     4     5    2
     6     5     6    1
     7     6     7    2
     8     8     1    1
     9     8     9    1
    10     8    12    1
    11     9    10    1
    12    10    11    1
    13    12    11    1
    14    13    36    1
    15    14    13    1
    16    14    15    1
    17    15    18    2
    18    16    17    1
    19    16    15    1
    20    19    14    2
    21    20    21    2
    22    20    19    1
    23    21    26    1
    24    22    21    1
    25    23    22    1
    26    24    23    1
    27    24    25    1
    28    26    27    1
    29    26    13    1
    30    28    38    1
    31    30    28    2
    32    30    32    1
    33    32    40   ar
    34    33    29    1
    35    34    30    1
    36    35    31    1
    37    35    39   ar
    38    36    32   ar
    39    36    35   ar
    40    37    34    1
    41    38    33    2
    42    39     1    1
    43    40    39   ar
    44    40    33    1
