@<TRIPOS>MOLECULE
outputs/IAG933/test6/raw/output_5117_IAG933_linker_design_.xyz
 41 45 0 0 0
SMALL
GASTEIGER

@<TRIPOS>ATOM
      1 C         -24.8550   -1.0120   30.1430 C.3     1  UNL1        0.0732
      2 C         -24.9730   -2.5050   29.7880 C.2     1  UNL1       -0.0183
      3 C         -23.9060   -3.1730   29.1460 C.2     1  UNL1       -0.0041
      4 C         -23.9890   -4.5490   28.8530 C.2     1  UNL1       -0.0003
      5 C         -25.1370   -5.2800   29.2050 C.2     1  UNL1       -0.0000
      6 C         -26.2320   -4.6110   29.7840 C.2     1  UNL1       -0.0003
      7 C         -26.1550   -3.2320   30.0650 C.2     1  UNL1       -0.0041
      8 C         -25.3870   -0.6790   31.5710 C.3     1  UNL1        0.0796
      9 C         -25.1890    0.7730   32.0280 C.3     1  UNL1        0.0193
     10 C         -25.3360    0.6840   33.5440 C.3     1  UNL1        0.0202
     11 C         -24.8290   -0.7150   33.9050 C.3     1  UNL1        0.0887
     12 N         -24.7580   -1.4810   32.6460 N.3     1  UNL1       -0.2190
     13 C         -25.6880    1.6140   26.4610 C.2     1  UNL1        0.0402
     14 C         -26.2500    2.9200   26.3950 C.2     1  UNL1        0.0766
     15 C         -25.6420    4.0930   27.1230 C.2     1  UNL1        0.2664
     16 N         -25.6140    5.2520   26.4490 N.am    1  UNL1       -0.1997
     17 C         -25.0260    6.4790   26.9630 C.3     1  UNL1        0.1388
     18 O         -25.1430    3.9660   28.2430 O.2     1  UNL1       -0.2683
     19 C         -27.4380    3.0910   25.6450 C.2     1  UNL1        0.1067
     20 N         -28.0750    2.0890   25.0030 N.2     1  UNL1       -0.2081
     21 C         -27.5430    0.8490   25.0790 C.2     1  UNL1        0.2533
     22 O         -28.1930   -0.2080   24.4770 O.2     1  UNL1       -0.4558
     23 C         -29.4600    0.0050   23.8660 C.3     1  UNL1        0.2426
     24 C         -30.0650   -1.3770   23.5730 C.3     1  UNL1        0.2292
     25 O         -30.7290   -1.8780   24.7210 O.3     1  UNL1       -0.2162
     26 C         -26.3540    0.5760   25.7770 C.2     1  UNL1        0.1931
     27 F         -25.8600   -0.6810   25.7950 F       1  UNL1       -0.1992
     28 C         -23.2745    1.8287   26.5102 C.ar    1  UNL1        0.1670
     29 C         -23.0079    0.2170   28.7255 C.ar    1  UNL1        0.1353
     30 C         -25.4736    0.0231   29.1027 C.3     1  UNL1        0.1855
     31 C         -24.4114    1.3070   27.1169 C.ar    1  UNL1        0.0335
     32 O         -22.5961   -0.5767   29.7767 O.3     1  UNL1       -0.4756
     33 F         -21.0403    2.0563   26.2693 F       1  UNL1       -0.2020
     34 C         -21.2342   -0.7030   29.5618 C.3     1  UNL1        0.2102
     35 C         -21.8770    0.6810   28.0910 C.ar    1  UNL1        0.0449
     36 C         -20.7588    0.0201   28.7593 C.3     1  UNL1        0.0791
     37 C         -24.3068    0.5041   28.2686 C.ar    1  UNL1        0.0442
     38 F         -23.3233    2.6559   25.4920 F       1  UNL1       -0.2018
     39 O         -27.7330   -0.5322   29.2832 O.3     1  UNL1       -0.0344
     40 O         -26.8084   -0.0271   28.5287 O.3     1  UNL1       -0.1867
     41 C         -22.0286    1.5122   26.9673 C.ar    1  UNL1        0.1664
@<TRIPOS>BOND
     1     1    30    1
     2     2     7    1
     3     2     1    1
     4     3     2    2
     5     4     3    1
     6     4     5    2
     7     5     6    1
     8     6     7    2
     9     8     1    1
    10     8     9    1
    11     8    12    1
    12     9    10    1
    13    10    11    1
    14    12    11    1
    15    13    31    1
    16    14    13    1
    17    14    15    1
    18    15    18    2
    19    16    17    1
    20    16    15    1
    21    19    14    2
    22    20    21    2
    23    20    19    1
    24    21    26    1
    25    22    21    1
    26    23    22    1
    27    24    23    1
    28    24    25    1
    29    26    27    1
    30    26    13    2
    31    28    41   ar
    32    28    31   ar
    33    29    32    1
    34    30    40    1
    35    31    37   ar
    36    33    41    1
    37    34    32    1
    38    35    29   ar
    39    35    36    1
    40    36    34    1
    41    37    29   ar
    42    37    30    1
    43    38    28    1
    44    40    39    1
    45    41    35   ar
