@<TRIPOS>MOLECULE
outputs/IAG933/test6/raw/output_5118_IAG933_linker_design_.xyz
 48 53 0 0 0
SMALL
GASTEIGER

@<TRIPOS>ATOM
      1 C         -24.8550   -1.0120   30.1430 C.3     1  UNL1        0.0439
      2 C         -24.9730   -2.5050   29.7880 C.2     1  UNL1       -0.0210
      3 C         -23.9060   -3.1730   29.1460 C.2     1  UNL1       -0.0042
      4 C         -23.9890   -4.5490   28.8530 C.2     1  UNL1       -0.0003
      5 C         -25.1370   -5.2800   29.2050 C.2     1  UNL1       -0.0000
      6 C         -26.2320   -4.6110   29.7840 C.2     1  UNL1       -0.0003
      7 C         -26.1550   -3.2320   30.0650 C.2     1  UNL1       -0.0042
      8 C         -25.3870   -0.6790   31.5710 C.3     1  UNL1        0.0770
      9 C         -25.1890    0.7730   32.0280 C.3     1  UNL1        0.0192
     10 C         -25.3360    0.6840   33.5440 C.3     1  UNL1        0.0202
     11 C         -24.8290   -0.7150   33.9050 C.3     1  UNL1        0.0887
     12 N         -24.7580   -1.4810   32.6460 N.3     1  UNL1       -0.2191
     13 C         -25.6880    1.6140   26.4610 C.2     1  UNL1        0.0407
     14 C         -26.2500    2.9200   26.3950 C.2     1  UNL1        0.0744
     15 C         -25.6420    4.0930   27.1230 C.2     1  UNL1        0.2219
     16 N         -25.6140    5.2520   26.4490 N.2     1  UNL1       -0.2357
     17 C         -25.0260    6.4790   26.9630 C.3     1  UNL1        0.1550
     18 O         -25.1430    3.9660   28.2430 O.2     1  UNL1       -0.4621
     19 C         -27.4380    3.0910   25.6450 C.2     1  UNL1        0.1068
     20 N         -28.0750    2.0890   25.0030 N.2     1  UNL1       -0.2081
     21 C         -27.5430    0.8490   25.0790 C.2     1  UNL1        0.2533
     22 O         -28.1930   -0.2080   24.4770 O.2     1  UNL1       -0.4558
     23 C         -29.4600    0.0050   23.8660 C.3     1  UNL1        0.2426
     24 C         -30.0650   -1.3770   23.5730 C.3     1  UNL1        0.2292
     25 O         -30.7290   -1.8780   24.7210 O.3     1  UNL1       -0.2162
     26 C         -26.3540    0.5760   25.7770 C.2     1  UNL1        0.1931
     27 F         -25.8600   -0.6810   25.7950 F       1  UNL1       -0.1992
     28 N         -23.2794    2.1603   28.2343 N.2     1  UNL1       -0.2258
     29 N         -27.5612    4.9816   29.7394 N.am    1  UNL1       -0.2720
     30 C         -26.6209    4.1185   30.2631 C.3     1  UNL1        0.1019
     31 C         -22.3359    1.4313   27.9269 C.2     1  UNL1        0.2850
     32 C         -26.2063    2.7672   29.9732 C.3     1  UNL1        0.0700
     33 C         -23.8226    0.0205   29.6565 C.3     1  UNL1        0.0753
     34 C         -27.5005    6.1992   30.3700 C.2     1  UNL1        0.2516
     35 O         -21.7551    0.4319   28.5999 O.2     1  UNL1       -0.4524
     36 C         -24.9666    4.4300   32.2912 C.2     1  UNL1        0.0182
     37 C         -25.2857    2.7785   29.1860 C.3     1  UNL1        0.1919
     38 C         -25.2890    8.3246   31.3090 C.3     1  UNL1        0.0720
     39 C         -22.4621   -0.2714   29.5435 C.3     1  UNL1        0.2103
     40 C         -24.5640    5.3352   33.2851 C.3     1  UNL1        0.2310
     41 C         -28.6872    4.6488   28.7878 C.3     1  UNL1        0.1154
     42 C         -26.3472    6.0844   31.3052 C.2     1  UNL1        0.0807
     43 CL        -21.6456    1.8942   26.3893 Cl      1  UNL1       -0.0223
     44 C         -24.1764    1.6315   29.1860 C.3     1  UNL1        0.1510
     45 C         -25.9246    4.8250   31.3402 C.2     1  UNL1        0.0022
     46 C         -25.6288    6.9731   31.9808 C.2     1  UNL1        0.1210
     47 O         -28.1982    7.1742   30.2140 O.2     1  UNL1       -0.2698
     48 O         -24.9698    6.6294   33.1503 O.2     1  UNL1       -0.4748
@<TRIPOS>BOND
     1     1     2    1
     2     2     7    1
     3     3     2    2
     4     4     3    1
     5     4     5    2
     6     5     6    1
     7     6     7    2
     8     8     1    1
     9     8     9    1
    10     8    12    1
    11     9    10    1
    12    10    11    1
    13    12    11    1
    14    14    13    1
    15    14    15    1
    16    15    18    1
    17    16    17    1
    18    16    15    2
    19    18    37    1
    20    19    14    2
    21    20    21    2
    22    20    19    1
    23    21    26    1
    24    22    21    1
    25    23    22    1
    26    24    23    1
    27    24    25    1
    28    26    27    1
    29    26    13    2
    30    28    44    1
    31    29    30    1
    32    29    34   am
    33    30    32    1
    34    30    45    1
    35    31    28    2
    36    31    35    1
    37    33     1    1
    38    34    42    1
    39    35    39    1
    40    36    40    1
    41    37    32    1
    42    38    46    1
    43    39    33    1
    44    41    29    1
    45    42    45    1
    46    42    46    2
    47    43    31    1
    48    44    37    1
    49    44    33    1
    50    45    36    2
    51    46    48    1
    52    47    34    2
    53    48    40    1
