@<TRIPOS>MOLECULE
outputs/IAG933/test6/raw/output_5123_IAG933_linker_design_.xyz
 44 47 0 0 0
SMALL
GASTEIGER

@<TRIPOS>ATOM
      1 C         -24.8550   -1.0120   30.1430 C.3     1  UNL1        0.2045
      2 C         -24.9730   -2.5050   29.7880 C.2     1  UNL1        0.0186
      3 C         -23.9060   -3.1730   29.1460 C.2     1  UNL1       -0.0008
      4 C         -23.9890   -4.5490   28.8530 C.2     1  UNL1       -0.0002
      5 C         -25.1370   -5.2800   29.2050 C.2     1  UNL1       -0.0000
      6 C         -26.2320   -4.6110   29.7840 C.2     1  UNL1       -0.0002
      7 C         -26.1550   -3.2320   30.0650 C.2     1  UNL1       -0.0008
      8 C         -25.3870   -0.6790   31.5710 C.3     1  UNL1        0.1256
      9 C         -25.1890    0.7730   32.0280 C.3     1  UNL1        0.0995
     10 C         -25.3360    0.6840   33.5440 C.3     1  UNL1        0.0295
     11 C         -24.8290   -0.7150   33.9050 C.3     1  UNL1        0.0893
     12 N         -24.7580   -1.4810   32.6460 N.3     1  UNL1       -0.2149
     13 C         -25.6880    1.6140   26.4610 C.2     1  UNL1        0.0420
     14 C         -26.2500    2.9200   26.3950 C.2     1  UNL1        0.0767
     15 C         -25.6420    4.0930   27.1230 C.2     1  UNL1        0.2664
     16 N         -25.6140    5.2520   26.4490 N.am    1  UNL1       -0.1997
     17 C         -25.0260    6.4790   26.9630 C.3     1  UNL1        0.1388
     18 O         -25.1430    3.9660   28.2430 O.2     1  UNL1       -0.2683
     19 C         -27.4380    3.0910   25.6450 C.2     1  UNL1        0.1067
     20 N         -28.0750    2.0890   25.0030 N.2     1  UNL1       -0.2081
     21 C         -27.5430    0.8490   25.0790 C.2     1  UNL1        0.2533
     22 O         -28.1930   -0.2080   24.4770 O.2     1  UNL1       -0.4558
     23 C         -29.4600    0.0050   23.8660 C.3     1  UNL1        0.2426
     24 C         -30.0650   -1.3770   23.5730 C.3     1  UNL1        0.2292
     25 O         -30.7290   -1.8780   24.7210 O.3     1  UNL1       -0.2162
     26 C         -26.3540    0.5760   25.7770 C.2     1  UNL1        0.1932
     27 F         -25.8600   -0.6810   25.7950 F       1  UNL1       -0.1992
     28 C         -24.4583    1.2786   27.1194 C.ar    1  UNL1        0.0525
     29 C         -24.8956    3.8411   32.2287 C.3     1  UNL1        0.1152
     30 N         -25.0314    3.0136   31.1082 N.am    1  UNL1       -0.2054
     31 O         -27.0177    2.0819   31.0541 O.2     1  UNL1       -0.2733
     32 C         -19.7784    2.6990   27.7735 C.3     1  UNL1        0.2527
     33 C         -22.8967    0.3379   28.6258 C.ar    1  UNL1        0.2155
     34 C         -24.2199    0.5157   28.2927 C.ar    1  UNL1        0.1704
     35 O         -20.6167    0.4155   28.3000 O.3     1  UNL1       -0.2808
     36 O         -25.2182   -0.0319   29.0577 O.3     1  UNL1       -0.4709
     37 C         -21.8830    0.8576   27.9263 C.ar    1  UNL1        0.2603
     38 C         -25.8734    2.0145   31.3627 C.2     1  UNL1        0.2424
     39 C         -23.2709    1.7456   26.4466 C.ar    1  UNL1        0.0979
     40 CL        -23.2936    2.1269   24.7317 Cl      1  UNL1       -0.0789
     41 C         -22.0356    1.7472   27.1324 C.ar    1  UNL1        0.1903
     42 O         -21.0889    2.7941   27.0888 O.3     1  UNL1       -0.4673
     43 F         -22.2590   -0.2553   29.5793 F       1  UNL1       -0.1974
     44 C         -26.0825    4.3679   32.8395 C.3     1  UNL1        0.0252
@<TRIPOS>BOND
     1     1    36    1
     2     2     7    1
     3     2     1    1
     4     3     2    2
     5     4     3    1
     6     4     5    2
     7     5     6    1
     8     6     7    2
     9     8     1    1
    10     8     9    1
    11     8    12    1
    12     9    38    1
    13     9    10    1
    14    10    11    1
    15    12    11    1
    16    13    28    1
    17    14    13    1
    18    14    15    1
    19    15    18    2
    20    16    17    1
    21    16    15    1
    22    19    14    2
    23    20    21    2
    24    20    19    1
    25    21    26    1
    26    22    21    1
    27    23    22    1
    28    24    23    1
    29    24    25    1
    30    26    27    1
    31    26    13    2
    32    28    34   ar
    33    29    44    1
    34    30    38    1
    35    30    29    1
    36    31    38    2
    37    33    43    1
    38    34    33   ar
    39    34    36    1
    40    37    35    1
    41    37    33   ar
    42    39    28   ar
    43    39    41   ar
    44    40    39    1
    45    41    37   ar
    46    42    41    1
    47    42    32    1
