@<TRIPOS>MOLECULE
outputs/IAG933/test6/raw/output_5124_IAG933_linker_design_.xyz
 49 53 0 0 0
SMALL
GASTEIGER

@<TRIPOS>ATOM
      1 C         -24.8550   -1.0120   30.1430 C.3     1  UNL1        0.0972
      2 C         -24.9730   -2.5050   29.7880 C.2     1  UNL1       -0.0064
      3 C         -23.9060   -3.1730   29.1460 C.2     1  UNL1       -0.0029
      4 C         -23.9890   -4.5490   28.8530 C.2     1  UNL1       -0.0003
      5 C         -25.1370   -5.2800   29.2050 C.2     1  UNL1       -0.0000
      6 C         -26.2320   -4.6110   29.7840 C.2     1  UNL1       -0.0003
      7 C         -26.1550   -3.2320   30.0650 C.2     1  UNL1       -0.0029
      8 C         -25.3870   -0.6790   31.5710 C.3     1  UNL1        0.0916
      9 C         -25.1890    0.7730   32.0280 C.3     1  UNL1        0.0206
     10 C         -25.3360    0.6840   33.5440 C.3     1  UNL1        0.0203
     11 C         -24.8290   -0.7150   33.9050 C.3     1  UNL1        0.0888
     12 N         -24.7580   -1.4810   32.6460 N.3     1  UNL1       -0.2178
     13 C         -25.6880    1.6140   26.4610 C.3     1  UNL1        0.1297
     14 C         -26.2500    2.9200   26.3950 C.2     1  UNL1        0.0696
     15 C         -25.6420    4.0930   27.1230 C.2     1  UNL1        0.2637
     16 N         -25.6140    5.2520   26.4490 N.am    1  UNL1       -0.2000
     17 C         -25.0260    6.4790   26.9630 C.3     1  UNL1        0.1388
     18 O         -25.1430    3.9660   28.2430 O.2     1  UNL1       -0.2686
     19 C         -27.4380    3.0910   25.6450 C.2     1  UNL1        0.1035
     20 N         -28.0750    2.0890   25.0030 N.2     1  UNL1       -0.2118
     21 C         -27.5430    0.8490   25.0790 C.2     1  UNL1        0.2355
     22 O         -28.1930   -0.2080   24.4770 O.2     1  UNL1       -0.4585
     23 C         -29.4600    0.0050   23.8660 C.3     1  UNL1        0.2423
     24 C         -30.0650   -1.3770   23.5730 C.3     1  UNL1        0.2292
     25 O         -30.7290   -1.8780   24.7210 O.3     1  UNL1       -0.2162
     26 C         -26.3540    0.5760   25.7770 C.3     1  UNL1        0.2546
     27 F         -25.8600   -0.6810   25.7950 F       1  UNL1       -0.2254
     28 C         -27.7374   -0.1974   28.9706 C.3     1  UNL1        0.0373
     29 N         -29.0582    0.4589   31.3426 N.am    1  UNL1       -0.2447
     30 C         -29.6575   -0.8997   31.2834 C.3     1  UNL1        0.0969
     31 N         -24.7764    1.2421   27.4104 N.3     1  UNL1       -0.2470
     32 C         -23.6180    0.8729   27.2617 C.3     1  UNL1        0.1785
     33 O         -22.8728    2.2971   25.5261 O.2     1  UNL1       -0.2575
     34 C         -26.3897   -0.1248   28.6510 C.3     1  UNL1        0.0752
     35 C         -30.0301   -1.1063   29.8160 C.3     1  UNL1        0.0242
     36 C         -22.5893    0.6185   29.5667 C.3     1  UNL1        0.0348
     37 C         -23.9827    0.7550   28.6208 C.3     1  UNL1        0.1172
     38 O         -29.2404    0.6710   33.6495 O.co2   1  UNL1       -0.2223
     39 N         -25.0217   -0.0286   29.0735 N.3     1  UNL1       -0.2581
     40 F         -21.4702    1.6943   27.0433 F       1  UNL1       -0.1620
     41 C         -29.7713    1.4096   29.3697 C.3     1  UNL1        0.0225
     42 C         -29.0881    1.2285   32.4961 C.2     1  UNL1        0.4472
     43 O         -28.9455    2.4649   32.3327 O.co2   1  UNL1       -0.2223
     44 C         -32.1929    1.1234   26.0896 C.3     1  UNL1        0.1741
     45 C         -30.8341    0.0148   27.6291 C.3     1  UNL1        0.1423
     46 C         -30.5894    0.1305   29.1429 C.3     1  UNL1        0.0330
     47 C         -22.6439    1.6632   26.5754 C.2     1  UNL1        0.3275
     48 C         -28.4518    0.8607   29.9864 C.3     1  UNL1        0.0801
     49 O         -32.1017    0.6433   27.4110 O.3     1  UNL1       -0.3511
@<TRIPOS>BOND
     1     1    39    1
     2     2     7    1
     3     2     1    1
     4     3     2    2
     5     4     3    1
     6     4     5    2
     7     5     6    1
     8     6     7    2
     9     8     1    1
    10     8     9    1
    11     8    12    1
    12     9    10    1
    13    10    11    1
    14    12    11    1
    15    13    14    1
    16    14    15    1
    17    15    18    2
    18    16    17    1
    19    16    15    1
    20    19    14    2
    21    20    21    2
    22    20    19    1
    23    21    26    1
    24    22    21    1
    25    23    22    1
    26    24    23    1
    27    24    25    1
    28    26    27    1
    29    26    13    1
    30    29    42   am
    31    30    29    1
    32    31    13    1
    33    31    37    1
    34    32    47    1
    35    32    31    1
    36    32    37    1
    37    33    47    2
    38    34    28    1
    39    34    39    1
    40    35    30    1
    41    37    39    1
    42    37    36    1
    43    41    48    1
    44    42    38   ar
    45    43    42   ar
    46    44    49    1
    47    46    45    1
    48    46    41    1
    49    46    35    1
    50    47    40    1
    51    48    28    1
    52    48    29    1
    53    49    45    1
