@<TRIPOS>MOLECULE
outputs/IAG933/test6/raw/output_5128_IAG933_linker_design_.xyz
 45 49 0 0 0
SMALL
GASTEIGER

@<TRIPOS>ATOM
      1 C         -24.8550   -1.0120   30.1430 C.3     1  UNL1        0.1116
      2 C         -24.9730   -2.5050   29.7880 C.2     1  UNL1       -0.0030
      3 C         -23.9060   -3.1730   29.1460 C.2     1  UNL1       -0.0026
      4 C         -23.9890   -4.5490   28.8530 C.2     1  UNL1       -0.0003
      5 C         -25.1370   -5.2800   29.2050 C.2     1  UNL1       -0.0000
      6 C         -26.2320   -4.6110   29.7840 C.2     1  UNL1       -0.0003
      7 C         -26.1550   -3.2320   30.0650 C.2     1  UNL1       -0.0026
      8 C         -25.3870   -0.6790   31.5710 C.3     1  UNL1        0.0950
      9 C         -25.1890    0.7730   32.0280 C.3     1  UNL1        0.0209
     10 C         -25.3360    0.6840   33.5440 C.3     1  UNL1        0.0203
     11 C         -24.8290   -0.7150   33.9050 C.3     1  UNL1        0.0888
     12 N         -24.7580   -1.4810   32.6460 N.3     1  UNL1       -0.2174
     13 C         -25.6880    1.6140   26.4610 C.2     1  UNL1        0.0402
     14 C         -26.2500    2.9200   26.3950 C.2     1  UNL1        0.0766
     15 C         -25.6420    4.0930   27.1230 C.2     1  UNL1        0.2664
     16 N         -25.6140    5.2520   26.4490 N.am    1  UNL1       -0.1997
     17 C         -25.0260    6.4790   26.9630 C.3     1  UNL1        0.1388
     18 O         -25.1430    3.9660   28.2430 O.2     1  UNL1       -0.2683
     19 C         -27.4380    3.0910   25.6450 C.2     1  UNL1        0.1067
     20 N         -28.0750    2.0890   25.0030 N.2     1  UNL1       -0.2081
     21 C         -27.5430    0.8490   25.0790 C.2     1  UNL1        0.2533
     22 O         -28.1930   -0.2080   24.4770 O.2     1  UNL1       -0.4558
     23 C         -29.4600    0.0050   23.8660 C.3     1  UNL1        0.2426
     24 C         -30.0650   -1.3770   23.5730 C.3     1  UNL1        0.2292
     25 O         -30.7290   -1.8780   24.7210 O.3     1  UNL1       -0.2162
     26 C         -26.3540    0.5760   25.7770 C.2     1  UNL1        0.1931
     27 F         -25.8600   -0.6810   25.7950 F       1  UNL1       -0.1992
     28 C         -26.9270   -0.5420   28.4562 C.3     1  UNL1        0.1181
     29 C         -29.1845   -1.2931   29.3972 C.2     1  UNL1        0.0270
     30 C         -28.1538   -0.3307   29.2691 C.2     1  UNL1       -0.0002
     31 C         -29.1225    0.9891   31.0641 C.2     1  UNL1        0.0020
     32 N         -25.3490   -0.2335   28.9226 N.pl3   1  UNL1       -0.2982
     33 C         -23.2471    1.8108   26.3421 C.2     1  UNL1        0.0613
     34 F         -30.7940   -2.2500   30.8115 F       1  UNL1       -0.2042
     35 F         -22.4379   -0.5575   29.5161 F       1  UNL1       -0.2005
     36 C         -21.7958    0.8851   27.9219 C.2     1  UNL1        0.1695
     37 C         -30.0054   -1.1894   30.5305 C.2     1  UNL1        0.1399
     38 F         -20.5495    0.7145   28.3026 F       1  UNL1       -0.2017
     39 C         -22.9209    0.2301   28.5988 C.2     1  UNL1        0.1806
     40 C         -28.2223    0.8613   30.0009 C.2     1  UNL1       -0.0025
     41 C         -24.2416    0.3713   28.1940 C.2     1  UNL1        0.0793
     42 CL        -23.3707    2.6574   24.8218 Cl      1  UNL1       -0.0821
     43 C         -21.9690    1.7083   26.8763 C.2     1  UNL1        0.0434
     44 C         -24.4164    1.1971   27.0450 C.2     1  UNL1        0.0288
     45 C         -29.9692   -0.0854   31.3959 C.2     1  UNL1        0.0296
@<TRIPOS>BOND
     1     1    32    1
     2     2     7    1
     3     2     1    1
     4     3     2    2
     5     4     3    1
     6     4     5    2
     7     5     6    1
     8     6     7    2
     9     8     1    1
    10     8     9    1
    11     8    12    1
    12     9    10    1
    13    10    11    1
    14    12    11    1
    15    13    44    1
    16    14    13    1
    17    14    15    1
    18    15    18    2
    19    16    17    1
    20    16    15    1
    21    19    14    2
    22    20    21    2
    23    20    19    1
    24    21    26    1
    25    22    21    1
    26    23    22    1
    27    24    23    1
    28    24    25    1
    29    26    27    1
    30    26    13    2
    31    28    32    1
    32    28    30    1
    33    29    37    1
    34    30    29    2
    35    30    40    1
    36    31    45    1
    37    33    43    2
    38    33    44    1
    39    36    38    1
    40    36    39    2
    41    37    34    1
    42    37    45    2
    43    39    35    1
    44    40    31    2
    45    41    39    1
    46    41    32    1
    47    42    33    1
    48    43    36    1
    49    44    41    2
