@<TRIPOS>MOLECULE
No_513-gen_results/8p0m/2024-11-27-11-27-31/
 22 23 0 0 0
SMALL
GASTEIGER

@<TRIPOS>ATOM
      1 C         -28.0162   -0.8135   28.8779 C.3     1  UNL1        0.0539
      2 C         -27.0636   -0.1189   28.6079 C.ar    1  UNL1       -0.0025
      3 C         -27.0010    0.6913   27.4910 C.ar    1  UNL1        0.0671
      4 C         -25.8548    1.4825   27.0830 C.ar    1  UNL1        0.0228
      5 C         -24.6901    1.4526   27.8807 C.ar    1  UNL1        0.0810
      6 C         -24.7379    0.6010   29.0416 C.ar    1  UNL1        0.0063
      7 C         -25.8234   -0.1688   29.3887 C.ar    1  UNL1       -0.0024
      8 C         -28.7350   -0.4637   30.1419 C.ar    1  UNL1       -0.0177
      9 C         -28.7831    0.6118   30.5175 C.ar    1  UNL1       -0.0039
     10 C         -29.5935    0.9569   31.7959 C.ar    1  UNL1       -0.0003
     11 C         -30.1904   -0.1138   32.4264 C.ar    1  UNL1       -0.0000
     12 C         -29.4171   -1.5941   30.8826 C.ar    1  UNL1       -0.0039
     13 C         -30.1029   -1.3710   32.0011 C.ar    1  UNL1       -0.0003
     14 C         -23.4918    2.1599   27.5605 C.2     1  UNL1        0.3878
     15 O         -22.6180    1.6918   27.1684 O.co2   1  UNL1       -0.2406
     16 O         -23.7068    3.5093   27.6062 O.co2   1  UNL1       -0.2406
     17 N         -28.0622    0.7998   26.6559 N.pl3   1  UNL1       -0.2115
     18 C         -28.0667    0.7838   25.3510 C.2     1  UNL1        0.0856
     19 C         -29.2690    0.5084   24.6651 C.2     1  UNL1        0.0175
     20 C         -29.6210   -0.5666   24.1863 C.2     1  UNL1       -0.0032
     21 C         -30.9106   -0.8896   23.6290 C.2     1  UNL1       -0.0257
     22 C         -31.7678    0.1731   23.3938 C.3     1  UNL1        0.0307
@<TRIPOS>BOND
     1     1     2    1
     2     1     8    1
     3     5    14    1
     4    14    15   ar
     5    14    16   ar
     6     3    17    1
     7    17    18    1
     8    18    19    2
     9    19    20    1
    10    20    21    2
    11    21    22    1
    12     2     3   ar
    13     3     4   ar
    14     4     5   ar
    15     5     6   ar
    16     6     7   ar
    17     7     2   ar
    18     8     9   ar
    19     9    10   ar
    20    10    11   ar
    21    11    13   ar
    22    13    12   ar
    23    12     8   ar
