@<TRIPOS>MOLECULE
outputs/IAG933/test6/raw/output_5146_IAG933_linker_design_.xyz
 41 44 0 0 0
SMALL
GASTEIGER

@<TRIPOS>ATOM
      1 C         -24.8550   -1.0120   30.1430 C.3     1  UNL1        0.2077
      2 C         -24.9730   -2.5050   29.7880 C.2     1  UNL1        0.0218
      3 C         -23.9060   -3.1730   29.1460 C.2     1  UNL1       -0.0004
      4 C         -23.9890   -4.5490   28.8530 C.2     1  UNL1       -0.0002
      5 C         -25.1370   -5.2800   29.2050 C.2     1  UNL1       -0.0000
      6 C         -26.2320   -4.6110   29.7840 C.2     1  UNL1       -0.0002
      7 C         -26.1550   -3.2320   30.0650 C.2     1  UNL1       -0.0004
      8 C         -25.3870   -0.6790   31.5710 C.3     1  UNL1        0.1203
      9 C         -25.1890    0.7730   32.0280 C.3     1  UNL1        0.0233
     10 C         -25.3360    0.6840   33.5440 C.3     1  UNL1        0.0204
     11 C         -24.8290   -0.7150   33.9050 C.3     1  UNL1        0.0889
     12 N         -24.7580   -1.4810   32.6460 N.3     1  UNL1       -0.2150
     13 C         -25.6880    1.6140   26.4610 C.3     1  UNL1        0.1029
     14 C         -26.2500    2.9200   26.3950 C.2     1  UNL1        0.0592
     15 C         -25.6420    4.0930   27.1230 C.2     1  UNL1        0.2628
     16 N         -25.6140    5.2520   26.4490 N.am    1  UNL1       -0.2000
     17 C         -25.0260    6.4790   26.9630 C.3     1  UNL1        0.1388
     18 O         -25.1430    3.9660   28.2430 O.2     1  UNL1       -0.2686
     19 C         -27.4380    3.0910   25.6450 C.2     1  UNL1        0.1025
     20 N         -28.0750    2.0890   25.0030 N.2     1  UNL1       -0.2118
     21 C         -27.5430    0.8490   25.0790 C.2     1  UNL1        0.2344
     22 O         -28.1930   -0.2080   24.4770 O.2     1  UNL1       -0.4585
     23 C         -29.4600    0.0050   23.8660 C.3     1  UNL1        0.2423
     24 C         -30.0650   -1.3770   23.5730 C.3     1  UNL1        0.2292
     25 O         -30.7290   -1.8780   24.7210 O.3     1  UNL1       -0.2162
     26 C         -26.3540    0.5760   25.7770 C.3     1  UNL1        0.2444
     27 F         -25.8600   -0.6810   25.7950 F       1  UNL1       -0.2265
     28 O         -27.1335   -0.2515   28.6215 O.2     1  UNL1       -0.2213
     29 C         -23.8905    0.6372   28.2878 C.2     1  UNL1        0.3767
     30 C         -26.6691    3.0034   29.9796 C.2     1  UNL1        0.2513
     31 C         -26.2271    0.5173   28.9622 C.2     1  UNL1        0.4216
     32 N         -26.3646    1.8313   29.1955 N.am    1  UNL1       -0.1049
     33 O         -21.3744    0.8789   28.2795 O.2     1  UNL1       -0.2289
     34 C         -21.8545    1.4279   27.2386 C.3     1  UNL1        0.4826
     35 O         -25.6761    3.4273   30.5812 O.2     1  UNL1       -0.2728
     36 N         -24.8836   -0.0236   29.0286 N.am    1  UNL1       -0.1182
     37 C         -23.1534    2.0732   26.1893 C.2     1  UNL1        0.1801
     38 C         -24.2502    1.4754   26.9381 C.2     1  UNL1        0.1086
     39 O         -21.9769    2.1027   26.0448 O.2     1  UNL1       -0.4317
     40 C         -28.0399    3.6185   29.9249 C.3     1  UNL1        0.0970
     41 N         -22.5065    0.5120   28.7699 N.2     1  UNL1        0.1590
@<TRIPOS>BOND
     1     1    36    1
     2     2     7    1
     3     2     1    1
     4     3     2    2
     5     4     3    1
     6     4     5    2
     7     5     6    1
     8     6     7    2
     9     8     1    1
    10     8     9    1
    11     8    12    1
    12     9    10    1
    13    10    11    1
    14    12    11    1
    15    13    38    1
    16    14    13    1
    17    14    15    1
    18    15    18    2
    19    16    17    1
    20    16    15    1
    21    19    14    2
    22    20    21    2
    23    20    19    1
    24    21    26    1
    25    22    21    1
    26    23    22    1
    27    24    23    1
    28    24    25    1
    29    26    27    1
    30    26    13    1
    31    28    31    2
    32    29    41    2
    33    29    36    1
    34    30    35    2
    35    31    36   am
    36    31    32    1
    37    32    30    1
    38    33    41    1
    39    34    33    1
    40    37    38    2
    41    38    29    1
    42    39    37    1
    43    39    34    1
    44    40    30    1
