@<TRIPOS>MOLECULE
outputs/IAG933/test6/raw/output_5147_IAG933_linker_design_.xyz
 48 52 0 0 0
SMALL
GASTEIGER

@<TRIPOS>ATOM
      1 C         -24.8550   -1.0120   30.1430 C.3     1  UNL1        0.0408
      2 C         -24.9730   -2.5050   29.7880 C.2     1  UNL1       -0.0211
      3 C         -23.9060   -3.1730   29.1460 C.2     1  UNL1       -0.0042
      4 C         -23.9890   -4.5490   28.8530 C.2     1  UNL1       -0.0003
      5 C         -25.1370   -5.2800   29.2050 C.2     1  UNL1       -0.0000
      6 C         -26.2320   -4.6110   29.7840 C.2     1  UNL1       -0.0003
      7 C         -26.1550   -3.2320   30.0650 C.2     1  UNL1       -0.0042
      8 C         -25.3870   -0.6790   31.5710 C.3     1  UNL1        0.0769
      9 C         -25.1890    0.7730   32.0280 C.3     1  UNL1        0.0192
     10 C         -25.3360    0.6840   33.5440 C.3     1  UNL1        0.0202
     11 C         -24.8290   -0.7150   33.9050 C.3     1  UNL1        0.0887
     12 N         -24.7580   -1.4810   32.6460 N.3     1  UNL1       -0.2191
     13 C         -25.6880    1.6140   26.4610 C.3     1  UNL1        0.0702
     14 C         -26.2500    2.9200   26.3950 C.2     1  UNL1        0.0548
     15 C         -25.6420    4.0930   27.1230 C.2     1  UNL1        0.2624
     16 N         -25.6140    5.2520   26.4490 N.am    1  UNL1       -0.2000
     17 C         -25.0260    6.4790   26.9630 C.3     1  UNL1        0.1388
     18 O         -25.1430    3.9660   28.2430 O.2     1  UNL1       -0.2687
     19 C         -27.4380    3.0910   25.6450 C.2     1  UNL1        0.1021
     20 N         -28.0750    2.0890   25.0030 N.2     1  UNL1       -0.2119
     21 C         -27.5430    0.8490   25.0790 C.2     1  UNL1        0.2341
     22 O         -28.1930   -0.2080   24.4770 O.2     1  UNL1       -0.4585
     23 C         -29.4600    0.0050   23.8660 C.3     1  UNL1        0.2423
     24 C         -30.0650   -1.3770   23.5730 C.3     1  UNL1        0.2292
     25 O         -30.7290   -1.8780   24.7210 O.3     1  UNL1       -0.2162
     26 C         -26.3540    0.5760   25.7770 C.3     1  UNL1        0.2400
     27 F         -25.8600   -0.6810   25.7950 F       1  UNL1       -0.2269
     28 C         -24.0670    1.2337   28.8986 C.3     1  UNL1        0.0029
     29 C         -23.3680    2.3071   25.4193 C.3     1  UNL1        0.0004
     30 C         -33.8210   -1.4012   30.2171 C.1     1  UNL1       -0.0142
     31 C         -23.3338    1.0016   27.6397 C.3     1  UNL1        0.0005
     32 C         -29.6906   -2.0346   30.3812 C.3     1  UNL1        0.0014
     33 O         -32.0256    1.7462   27.1974 O.2     1  UNL1       -0.4760
     34 C         -26.8699    0.0796   28.9280 C.3     1  UNL1        0.1525
     35 C         -24.2207    1.5758   26.5208 C.3     1  UNL1        0.0074
     36 C         -33.3779    1.5095   27.6614 C.3     1  UNL1        0.2519
     37 C         -32.8534   -1.3830   29.5143 C.1     1  UNL1       -0.0785
     38 C         -30.4651   -1.3011   29.3186 C.3     1  UNL1        0.0167
     39 C         -29.5061   -0.2791   28.8930 C.3     1  UNL1        0.0281
     40 C         -28.5246   -1.4866   30.4024 C.3     1  UNL1        0.0029
     41 O         -26.9960    1.4637   29.3665 O.3     1  UNL1       -0.2231
     42 C         -31.7548   -1.3024   28.6815 C.3     1  UNL1        0.0728
     43 C         -25.1898   -0.0154   28.9893 C.3     1  UNL1        0.0358
     44 C         -31.3038    0.6036   27.5844 C.2     1  UNL1        0.1129
     45 C         -28.2325   -0.7135   29.1486 C.3     1  UNL1        0.0346
     46 C         -21.8555    1.3969   27.5462 C.3     1  UNL1        0.0000
     47 C         -31.8626   -0.6397   27.4226 C.3     1  UNL1        0.0765
     48 C         -30.0667    0.7913   28.2687 C.2     1  UNL1        0.0060
@<TRIPOS>BOND
     1     1    43    1
     2     2     7    1
     3     2     1    1
     4     3     2    2
     5     4     3    1
     6     4     5    2
     7     5     6    1
     8     6     7    2
     9     8     1    1
    10     8     9    1
    11     8    12    1
    12     9    10    1
    13    10    11    1
    14    12    11    1
    15    13    35    1
    16    14    13    1
    17    14    15    1
    18    15    18    2
    19    16    17    1
    20    16    15    1
    21    19    14    2
    22    20    21    2
    23    20    19    1
    24    21    26    1
    25    22    21    1
    26    23    22    1
    27    24    23    1
    28    24    25    1
    29    26    27    1
    30    26    13    1
    31    31    46    1
    32    31    28    1
    33    32    40    1
    34    33    44    1
    35    33    36    1
    36    34    43    1
    37    34    41    1
    38    35    29    1
    39    35    31    1
    40    37    30    3
    41    38    32    1
    42    39    48    1
    43    39    45    1
    44    39    38    1
    45    42    38    1
    46    42    37    1
    47    43    28    1
    48    44    48    2
    49    45    34    1
    50    45    40    1
    51    47    44    1
    52    47    42    1
