@<TRIPOS>MOLECULE
outputs/IAG933/test6/raw/output_5148_IAG933_linker_design_.xyz
 44 47 0 0 0
SMALL
GASTEIGER

@<TRIPOS>ATOM
      1 C         -24.8550   -1.0120   30.1430 C.3     1  UNL1        0.0698
      2 C         -24.9730   -2.5050   29.7880 C.2     1  UNL1       -0.0184
      3 C         -23.9060   -3.1730   29.1460 C.2     1  UNL1       -0.0041
      4 C         -23.9890   -4.5490   28.8530 C.2     1  UNL1       -0.0003
      5 C         -25.1370   -5.2800   29.2050 C.2     1  UNL1       -0.0000
      6 C         -26.2320   -4.6110   29.7840 C.2     1  UNL1       -0.0003
      7 C         -26.1550   -3.2320   30.0650 C.2     1  UNL1       -0.0041
      8 C         -25.3870   -0.6790   31.5710 C.3     1  UNL1        0.0795
      9 C         -25.1890    0.7730   32.0280 C.3     1  UNL1        0.0193
     10 C         -25.3360    0.6840   33.5440 C.3     1  UNL1        0.0202
     11 C         -24.8290   -0.7150   33.9050 C.3     1  UNL1        0.0887
     12 N         -24.7580   -1.4810   32.6460 N.3     1  UNL1       -0.2190
     13 C         -25.6880    1.6140   26.4610 C.2     1  UNL1        0.0382
     14 C         -26.2500    2.9200   26.3950 C.2     1  UNL1        0.0765
     15 C         -25.6420    4.0930   27.1230 C.2     1  UNL1        0.2664
     16 N         -25.6140    5.2520   26.4490 N.am    1  UNL1       -0.1997
     17 C         -25.0260    6.4790   26.9630 C.3     1  UNL1        0.1388
     18 O         -25.1430    3.9660   28.2430 O.2     1  UNL1       -0.2683
     19 C         -27.4380    3.0910   25.6450 C.2     1  UNL1        0.1067
     20 N         -28.0750    2.0890   25.0030 N.2     1  UNL1       -0.2081
     21 C         -27.5430    0.8490   25.0790 C.2     1  UNL1        0.2533
     22 O         -28.1930   -0.2080   24.4770 O.2     1  UNL1       -0.4558
     23 C         -29.4600    0.0050   23.8660 C.3     1  UNL1        0.2426
     24 C         -30.0650   -1.3770   23.5730 C.3     1  UNL1        0.2292
     25 O         -30.7290   -1.8780   24.7210 O.3     1  UNL1       -0.2162
     26 C         -26.3540    0.5760   25.7770 C.2     1  UNL1        0.1930
     27 F         -25.8600   -0.6810   25.7950 F       1  UNL1       -0.1992
     28 O         -25.8028    0.9752   29.6291 O.3     1  UNL1       -0.3431
     29 C         -21.9734    1.6906   27.4569 C.ar    1  UNL1        0.1455
     30 C         -24.3449    1.2172   27.1568 C.ar    1  UNL1        0.0124
     31 O         -22.2948   -0.7749   29.6078 O.3     1  UNL1       -0.2871
     32 C         -22.9079    2.4248   25.6034 C.2     1  UNL1        0.3899
     33 C         -28.2720    0.6340   28.7366 C.2     1  UNL1        0.2396
     34 C         -23.1767    1.7234   26.7583 C.ar    1  UNL1        0.1069
     35 O         -21.6710    2.3760   25.0803 O.co2   1  UNL1       -0.2405
     36 C         -24.0907    0.3782   28.2890 C.ar    1  UNL1        0.0440
     37 C         -22.7589    0.0781   28.6328 C.ar    1  UNL1        0.1921
     38 C         -24.9685    0.0572   29.2393 C.3     1  UNL1        0.1463
     39 O         -23.7542    3.1984   25.0045 O.co2   1  UNL1       -0.2405
     40 C         -26.9811    1.4269   29.1599 C.3     1  UNL1        0.2142
     41 F         -20.9709    2.5412   27.3661 F       1  UNL1       -0.2042
     42 O         -28.1900   -0.5960   28.6314 O.2     1  UNL1       -0.2855
     43 C         -21.7865    0.6629   28.1455 C.ar    1  UNL1        0.0444
     44 C         -20.6281    0.2010   28.2388 C.3     1  UNL1        0.0367
@<TRIPOS>BOND
     1     1    38    1
     2     2     7    1
     3     2     1    1
     4     3     2    2
     5     4     3    1
     6     4     5    2
     7     5     6    1
     8     6     7    2
     9     8     1    1
    10     8     9    1
    11     8    12    1
    12     9    10    1
    13    10    11    1
    14    12    11    1
    15    13    30    1
    16    14    13    1
    17    14    15    1
    18    15    18    2
    19    16    17    1
    20    16    15    1
    21    19    14    2
    22    20    21    2
    23    20    19    1
    24    21    26    1
    25    22    21    1
    26    23    22    1
    27    24    23    1
    28    24    25    1
    29    26    27    1
    30    26    13    2
    31    29    43   ar
    32    30    36   ar
    33    32    34    1
    34    33    40    1
    35    34    30   ar
    36    34    29   ar
    37    35    32   ar
    38    36    37   ar
    39    36    38    1
    40    37    31    1
    41    38    28    1
    42    39    32   ar
    43    40    28    1
    44    41    29    1
    45    42    33    2
    46    43    44    1
    47    43    37   ar
