@<TRIPOS>MOLECULE
outputs/IAG933/test6/raw/output_5150_IAG933_linker_design_.xyz
 46 50 0 0 0
SMALL
GASTEIGER

@<TRIPOS>ATOM
      1 C         -24.8550   -1.0120   30.1430 C.3     1  UNL1        0.0585
      2 C         -24.9730   -2.5050   29.7880 C.2     1  UNL1       -0.0173
      3 C         -23.9060   -3.1730   29.1460 C.2     1  UNL1       -0.0039
      4 C         -23.9890   -4.5490   28.8530 C.2     1  UNL1       -0.0003
      5 C         -25.1370   -5.2800   29.2050 C.2     1  UNL1       -0.0000
      6 C         -26.2320   -4.6110   29.7840 C.2     1  UNL1       -0.0003
      7 C         -26.1550   -3.2320   30.0650 C.2     1  UNL1       -0.0039
      8 C         -25.3870   -0.6790   31.5710 C.3     1  UNL1        0.0806
      9 C         -25.1890    0.7730   32.0280 C.3     1  UNL1        0.0195
     10 C         -25.3360    0.6840   33.5440 C.3     1  UNL1        0.0203
     11 C         -24.8290   -0.7150   33.9050 C.3     1  UNL1        0.0887
     12 N         -24.7580   -1.4810   32.6460 N.3     1  UNL1       -0.2188
     13 C         -25.6880    1.6140   26.4610 C.3     1  UNL1        0.1439
     14 C         -26.2500    2.9200   26.3950 C.2     1  UNL1        0.0731
     15 C         -25.6420    4.0930   27.1230 C.2     1  UNL1        0.2640
     16 N         -25.6140    5.2520   26.4490 N.am    1  UNL1       -0.1999
     17 C         -25.0260    6.4790   26.9630 C.3     1  UNL1        0.1388
     18 O         -25.1430    3.9660   28.2430 O.2     1  UNL1       -0.2686
     19 C         -27.4380    3.0910   25.6450 C.2     1  UNL1        0.1038
     20 N         -28.0750    2.0890   25.0030 N.2     1  UNL1       -0.2118
     21 C         -27.5430    0.8490   25.0790 C.2     1  UNL1        0.2358
     22 O         -28.1930   -0.2080   24.4770 O.2     1  UNL1       -0.4585
     23 C         -29.4600    0.0050   23.8660 C.3     1  UNL1        0.2423
     24 C         -30.0650   -1.3770   23.5730 C.3     1  UNL1        0.2292
     25 O         -30.7290   -1.8780   24.7210 O.3     1  UNL1       -0.2162
     26 C         -26.3540    0.5760   25.7770 C.3     1  UNL1        0.2580
     27 F         -25.8600   -0.6810   25.7950 F       1  UNL1       -0.2251
     28 C         -27.0159    0.3941   28.6590 C.2     1  UNL1        0.2291
     29 C         -25.4308    0.6457   28.4217 C.3     1  UNL1        0.1624
     30 O         -29.3422    3.6133   31.4883 O.2     1  UNL1       -0.4787
     31 N         -24.8874    1.2049   27.2975 N.pl3   1  UNL1       -0.2930
     32 C         -29.4566    4.6777   33.7162 C.3     1  UNL1        0.0633
     33 C         -22.6421    1.0107   27.9129 C.2     1  UNL1       -0.0078
     34 O         -27.5535   -0.6011   28.5473 O.2     1  UNL1       -0.2808
     35 C         -27.8951    1.3457   29.0147 C.1     1  UNL1       -0.0635
     36 C         -23.6042    1.3462   26.9890 C.2     1  UNL1        0.0578
     37 C         -26.5808    4.1108   33.8716 C.3     1  UNL1        0.0293
     38 C         -28.7112    4.0659   32.6020 C.2     1  UNL1        0.1086
     39 C         -28.4385    2.3701   29.5740 C.2     1  UNL1        0.0612
     40 C         -21.2163    1.5259   27.7808 C.3     1  UNL1        0.0323
     41 C         -23.0533    0.2758   29.0325 C.2     1  UNL1       -0.0091
     42 C         -27.1152    3.5717   31.1943 C.3     1  UNL1        0.0735
     43 C         -30.5879    5.5130   33.1608 C.3     1  UNL1        0.0084
     44 C         -27.4441    3.9143   32.5722 C.2     1  UNL1       -0.0102
     45 C         -28.3121    3.2092   30.7065 C.3     1  UNL1        0.1991
     46 C         -24.4736    0.0115   29.2265 C.2     1  UNL1       -0.0136
@<TRIPOS>BOND
     1     1    46    1
     2     2     7    1
     3     2     1    1
     4     3     2    2
     5     4     3    1
     6     4     5    2
     7     5     6    1
     8     6     7    2
     9     8     1    1
    10     8     9    1
    11     8    12    1
    12     9    10    1
    13    10    11    1
    14    12    11    1
    15    13    31    1
    16    14    13    1
    17    14    15    1
    18    15    18    2
    19    16    17    1
    20    16    15    1
    21    19    14    2
    22    20    21    2
    23    20    19    1
    24    21    26    1
    25    22    21    1
    26    23    22    1
    27    24    23    1
    28    24    25    1
    29    26    27    1
    30    26    13    1
    31    28    35    2
    32    29    28    1
    33    29    46    1
    34    30    38    1
    35    31    29    1
    36    33    41    1
    37    34    28    1
    38    35    39    2
    39    36    31    1
    40    36    33    2
    41    38    32    1
    42    40    33    1
    43    41    46    2
    44    42    44    1
    45    43    32    1
    46    44    38    2
    47    44    37    1
    48    45    39    1
    49    45    42    1
    50    45    30    1
