@<TRIPOS>MOLECULE
outputs/IAG933/test6/raw/output_5151_IAG933_linker_design_.xyz
 42 45 0 0 0
SMALL
GASTEIGER

@<TRIPOS>ATOM
      1 C         -24.8550   -1.0120   30.1430 C.3     1  UNL1        0.1149
      2 C         -24.9730   -2.5050   29.7880 C.2     1  UNL1       -0.0125
      3 C         -23.9060   -3.1730   29.1460 C.2     1  UNL1       -0.0038
      4 C         -23.9890   -4.5490   28.8530 C.2     1  UNL1       -0.0003
      5 C         -25.1370   -5.2800   29.2050 C.2     1  UNL1       -0.0000
      6 C         -26.2320   -4.6110   29.7840 C.2     1  UNL1       -0.0003
      7 C         -26.1550   -3.2320   30.0650 C.2     1  UNL1       -0.0038
      8 C         -25.3870   -0.6790   31.5710 C.3     1  UNL1        0.0855
      9 C         -25.1890    0.7730   32.0280 C.3     1  UNL1        0.0197
     10 C         -25.3360    0.6840   33.5440 C.3     1  UNL1        0.0203
     11 C         -24.8290   -0.7150   33.9050 C.3     1  UNL1        0.0887
     12 N         -24.7580   -1.4810   32.6460 N.3     1  UNL1       -0.2186
     13 C         -25.6880    1.6140   26.4610 C.2     1  UNL1        0.0352
     14 C         -26.2500    2.9200   26.3950 C.2     1  UNL1        0.0723
     15 C         -25.6420    4.0930   27.1230 C.2     1  UNL1        0.2262
     16 N         -25.6140    5.2520   26.4490 N.2     1  UNL1       -0.2354
     17 C         -25.0260    6.4790   26.9630 C.3     1  UNL1        0.1550
     18 O         -25.1430    3.9660   28.2430 O.2     1  UNL1       -0.4393
     19 C         -27.4380    3.0910   25.6450 C.2     1  UNL1        0.1065
     20 N         -28.0750    2.0890   25.0030 N.2     1  UNL1       -0.2081
     21 C         -27.5430    0.8490   25.0790 C.2     1  UNL1        0.2530
     22 O         -28.1930   -0.2080   24.4770 O.2     1  UNL1       -0.4558
     23 C         -29.4600    0.0050   23.8660 C.3     1  UNL1        0.2426
     24 C         -30.0650   -1.3770   23.5730 C.3     1  UNL1        0.2292
     25 O         -30.7290   -1.8780   24.7210 O.3     1  UNL1       -0.2162
     26 C         -26.3540    0.5760   25.7770 C.2     1  UNL1        0.1907
     27 F         -25.8600   -0.6810   25.7950 F       1  UNL1       -0.1995
     28 C         -24.8918   -0.0960   28.8648 C.2     1  UNL1        0.2312
     29 CL        -22.8141    2.4390   25.2576 Cl      1  UNL1       -0.1094
     30 C         -21.6171    0.2776   28.3463 C.2     1  UNL1        0.3981
     31 O         -25.7684   -0.8001   27.9974 O.2     1  UNL1       -0.2745
     32 C         -22.9982    1.6642   26.8091 C.3     1  UNL1        0.1459
     33 C         -25.2705    3.2135   29.4148 C.2     1  UNL1        0.1404
     34 N         -24.5812    1.0560   28.5480 N.am    1  UNL1       -0.2687
     35 F         -20.6903    1.7541   27.0251 F       1  UNL1       -0.2236
     36 O         -20.4844   -0.3412   28.0617 O.co2   1  UNL1       -0.2426
     37 O         -22.4935   -0.3654   28.9128 O.co2   1  UNL1       -0.2426
     38 C         -21.8507    1.4345   27.7175 C.3     1  UNL1        0.2796
     39 C         -24.3974    1.3126   27.1454 C.3     1  UNL1        0.1190
     40 C         -24.5141    2.0476   29.4983 C.3     1  UNL1        0.1582
     41 C         -26.2482    3.6609   30.3754 C.2     1  UNL1        0.0089
     42 C         -27.1615    4.8424   30.3085 C.3     1  UNL1        0.0337
@<TRIPOS>BOND
     1     1    28    1
     2     2     7    1
     3     2     1    1
     4     3     2    2
     5     4     3    1
     6     4     5    2
     7     5     6    1
     8     6     7    2
     9     8     1    1
    10     8     9    1
    11     8    12    1
    12     9    10    1
    13    10    11    1
    14    12    11    1
    15    13    39    1
    16    14    13    1
    17    14    15    1
    18    15    18    1
    19    16    17    1
    20    16    15    2
    21    18    33    1
    22    19    14    2
    23    20    21    2
    24    20    19    1
    25    21    26    1
    26    22    21    1
    27    23    22    1
    28    24    23    1
    29    24    25    1
    30    26    27    1
    31    26    13    2
    32    30    37   ar
    33    31    28    2
    34    32    29    1
    35    32    38    1
    36    33    40    1
    37    33    41    2
    38    34    28   am
    39    34    40    1
    40    36    30   ar
    41    38    35    1
    42    38    30    1
    43    39    32    1
    44    39    34    1
    45    42    41    1
