@<TRIPOS>MOLECULE
outputs/IAG933/test6/raw/output_5152_IAG933_linker_design_.xyz
 41 45 0 0 0
SMALL
GASTEIGER

@<TRIPOS>ATOM
      1 C         -24.8550   -1.0120   30.1430 C.3     1  UNL1        0.0438
      2 C         -24.9730   -2.5050   29.7880 C.2     1  UNL1       -0.0208
      3 C         -23.9060   -3.1730   29.1460 C.2     1  UNL1       -0.0042
      4 C         -23.9890   -4.5490   28.8530 C.2     1  UNL1       -0.0003
      5 C         -25.1370   -5.2800   29.2050 C.2     1  UNL1       -0.0000
      6 C         -26.2320   -4.6110   29.7840 C.2     1  UNL1       -0.0003
      7 C         -26.1550   -3.2320   30.0650 C.2     1  UNL1       -0.0042
      8 C         -25.3870   -0.6790   31.5710 C.3     1  UNL1        0.0790
      9 C         -25.1890    0.7730   32.0280 C.3     1  UNL1        0.0447
     10 C         -25.3360    0.6840   33.5440 C.3     1  UNL1        0.0222
     11 C         -24.8290   -0.7150   33.9050 C.3     1  UNL1        0.0888
     12 N         -24.7580   -1.4810   32.6460 N.3     1  UNL1       -0.2191
     13 C         -25.6880    1.6140   26.4610 C.2     1  UNL1        0.0216
     14 C         -26.2500    2.9200   26.3950 C.2     1  UNL1        0.0728
     15 C         -25.6420    4.0930   27.1230 C.2     1  UNL1        0.2661
     16 N         -25.6140    5.2520   26.4490 N.am    1  UNL1       -0.1997
     17 C         -25.0260    6.4790   26.9630 C.3     1  UNL1        0.1388
     18 O         -25.1430    3.9660   28.2430 O.2     1  UNL1       -0.2683
     19 C         -27.4380    3.0910   25.6450 C.2     1  UNL1        0.1064
     20 N         -28.0750    2.0890   25.0030 N.2     1  UNL1       -0.2081
     21 C         -27.5430    0.8490   25.0790 C.2     1  UNL1        0.2530
     22 O         -28.1930   -0.2080   24.4770 O.2     1  UNL1       -0.4558
     23 C         -29.4600    0.0050   23.8660 C.3     1  UNL1        0.2426
     24 C         -30.0650   -1.3770   23.5730 C.3     1  UNL1        0.2292
     25 O         -30.7290   -1.8780   24.7210 O.3     1  UNL1       -0.2162
     26 C         -26.3540    0.5760   25.7770 C.2     1  UNL1        0.1893
     27 F         -25.8600   -0.6810   25.7950 F       1  UNL1       -0.1996
     28 C         -24.3870    1.5400   27.1203 C.3     1  UNL1        0.1051
     29 O         -24.6475    3.6670   31.8846 O.3     1  UNL1       -0.4434
     30 C         -25.3404    1.8282   30.8863 C.3     1  UNL1        0.1732
     31 N         -21.4998    1.2024   27.6746 N.2     1  UNL1        0.0047
     32 C         -22.1857    1.9906   26.7956 C.2     1  UNL1        0.3566
     33 N         -22.1359   -0.0398   29.5786 N.2     1  UNL1        0.1962
     34 N         -24.6443    1.4494   29.6555 N.3     1  UNL1       -0.1970
     35 C         -23.3030    2.2457   26.4958 C.3     1  UNL1        0.2772
     36 O         -26.5062    3.6496   30.4346 O.2     1  UNL1       -0.2486
     37 C         -25.0702    4.8180   32.6016 C.3     1  UNL1        0.2556
     38 C         -25.5783    3.0137   30.9911 C.2     1  UNL1        0.3331
     39 O         -22.2941    2.9014   25.9687 O.2     1  UNL1       -0.4342
     40 C         -22.4323    0.7160   28.5394 C.2     1  UNL1        0.4221
     41 C         -23.8831    1.1358   28.4451 C.3     1  UNL1        0.1979
@<TRIPOS>BOND
     1     2     7    1
     2     2     1    1
     3     3     2    2
     4     4     3    1
     5     4     5    2
     6     5     6    1
     7     6     7    2
     8     8     1    1
     9     8     9    1
    10     8    12    1
    11     9    30    1
    12     9    10    1
    13    10    11    1
    14    12    11    1
    15    14    13    1
    16    14    15    1
    17    15    18    2
    18    16    17    1
    19    16    15    1
    20    19    14    2
    21    20    21    2
    22    20    19    1
    23    21    26    1
    24    22    21    1
    25    23    22    1
    26    24    23    1
    27    24    25    1
    28    26    27    1
    29    26    13    2
    30    28    13    1
    31    28    41    1
    32    29    37    1
    33    30    34    1
    34    30    38    1
    35    31    40    1
    36    32    31    2
    37    35    39    1
    38    35    32    1
    39    35    28    1
    40    36    38    2
    41    38    29    1
    42    39    32    1
    43    40    33    2
    44    41    40    1
    45    41    34    1
