@<TRIPOS>MOLECULE
outputs/IAG933/test6/raw/output_5156_IAG933_linker_design_.xyz
 44 48 0 0 0
SMALL
GASTEIGER

@<TRIPOS>ATOM
      1 C         -24.8550   -1.0120   30.1430 C.3     1  UNL1        0.0466
      2 C         -24.9730   -2.5050   29.7880 C.2     1  UNL1       -0.0207
      3 C         -23.9060   -3.1730   29.1460 C.2     1  UNL1       -0.0042
      4 C         -23.9890   -4.5490   28.8530 C.2     1  UNL1       -0.0003
      5 C         -25.1370   -5.2800   29.2050 C.2     1  UNL1       -0.0000
      6 C         -26.2320   -4.6110   29.7840 C.2     1  UNL1       -0.0003
      7 C         -26.1550   -3.2320   30.0650 C.2     1  UNL1       -0.0042
      8 C         -25.3870   -0.6790   31.5710 C.3     1  UNL1        0.1042
      9 C         -25.1890    0.7730   32.0280 C.3     1  UNL1        0.1329
     10 C         -25.3360    0.6840   33.5440 C.3     1  UNL1        0.0498
     11 C         -24.8290   -0.7150   33.9050 C.3     1  UNL1        0.0913
     12 N         -24.7580   -1.4810   32.6460 N.3     1  UNL1       -0.2166
     13 C         -25.6880    1.6140   26.4610 C.2     1  UNL1        0.0423
     14 C         -26.2500    2.9200   26.3950 C.2     1  UNL1        0.0767
     15 C         -25.6420    4.0930   27.1230 C.2     1  UNL1        0.2664
     16 N         -25.6140    5.2520   26.4490 N.am    1  UNL1       -0.1997
     17 C         -25.0260    6.4790   26.9630 C.3     1  UNL1        0.1388
     18 O         -25.1430    3.9660   28.2430 O.2     1  UNL1       -0.2683
     19 C         -27.4380    3.0910   25.6450 C.2     1  UNL1        0.1067
     20 N         -28.0750    2.0890   25.0030 N.2     1  UNL1       -0.2081
     21 C         -27.5430    0.8490   25.0790 C.2     1  UNL1        0.2533
     22 O         -28.1930   -0.2080   24.4770 O.2     1  UNL1       -0.4558
     23 C         -29.4600    0.0050   23.8660 C.3     1  UNL1        0.2426
     24 C         -30.0650   -1.3770   23.5730 C.3     1  UNL1        0.2292
     25 O         -30.7290   -1.8780   24.7210 O.3     1  UNL1       -0.2162
     26 C         -26.3540    0.5760   25.7770 C.2     1  UNL1        0.1932
     27 F         -25.8600   -0.6810   25.7950 F       1  UNL1       -0.1992
     28 O         -25.0792    3.8187   32.3755 O.3     1  UNL1       -0.2198
     29 O         -29.3523    2.3481   30.2096 O.co2   1  UNL1       -0.2455
     30 O         -25.8407    1.6803   31.2053 O.3     1  UNL1       -0.3540
     31 C         -24.4524    1.3918   27.1976 C.2     1  UNL1        0.0543
     32 C         -24.4356    0.5845   28.3057 C.2     1  UNL1        0.0625
     33 C         -22.2117    1.0674   28.7612 C.2     1  UNL1        0.1017
     34 C         -22.1161    1.8799   27.6993 C.2     1  UNL1        0.0619
     35 O         -22.9847    2.5626   25.7271 O.2     1  UNL1       -0.2919
     36 O         -29.4599    4.2768   31.3434 O.co2   1  UNL1       -0.2455
     37 C         -23.2456    1.9852   26.8988 C.2     1  UNL1        0.1916
     38 C         -25.5145   -0.2501   28.9265 C.3     1  UNL1        0.0517
     39 F         -21.7294    2.3542   25.3711 F       1  UNL1        0.0138
     40 C         -26.4537    4.0327   31.9512 C.3     1  UNL1        0.1926
     41 N         -23.3533    0.4233   29.0563 N.2     1  UNL1       -0.2479
     42 C         -26.8119    2.6201   31.6539 C.3     1  UNL1        0.1592
     43 C         -28.8670    3.3411   30.7601 C.2     1  UNL1        0.3694
     44 C         -27.3654    3.6255   30.7324 C.3     1  UNL1        0.1656
@<TRIPOS>BOND
     1     1    38    1
     2     2     7    1
     3     2     1    1
     4     3     2    2
     5     4     3    1
     6     4     5    2
     7     5     6    1
     8     6     7    2
     9     8     1    1
    10     8     9    1
    11     8    12    1
    12     9    30    1
    13     9    10    1
    14    10    11    1
    15    12    11    1
    16    13    31    1
    17    14    13    1
    18    14    15    1
    19    15    18    2
    20    16    17    1
    21    16    15    1
    22    19    14    2
    23    20    21    2
    24    20    19    1
    25    21    26    1
    26    22    21    1
    27    23    22    1
    28    24    23    1
    29    24    25    1
    30    26    27    1
    31    26    13    2
    32    29    43   ar
    33    31    32    1
    34    32    38    1
    35    32    41    2
    36    33    41    1
    37    34    33    2
    38    35    37    1
    39    37    31    2
    40    37    34    1
    41    39    35    1
    42    40    28    1
    43    42    30    1
    44    42    40    1
    45    43    36   ar
    46    44    43    1
    47    44    42    1
    48    44    40    1
