@<TRIPOS>MOLECULE
outputs/IAG933/test6/raw/output_5157_IAG933_linker_design_.xyz
 42 46 0 0 0
SMALL
GASTEIGER

@<TRIPOS>ATOM
      1 C         -24.8550   -1.0120   30.1430 C.3     1  UNL1        0.1126
      2 C         -24.9730   -2.5050   29.7880 C.2     1  UNL1       -0.0051
      3 C         -23.9060   -3.1730   29.1460 C.2     1  UNL1       -0.0029
      4 C         -23.9890   -4.5490   28.8530 C.2     1  UNL1       -0.0003
      5 C         -25.1370   -5.2800   29.2050 C.2     1  UNL1       -0.0000
      6 C         -26.2320   -4.6110   29.7840 C.2     1  UNL1       -0.0003
      7 C         -26.1550   -3.2320   30.0650 C.2     1  UNL1       -0.0029
      8 C         -25.3870   -0.6790   31.5710 C.3     1  UNL1        0.0929
      9 C         -25.1890    0.7730   32.0280 C.3     1  UNL1        0.0206
     10 C         -25.3360    0.6840   33.5440 C.3     1  UNL1        0.0203
     11 C         -24.8290   -0.7150   33.9050 C.3     1  UNL1        0.0888
     12 N         -24.7580   -1.4810   32.6460 N.3     1  UNL1       -0.2177
     13 C         -25.6880    1.6140   26.4610 C.3     1  UNL1        0.0921
     14 C         -26.2500    2.9200   26.3950 C.2     1  UNL1        0.0589
     15 C         -25.6420    4.0930   27.1230 C.2     1  UNL1        0.2628
     16 N         -25.6140    5.2520   26.4490 N.am    1  UNL1       -0.2000
     17 C         -25.0260    6.4790   26.9630 C.3     1  UNL1        0.1388
     18 O         -25.1430    3.9660   28.2430 O.2     1  UNL1       -0.2686
     19 C         -27.4380    3.0910   25.6450 C.2     1  UNL1        0.1025
     20 N         -28.0750    2.0890   25.0030 N.2     1  UNL1       -0.2118
     21 C         -27.5430    0.8490   25.0790 C.2     1  UNL1        0.2344
     22 O         -28.1930   -0.2080   24.4770 O.2     1  UNL1       -0.4585
     23 C         -29.4600    0.0050   23.8660 C.3     1  UNL1        0.2423
     24 C         -30.0650   -1.3770   23.5730 C.3     1  UNL1        0.2292
     25 O         -30.7290   -1.8780   24.7210 O.3     1  UNL1       -0.2162
     26 C         -26.3540    0.5760   25.7770 C.3     1  UNL1        0.2440
     27 F         -25.8600   -0.6810   25.7950 F       1  UNL1       -0.2265
     28 C         -24.2435    1.5866   26.6751 C.2     1  UNL1       -0.0127
     29 O         -25.5333    3.8110   30.9028 O.3     1  UNL1       -0.3396
     30 O         -21.5189    1.8776   26.9909 O.2     1  UNL1       -0.4563
     31 C         -23.4072    1.9523   25.5523 C.2     1  UNL1        0.0168
     32 C         -27.7196    3.5663   32.0063 C.3     1  UNL1        0.0362
     33 C         -27.5940    2.7576   30.6477 C.3     1  UNL1        0.0507
     34 N         -25.7963    1.8804   29.5586 N.3     1  UNL1       -0.1714
     35 C         -26.3145    2.8718   30.3070 C.3     1  UNL1        0.1907
     36 C         -22.0607    2.1489   25.8156 C.3     1  UNL1        0.2330
     37 N         -23.9879   -0.2728   29.5755 N.3     1  UNL1       -0.1937
     38 N         -21.7201    0.8017   29.0268 N.pl3   1  UNL1       -0.0884
     39 C         -22.3386    1.3544   27.9661 C.2     1  UNL1        0.2285
     40 C         -24.5371    1.1028   29.2349 C.3     1  UNL1        0.1749
     41 C         -23.7169    1.3594   27.8764 C.2     1  UNL1        0.0582
     42 C         -26.3477    4.3082   32.0131 C.3     1  UNL1        0.1439
@<TRIPOS>BOND
     1     1    37    1
     2     2     7    1
     3     2     1    1
     4     3     2    2
     5     4     3    1
     6     4     5    2
     7     5     6    1
     8     6     7    2
     9     8     1    1
    10     8     9    1
    11     8    12    1
    12     9    10    1
    13    10    11    1
    14    12    11    1
    15    13    28    1
    16    14    13    1
    17    14    15    1
    18    15    18    2
    19    16    17    1
    20    16    15    1
    21    19    14    2
    22    20    21    2
    23    20    19    1
    24    21    26    1
    25    22    21    1
    26    23    22    1
    27    24    23    1
    28    24    25    1
    29    26    27    1
    30    26    13    1
    31    28    41    1
    32    29    42    1
    33    30    39    1
    34    31    36    1
    35    31    28    2
    36    32    42    1
    37    33    32    1
    38    35    34    1
    39    35    33    1
    40    35    29    1
    41    36    30    1
    42    39    38    1
    43    40    34    1
    44    40    37    1
    45    41    39    2
    46    41    40    1
