@<TRIPOS>MOLECULE
outputs/IAG933/test6/raw/output_5158_IAG933_linker_design_.xyz
 42 46 0 0 0
SMALL
GASTEIGER

@<TRIPOS>ATOM
      1 C         -24.8550   -1.0120   30.1430 C.3     1  UNL1        0.1562
      2 C         -24.9730   -2.5050   29.7880 C.2     1  UNL1        0.0060
      3 C         -23.9060   -3.1730   29.1460 C.2     1  UNL1       -0.0019
      4 C         -23.9890   -4.5490   28.8530 C.2     1  UNL1       -0.0002
      5 C         -25.1370   -5.2800   29.2050 C.2     1  UNL1       -0.0000
      6 C         -26.2320   -4.6110   29.7840 C.2     1  UNL1       -0.0002
      7 C         -26.1550   -3.2320   30.0650 C.2     1  UNL1       -0.0019
      8 C         -25.3870   -0.6790   31.5710 C.3     1  UNL1        0.1042
      9 C         -25.1890    0.7730   32.0280 C.3     1  UNL1        0.0217
     10 C         -25.3360    0.6840   33.5440 C.3     1  UNL1        0.0203
     11 C         -24.8290   -0.7150   33.9050 C.3     1  UNL1        0.0888
     12 N         -24.7580   -1.4810   32.6460 N.3     1  UNL1       -0.2166
     13 C         -25.6880    1.6140   26.4610 C.2     1  UNL1        0.0455
     14 C         -26.2500    2.9200   26.3950 C.2     1  UNL1        0.0768
     15 C         -25.6420    4.0930   27.1230 C.2     1  UNL1        0.2664
     16 N         -25.6140    5.2520   26.4490 N.am    1  UNL1       -0.1997
     17 C         -25.0260    6.4790   26.9630 C.3     1  UNL1        0.1388
     18 O         -25.1430    3.9660   28.2430 O.2     1  UNL1       -0.2683
     19 C         -27.4380    3.0910   25.6450 C.2     1  UNL1        0.1067
     20 N         -28.0750    2.0890   25.0030 N.2     1  UNL1       -0.2081
     21 C         -27.5430    0.8490   25.0790 C.2     1  UNL1        0.2533
     22 O         -28.1930   -0.2080   24.4770 O.2     1  UNL1       -0.4558
     23 C         -29.4600    0.0050   23.8660 C.3     1  UNL1        0.2426
     24 C         -30.0650   -1.3770   23.5730 C.3     1  UNL1        0.2292
     25 O         -30.7290   -1.8780   24.7210 O.3     1  UNL1       -0.2162
     26 C         -26.3540    0.5760   25.7770 C.2     1  UNL1        0.1933
     27 F         -25.8600   -0.6810   25.7950 F       1  UNL1       -0.1992
     28 C         -23.0122    0.3615   29.2025 C.3     1  UNL1        0.3056
     29 C         -24.2552    0.8975   28.4505 C.2     1  UNL1        0.2337
     30 O         -22.6365    1.4728   29.9382 O.3     1  UNL1       -0.1840
     31 O         -19.6330    0.9256   27.7470 O.3     1  UNL1       -0.3089
     32 O         -20.8773    1.6765   25.9323 O.3     1  UNL1       -0.2086
     33 O         -25.5185    1.1377   29.1564 O.2     1  UNL1       -0.2859
     34 C         -20.5231    0.2467   28.5823 C.3     1  UNL1        0.1850
     35 O         -23.1506    1.1023   24.8874 O.2     1  UNL1       -0.2676
     36 O         -23.4884   -0.6749   30.1415 O.3     1  UNL1       -0.3213
     37 N         -21.8747    1.2410   26.4629 N.am    1  UNL1       -0.1061
     38 C         -23.2205    1.2986   26.0721 C.2     1  UNL1        0.2783
     39 C         -20.6757    1.5587   27.2940 C.3     1  UNL1        0.3723
     40 C         -21.7728   -0.2493   28.4269 C.3     1  UNL1        0.2426
     41 C         -24.3394    1.3301   27.0225 C.2     1  UNL1        0.0978
     42 O         -21.3856   -1.4149   29.0921 O.3     1  UNL1       -0.2146
@<TRIPOS>BOND
     1     1    36    1
     2     2     7    1
     3     2     1    1
     4     3     2    2
     5     4     3    1
     6     4     5    2
     7     5     6    1
     8     6     7    2
     9     8     1    1
    10     8     9    1
    11     8    12    1
    12     9    10    1
    13    10    11    1
    14    12    11    1
    15    13    41    1
    16    14    13    1
    17    14    15    1
    18    15    18    2
    19    16    17    1
    20    16    15    1
    21    19    14    2
    22    20    21    2
    23    20    19    1
    24    21    26    1
    25    22    21    1
    26    23    22    1
    27    24    23    1
    28    24    25    1
    29    26    27    1
    30    26    13    2
    31    28    30    1
    32    28    36    1
    33    29    33    1
    34    29    28    1
    35    31    34    1
    36    32    37    1
    37    35    38    2
    38    37    39    1
    39    38    37   am
    40    38    41    1
    41    39    32    1
    42    39    31    1
    43    40    34    1
    44    40    42    1
    45    40    28    1
    46    41    29    2
