@<TRIPOS>MOLECULE
outputs/IAG933/test6/raw/output_5165_IAG933_linker_design_.xyz
 45 50 0 0 0
SMALL
GASTEIGER

@<TRIPOS>ATOM
      1 C         -24.8550   -1.0120   30.1430 C.3     1  UNL1        0.0441
      2 C         -24.9730   -2.5050   29.7880 C.2     1  UNL1       -0.0208
      3 C         -23.9060   -3.1730   29.1460 C.2     1  UNL1       -0.0042
      4 C         -23.9890   -4.5490   28.8530 C.2     1  UNL1       -0.0003
      5 C         -25.1370   -5.2800   29.2050 C.2     1  UNL1       -0.0000
      6 C         -26.2320   -4.6110   29.7840 C.2     1  UNL1       -0.0003
      7 C         -26.1550   -3.2320   30.0650 C.2     1  UNL1       -0.0042
      8 C         -25.3870   -0.6790   31.5710 C.3     1  UNL1        0.0843
      9 C         -25.1890    0.7730   32.0280 C.3     1  UNL1        0.0778
     10 C         -25.3360    0.6840   33.5440 C.3     1  UNL1        0.0278
     11 C         -24.8290   -0.7150   33.9050 C.3     1  UNL1        0.0892
     12 N         -24.7580   -1.4810   32.6460 N.3     1  UNL1       -0.2187
     13 C         -25.6880    1.6140   26.4610 C.3     1  UNL1        0.0742
     14 C         -26.2500    2.9200   26.3950 C.2     1  UNL1        0.0551
     15 C         -25.6420    4.0930   27.1230 C.2     1  UNL1        0.2624
     16 N         -25.6140    5.2520   26.4490 N.am    1  UNL1       -0.2000
     17 C         -25.0260    6.4790   26.9630 C.3     1  UNL1        0.1388
     18 O         -25.1430    3.9660   28.2430 O.2     1  UNL1       -0.2687
     19 C         -27.4380    3.0910   25.6450 C.2     1  UNL1        0.1021
     20 N         -28.0750    2.0890   25.0030 N.2     1  UNL1       -0.2119
     21 C         -27.5430    0.8490   25.0790 C.2     1  UNL1        0.2341
     22 O         -28.1930   -0.2080   24.4770 O.2     1  UNL1       -0.4585
     23 C         -29.4600    0.0050   23.8660 C.3     1  UNL1        0.2423
     24 C         -30.0650   -1.3770   23.5730 C.3     1  UNL1        0.2292
     25 O         -30.7290   -1.8780   24.7210 O.3     1  UNL1       -0.2162
     26 C         -26.3540    0.5760   25.7770 C.3     1  UNL1        0.2403
     27 F         -25.8600   -0.6810   25.7950 F       1  UNL1       -0.2269
     28 C         -20.7590    0.8203   28.3121 C.3     1  UNL1        0.1780
     29 C         -22.0890    1.3523   27.5248 C.3     1  UNL1        0.1340
     30 O         -22.4338   -1.1979   29.1548 O.3     1  UNL1       -0.3147
     31 C         -21.2168   -0.5624   29.1826 C.3     1  UNL1        0.1900
     32 C         -22.5582    2.4078   24.8113 C.2     1  UNL1        0.0156
     33 C         -23.7946    1.9777   25.1579 C.2     1  UNL1       -0.0244
     34 O         -19.6110    1.6383   28.4028 O.3     1  UNL1       -0.2209
     35 O         -23.0399    0.9666   29.9886 O.2     1  UNL1       -0.4446
     36 C         -23.5320    2.0489   30.4652 C.2     1  UNL1        0.2073
     37 C         -22.2187   -0.2540   30.0006 C.3     1  UNL1        0.3161
     38 C         -24.2947    1.5497   26.4350 C.3     1  UNL1        0.0315
     39 O         -24.5564    3.1254   31.8609 O.2     1  UNL1       -0.4725
     40 C         -24.5122    2.0548   31.4071 C.2     1  UNL1        0.1540
     41 C         -25.4219    3.9739   32.5190 C.3     1  UNL1        0.2521
     42 C         -23.5997    0.9452   27.4599 C.3     1  UNL1        0.0317
     43 C         -21.5688    2.5434   25.7447 C.2     1  UNL1        0.0928
     44 N         -21.4740    2.0405   26.8690 N.2     1  UNL1       -0.2683
     45 C         -20.1552   -0.2929   27.9746 C.3     1  UNL1        0.0711
@<TRIPOS>BOND
     1     2     7    1
     2     2     1    1
     3     3     2    2
     4     4     3    1
     5     4     5    2
     6     5     6    1
     7     6     7    2
     8     8     1    1
     9     8     9    1
    10     8    12    1
    11     9    40    1
    12     9    10    1
    13    10    11    1
    14    12    11    1
    15    13    14    1
    16    14    15    1
    17    15    18    2
    18    16    17    1
    19    16    15    1
    20    19    14    2
    21    20    21    2
    22    20    19    1
    23    21    26    1
    24    22    21    1
    25    23    22    1
    26    24    23    1
    27    24    25    1
    28    26    27    1
    29    26    13    1
    30    28    34    1
    31    28    31    1
    32    29    42    1
    33    29    28    1
    34    30    31    1
    35    30    37    1
    36    31    45    1
    37    31    37    1
    38    32    33    2
    39    32    43    1
    40    35    36    1
    41    36    40    2
    42    37    35    1
    43    38    33    1
    44    38    13    1
    45    38    42    1
    46    39    41    1
    47    40    39    1
    48    43    44    2
    49    44    29    1
    50    45    28    1
