@<TRIPOS>MOLECULE
outputs/IAG933/test6/raw/output_5166_IAG933_linker_design_.xyz
 40 43 0 0 0
SMALL
GASTEIGER

@<TRIPOS>ATOM
      1 C         -24.8550   -1.0120   30.1430 C.3     1  UNL1        0.1339
      2 C         -24.9730   -2.5050   29.7880 C.2     1  UNL1       -0.0012
      3 C         -23.9060   -3.1730   29.1460 C.2     1  UNL1       -0.0026
      4 C         -23.9890   -4.5490   28.8530 C.2     1  UNL1       -0.0003
      5 C         -25.1370   -5.2800   29.2050 C.2     1  UNL1       -0.0000
      6 C         -26.2320   -4.6110   29.7840 C.2     1  UNL1       -0.0003
      7 C         -26.1550   -3.2320   30.0650 C.2     1  UNL1       -0.0026
      8 C         -25.3870   -0.6790   31.5710 C.3     1  UNL1        0.1075
      9 C         -25.1890    0.7730   32.0280 C.3     1  UNL1        0.1228
     10 C         -25.3360    0.6840   33.5440 C.3     1  UNL1        0.0315
     11 C         -24.8290   -0.7150   33.9050 C.3     1  UNL1        0.0893
     12 N         -24.7580   -1.4810   32.6460 N.3     1  UNL1       -0.2168
     13 C         -25.6880    1.6140   26.4610 C.3     1  UNL1        0.0906
     14 C         -26.2500    2.9200   26.3950 C.2     1  UNL1        0.0586
     15 C         -25.6420    4.0930   27.1230 C.2     1  UNL1        0.2627
     16 N         -25.6140    5.2520   26.4490 N.am    1  UNL1       -0.2000
     17 C         -25.0260    6.4790   26.9630 C.3     1  UNL1        0.1388
     18 O         -25.1430    3.9660   28.2430 O.2     1  UNL1       -0.2686
     19 C         -27.4380    3.0910   25.6450 C.2     1  UNL1        0.1025
     20 N         -28.0750    2.0890   25.0030 N.2     1  UNL1       -0.2118
     21 C         -27.5430    0.8490   25.0790 C.2     1  UNL1        0.2344
     22 O         -28.1930   -0.2080   24.4770 O.2     1  UNL1       -0.4585
     23 C         -29.4600    0.0050   23.8660 C.3     1  UNL1        0.2423
     24 C         -30.0650   -1.3770   23.5730 C.3     1  UNL1        0.2292
     25 O         -30.7290   -1.8780   24.7210 O.3     1  UNL1       -0.2162
     26 C         -26.3540    0.5760   25.7770 C.3     1  UNL1        0.2438
     27 F         -25.8600   -0.6810   25.7950 F       1  UNL1       -0.2265
     28 C         -23.0449    0.0806   29.0145 C.2     1  UNL1        0.2453
     29 C         -21.9857    1.5501   25.9029 C.3     1  UNL1        0.0404
     30 C         -24.9098    2.0116   31.3871 C.2     1  UNL1        0.3658
     31 C         -23.3212    1.3512   25.6629 C.3     1  UNL1        0.1795
     32 O         -23.8108    2.3633   30.8503 O.co2   1  UNL1       -0.2456
     33 C         -24.3367    1.3314   26.7223 C.2     1  UNL1       -0.0090
     34 O         -22.2661   -0.4667   29.9341 O.2     1  UNL1       -0.2730
     35 F         -23.6949    0.9905   24.3511 F       1  UNL1       -0.2328
     36 O         -25.8598    2.9237   31.3989 O.co2   1  UNL1       -0.2456
     37 C         -21.6520    1.3458   27.2427 C.3     1  UNL1        0.0167
     38 N         -24.3679   -0.1018   29.2683 N.am    1  UNL1       -0.2010
     39 C         -22.7454    0.8538   28.1991 C.3     1  UNL1        0.0997
     40 C         -23.7228    1.1331   27.7379 C.2     1  UNL1       -0.0228
@<TRIPOS>BOND
     1     1    38    1
     2     2     7    1
     3     2     1    1
     4     3     2    2
     5     4     3    1
     6     4     5    2
     7     5     6    1
     8     6     7    2
     9     8     1    1
    10     8     9    1
    11     8    12    1
    12     9    30    1
    13     9    10    1
    14    10    11    1
    15    12    11    1
    16    13    33    1
    17    14    13    1
    18    14    15    1
    19    15    18    2
    20    16    17    1
    21    16    15    1
    22    19    14    2
    23    20    21    2
    24    20    19    1
    25    21    26    1
    26    22    21    1
    27    23    22    1
    28    24    23    1
    29    24    25    1
    30    26    27    1
    31    26    13    1
    32    28    38    1
    33    28    34    2
    34    29    37    1
    35    30    36   ar
    36    31    35    1
    37    31    29    1
    38    31    33    1
    39    32    30   ar
    40    33    40    2
    41    37    39    1
    42    39    28    1
    43    40    39    1
