@<TRIPOS>MOLECULE
outputs/IAG933/test6/raw/output_5168_IAG933_linker_design_.xyz
 48 53 0 0 0
SMALL
GASTEIGER

@<TRIPOS>ATOM
      1 C         -24.8550   -1.0120   30.1430 C.3     1  UNL1        0.0826
      2 C         -24.9730   -2.5050   29.7880 C.2     1  UNL1       -0.0175
      3 C         -23.9060   -3.1730   29.1460 C.2     1  UNL1       -0.0041
      4 C         -23.9890   -4.5490   28.8530 C.2     1  UNL1       -0.0003
      5 C         -25.1370   -5.2800   29.2050 C.2     1  UNL1       -0.0000
      6 C         -26.2320   -4.6110   29.7840 C.2     1  UNL1       -0.0003
      7 C         -26.1550   -3.2320   30.0650 C.2     1  UNL1       -0.0041
      8 C         -25.3870   -0.6790   31.5710 C.3     1  UNL1        0.0804
      9 C         -25.1890    0.7730   32.0280 C.3     1  UNL1        0.0193
     10 C         -25.3360    0.6840   33.5440 C.3     1  UNL1        0.0202
     11 C         -24.8290   -0.7150   33.9050 C.3     1  UNL1        0.0887
     12 N         -24.7580   -1.4810   32.6460 N.3     1  UNL1       -0.2190
     13 C         -25.6880    1.6140   26.4610 C.3     1  UNL1        0.0794
     14 C         -26.2500    2.9200   26.3950 C.2     1  UNL1        0.0553
     15 C         -25.6420    4.0930   27.1230 C.2     1  UNL1        0.2625
     16 N         -25.6140    5.2520   26.4490 N.am    1  UNL1       -0.2000
     17 C         -25.0260    6.4790   26.9630 C.3     1  UNL1        0.1388
     18 O         -25.1430    3.9660   28.2430 O.2     1  UNL1       -0.2687
     19 C         -27.4380    3.0910   25.6450 C.2     1  UNL1        0.1022
     20 N         -28.0750    2.0890   25.0030 N.2     1  UNL1       -0.2119
     21 C         -27.5430    0.8490   25.0790 C.2     1  UNL1        0.2341
     22 O         -28.1930   -0.2080   24.4770 O.2     1  UNL1       -0.4585
     23 C         -29.4600    0.0050   23.8660 C.3     1  UNL1        0.2423
     24 C         -30.0650   -1.3770   23.5730 C.3     1  UNL1        0.2292
     25 O         -30.7290   -1.8780   24.7210 O.3     1  UNL1       -0.2162
     26 C         -26.3540    0.5760   25.7770 C.3     1  UNL1        0.2405
     27 F         -25.8600   -0.6810   25.7950 F       1  UNL1       -0.2269
     28 C         -30.9333    1.3429   29.2757 C.3     1  UNL1        0.0620
     29 N         -30.9209    0.6368   28.1008 N.3     1  UNL1       -0.2746
     30 C         -31.7112    2.8022   27.7285 C.3     1  UNL1        0.0173
     31 C         -31.6078    2.6060   29.1121 C.3     1  UNL1        0.0175
     32 C         -22.5578    0.7759   28.1222 C.2     1  UNL1        0.2899
     33 O         -23.0958    0.0243   29.1857 O.2     1  UNL1       -0.4522
     34 CL        -22.8551    1.9956   25.8340 Cl      1  UNL1       -0.0811
     35 C         -29.2037   -0.6769   28.5512 C.3     1  UNL1        0.1378
     36 N         -28.3665   -0.1861   30.6724 N.2     1  UNL1       -0.0661
     37 C         -23.4389    1.1206   27.2678 C.2     1  UNL1        0.1027
     38 C         -25.7545    0.6894   28.8516 C.3     1  UNL1        0.2498
     39 C         -30.4868    1.0419   30.6483 C.3     1  UNL1        0.0738
     40 C         -28.3846   -0.5155   29.3236 C.2     1  UNL1        0.3331
     41 C         -30.4576   -0.6951   27.7423 C.3     1  UNL1        0.0849
     42 C         -24.8102    1.0824   27.4461 C.3     1  UNL1        0.0964
     43 F         -21.1943    1.1896   27.9620 F       1  UNL1       -0.1627
     44 C         -32.4889    0.9634   26.1191 C.3     1  UNL1        0.0173
     45 C         -24.5977   -0.1221   28.9438 C.3     1  UNL1        0.2202
     46 C         -29.3178    0.6706   31.2443 C.3     1  UNL1        0.2643
     47 N         -27.1088   -0.0898   28.9326 N.pl3   1  UNL1       -0.0358
     48 C         -31.2790    1.5140   26.9641 C.3     1  UNL1        0.0576
@<TRIPOS>BOND
     1     1     2    1
     2     2     7    1
     3     3     2    2
     4     4     3    1
     5     4     5    2
     6     5     6    1
     7     6     7    2
     8     8     1    1
     9     8     9    1
    10     8    12    1
    11     9    10    1
    12    10    11    1
    13    12    11    1
    14    13    14    1
    15    13    42    1
    16    14    15    1
    17    15    18    2
    18    16    17    1
    19    16    15    1
    20    19    14    2
    21    20    21    2
    22    20    19    1
    23    21    26    1
    24    22    21    1
    25    23    22    1
    26    24    23    1
    27    24    25    1
    28    26    27    1
    29    26    13    1
    30    28    31    1
    31    28    39    1
    32    29    41    1
    33    29    28    1
    34    30    31    1
    35    32    33    1
    36    34    37    1
    37    35    40    1
    38    36    46    1
    39    37    32    2
    40    38    47    1
    41    38    45    1
    42    39    46    1
    43    40    36    2
    44    41    35    1
    45    42    37    1
    46    42    38    1
    47    43    32    1
    48    45    33    1
    49    45     1    1
    50    47    40    1
    51    48    44    1
    52    48    30    1
    53    48    29    1
