@<TRIPOS>MOLECULE
outputs/IAG933/test6/raw/output_5169_IAG933_linker_design_.xyz
 42 45 0 0 0
SMALL
GASTEIGER

@<TRIPOS>ATOM
      1 C         -24.8550   -1.0120   30.1430 C.3     1  UNL1        0.1552
      2 C         -24.9730   -2.5050   29.7880 C.2     1  UNL1        0.0060
      3 C         -23.9060   -3.1730   29.1460 C.2     1  UNL1       -0.0019
      4 C         -23.9890   -4.5490   28.8530 C.2     1  UNL1       -0.0002
      5 C         -25.1370   -5.2800   29.2050 C.2     1  UNL1       -0.0000
      6 C         -26.2320   -4.6110   29.7840 C.2     1  UNL1       -0.0002
      7 C         -26.1550   -3.2320   30.0650 C.2     1  UNL1       -0.0019
      8 C         -25.3870   -0.6790   31.5710 C.3     1  UNL1        0.1042
      9 C         -25.1890    0.7730   32.0280 C.3     1  UNL1        0.0217
     10 C         -25.3360    0.6840   33.5440 C.3     1  UNL1        0.0203
     11 C         -24.8290   -0.7150   33.9050 C.3     1  UNL1        0.0888
     12 N         -24.7580   -1.4810   32.6460 N.3     1  UNL1       -0.2166
     13 C         -25.6880    1.6140   26.4610 C.2     1  UNL1        0.0402
     14 C         -26.2500    2.9200   26.3950 C.2     1  UNL1        0.0766
     15 C         -25.6420    4.0930   27.1230 C.2     1  UNL1        0.2664
     16 N         -25.6140    5.2520   26.4490 N.am    1  UNL1       -0.1997
     17 C         -25.0260    6.4790   26.9630 C.3     1  UNL1        0.1388
     18 O         -25.1430    3.9660   28.2430 O.2     1  UNL1       -0.2683
     19 C         -27.4380    3.0910   25.6450 C.2     1  UNL1        0.1067
     20 N         -28.0750    2.0890   25.0030 N.2     1  UNL1       -0.2081
     21 C         -27.5430    0.8490   25.0790 C.2     1  UNL1        0.2533
     22 O         -28.1930   -0.2080   24.4770 O.2     1  UNL1       -0.4558
     23 C         -29.4600    0.0050   23.8660 C.3     1  UNL1        0.2426
     24 C         -30.0650   -1.3770   23.5730 C.3     1  UNL1        0.2292
     25 O         -30.7290   -1.8780   24.7210 O.3     1  UNL1       -0.2162
     26 C         -26.3540    0.5760   25.7770 C.2     1  UNL1        0.1931
     27 F         -25.8600   -0.6810   25.7950 F       1  UNL1       -0.1992
     28 N         -26.1462    2.0387   29.0803 N.3     1  UNL1       -0.1759
     29 C         -26.3856    4.1648   30.2401 C.2     1  UNL1        0.3823
     30 O         -25.7859   -0.3310   29.2210 O.3     1  UNL1       -0.3325
     31 C         -22.9034    0.6616   29.0363 C.2     1  UNL1        0.1009
     32 N         -21.7192    0.9307   28.4158 N.2     1  UNL1       -0.2148
     33 C         -24.1537    0.9871   28.3250 C.2     1  UNL1        0.0431
     34 C         -23.0632    1.7668   26.5406 C.2     1  UNL1        0.1856
     35 O         -25.3452    4.0712   30.8934 O.co2   1  UNL1       -0.2440
     36 O         -26.9011    5.2974   29.9374 O.co2   1  UNL1       -0.2440
     37 F         -23.0361    2.3103   25.3482 F       1  UNL1       -0.2001
     38 C         -24.3018    1.4089   27.0714 C.2     1  UNL1        0.0350
     39 C         -21.8953    1.5517   27.2329 C.2     1  UNL1        0.2499
     40 F         -20.7302    1.9981   26.6639 F       1  UNL1       -0.1808
     41 C         -27.0993    2.9431   29.8066 C.3     1  UNL1        0.2052
     42 C         -25.2518    1.0331   28.8893 C.3     1  UNL1        0.2154
@<TRIPOS>BOND
     1     1    30    1
     2     2     7    1
     3     2     1    1
     4     3     2    2
     5     4     3    1
     6     4     5    2
     7     5     6    1
     8     6     7    2
     9     8     1    1
    10     8     9    1
    11     8    12    1
    12     9    10    1
    13    10    11    1
    14    12    11    1
    15    13    38    1
    16    14    13    1
    17    14    15    1
    18    15    18    2
    19    16    17    1
    20    16    15    1
    21    19    14    2
    22    20    21    2
    23    20    19    1
    24    21    26    1
    25    22    21    1
    26    23    22    1
    27    24    23    1
    28    24    25    1
    29    26    27    1
    30    26    13    2
    31    28    41    1
    32    29    35   ar
    33    32    31    1
    34    33    42    1
    35    33    31    2
    36    34    38    2
    37    34    39    1
    38    36    29   ar
    39    37    34    1
    40    38    33    1
    41    39    32    2
    42    40    39    1
    43    41    29    1
    44    42    28    1
    45    42    30    1
