@<TRIPOS>MOLECULE
No_517-gen_results/8p0m/2024-11-27-11-27-31/
 35 38 0 0 0
SMALL
GASTEIGER

@<TRIPOS>ATOM
      1 C         -28.0162   -0.8135   28.8779 C.ar    1  UNL1        0.0212
      2 C         -28.4690   -0.7850   29.8287 C.ar    1  UNL1        0.0751
      3 C         -27.0871    0.2903   28.6377 C.ar    1  UNL1        0.0552
      4 C         -26.8317    1.2487   29.5869 C.ar    1  UNL1        0.0046
      5 C         -28.3914    0.0801   31.0065 C.ar    1  UNL1        0.0167
      6 C         -27.4940    1.1521   30.7841 C.ar    1  UNL1        0.0014
      7 C         -26.3172    0.3994   27.3653 C.2     1  UNL1        0.2538
      8 N         -25.4794    1.4098   27.2651 N.am    1  UNL1       -0.2394
      9 C         -24.3751    1.4394   27.3569 C.ar    1  UNL1        0.0530
     10 C         -23.5010    0.5344   28.0436 C.ar    1  UNL1        0.0213
     11 C         -22.1326    0.7609   28.2649 C.ar    1  UNL1        0.0810
     12 C         -23.4824    2.6517   26.9080 C.ar    1  UNL1        0.0090
     13 C         -24.2604    3.6913   26.1737 C.3     1  UNL1        0.1181
     14 C         -21.4666    1.7921   27.7211 C.ar    1  UNL1        0.0064
     15 C         -22.1156    2.7156   27.1061 C.ar    1  UNL1       -0.0014
     16 C         -25.9520    2.3628   26.0547 C.3     1  UNL1        0.1900
     17 N         -25.4713    3.5594   26.0024 N.3     1  UNL1       -0.1921
     18 O         -26.4024   -0.4244   26.5105 O.2     1  UNL1       -0.2695
     19 C         -21.4125   -0.4004   29.0123 C.2     1  UNL1        0.3878
     20 O         -20.3192   -0.2147   29.2170 O.co2   1  UNL1       -0.2406
     21 O         -22.1943   -1.2154   29.6702 O.co2   1  UNL1       -0.2406
     22 N         -29.4394   -1.9129   30.1765 N.am    1  UNL1       -0.1622
     23 C         -29.0167   -3.1922   30.3906 C.2     1  UNL1        0.3275
     24 N         -29.9429   -4.1675   30.5185 N.am    1  UNL1       -0.2600
     25 O         -27.7959   -3.5250   30.3711 O.2     1  UNL1       -0.2504
     26 C         -29.6340   -5.5825   30.5960 C.3     1  UNL1        0.0952
     27 C         -30.8526   -6.3709   30.3122 C.3     1  UNL1        0.0242
     28 C         -31.3817   -6.3679   29.0737 C.3     1  UNL1        0.0364
     29 C         -31.0551   -5.2854   28.2504 C.3     1  UNL1        0.1718
     30 C         -30.9792   -4.0244   29.1140 C.3     1  UNL1        0.1277
     31 O         -31.9261   -4.9511   27.2170 O.3     1  UNL1       -0.2213
     32 C         -27.2710    2.1909   31.8564 C.2     1  UNL1        0.0000
     33 C         -26.4147    2.8913   31.8914 C.2     1  UNL1        0.0000
     34 C         -26.1401    3.9793   32.9200 C.2     1  UNL1        0.0000
     35 C         -26.9420    3.9904   34.0091 C.2     1  UNL1        0.0000
@<TRIPOS>BOND
     1     3     7    1
     2     7     8   am
     3     8     9    1
     4    12    13    1
     5     8    16    1
     6    13    17    1
     7    16    17    1
     8     7    18    2
     9    11    19    1
    10    19    20   ar
    11    19    21   ar
    12     2    22    1
    13    22    23   am
    14    23    24   am
    15    23    25    2
    16    24    26    1
    17    26    27    1
    18    27    28    1
    19    28    29    1
    20    24    30    1
    21    29    30    1
    22    29    31    1
    23     6    32    1
    24    32    33    2
    25    33    34    1
    26    34    35    2
    27     9    10   ar
    28    10    11   ar
    29    11    14   ar
    30    14    15   ar
    31    15    12   ar
    32    12     9   ar
    33     1     2   ar
    34     2     5   ar
    35     5     6   ar
    36     6     4   ar
    37     4     3   ar
    38     3     1   ar
