@<TRIPOS>MOLECULE
outputs/IAG933/test6/raw/output_5172_IAG933_linker_design_.xyz
 42 45 0 0 0
SMALL
GASTEIGER

@<TRIPOS>ATOM
      1 C         -24.8550   -1.0120   30.1430 C.3     1  UNL1        0.0963
      2 C         -24.9730   -2.5050   29.7880 C.2     1  UNL1       -0.0064
      3 C         -23.9060   -3.1730   29.1460 C.2     1  UNL1       -0.0029
      4 C         -23.9890   -4.5490   28.8530 C.2     1  UNL1       -0.0003
      5 C         -25.1370   -5.2800   29.2050 C.2     1  UNL1       -0.0000
      6 C         -26.2320   -4.6110   29.7840 C.2     1  UNL1       -0.0003
      7 C         -26.1550   -3.2320   30.0650 C.2     1  UNL1       -0.0029
      8 C         -25.3870   -0.6790   31.5710 C.3     1  UNL1        0.0916
      9 C         -25.1890    0.7730   32.0280 C.3     1  UNL1        0.0206
     10 C         -25.3360    0.6840   33.5440 C.3     1  UNL1        0.0203
     11 C         -24.8290   -0.7150   33.9050 C.3     1  UNL1        0.0888
     12 N         -24.7580   -1.4810   32.6460 N.3     1  UNL1       -0.2178
     13 C         -25.6880    1.6140   26.4610 C.2     1  UNL1        0.0193
     14 C         -26.2500    2.9200   26.3950 C.2     1  UNL1        0.0727
     15 C         -25.6420    4.0930   27.1230 C.2     1  UNL1        0.2661
     16 N         -25.6140    5.2520   26.4490 N.am    1  UNL1       -0.1997
     17 C         -25.0260    6.4790   26.9630 C.3     1  UNL1        0.1388
     18 O         -25.1430    3.9660   28.2430 O.2     1  UNL1       -0.2683
     19 C         -27.4380    3.0910   25.6450 C.2     1  UNL1        0.1064
     20 N         -28.0750    2.0890   25.0030 N.2     1  UNL1       -0.2081
     21 C         -27.5430    0.8490   25.0790 C.2     1  UNL1        0.2530
     22 O         -28.1930   -0.2080   24.4770 O.2     1  UNL1       -0.4558
     23 C         -29.4600    0.0050   23.8660 C.3     1  UNL1        0.2426
     24 C         -30.0650   -1.3770   23.5730 C.3     1  UNL1        0.2292
     25 O         -30.7290   -1.8780   24.7210 O.3     1  UNL1       -0.2162
     26 C         -26.3540    0.5760   25.7770 C.2     1  UNL1        0.1892
     27 F         -25.8600   -0.6810   25.7950 F       1  UNL1       -0.1996
     28 C         -22.9516    0.4117   29.7967 C.3     1  UNL1        0.0750
     29 C         -27.9935    2.7606   29.9815 C.2     1  UNL1        0.2634
     30 C         -26.7771    0.5838   28.9727 C.3     1  UNL1        0.1760
     31 C         -21.4387    1.5030   27.6384 C.3     1  UNL1        0.1435
     32 N         -26.8061    3.1784   30.1573 N.am    1  UNL1       -0.0877
     33 C         -28.1509    1.3311   29.3319 C.3     1  UNL1        0.1227
     34 O         -21.9078    1.8219   26.3550 O.3     1  UNL1       -0.3558
     35 O         -27.2165   -0.8634   28.8252 O.3     1  UNL1       -0.2212
     36 C         -23.5252    1.2473   24.5737 C.3     1  UNL1        0.0324
     37 O         -29.0142    3.4109   30.1399 O.2     1  UNL1       -0.2716
     38 C         -25.1981    0.9286   28.5990 C.3     1  UNL1        0.0953
     39 C         -24.4472    1.3173   27.0734 C.3     1  UNL1        0.0692
     40 N         -24.3034    0.0582   29.2851 N.3     1  UNL1       -0.2678
     41 C         -23.2029    1.3916   26.0720 C.3     1  UNL1        0.1207
     42 C         -22.2618    1.1795   28.6657 C.3     1  UNL1        0.0494
@<TRIPOS>BOND
     1     1     2    1
     2     2     7    1
     3     3     2    2
     4     4     3    1
     5     4     5    2
     6     5     6    1
     7     6     7    2
     8     8     1    1
     9     8     9    1
    10     8    12    1
    11     9    10    1
    12    10    11    1
    13    12    11    1
    14    14    13    1
    15    14    15    1
    16    15    18    2
    17    16    17    1
    18    16    15    1
    19    19    14    2
    20    20    21    2
    21    20    19    1
    22    21    26    1
    23    22    21    1
    24    23    22    1
    25    24    23    1
    26    24    25    1
    27    26    27    1
    28    26    13    2
    29    29    37    2
    30    29    32    1
    31    30    35    1
    32    30    33    1
    33    31    42    1
    34    33    29    1
    35    34    31    1
    36    38    30    1
    37    38    40    1
    38    39    13    1
    39    39    38    1
    40    40    28    1
    41    40     1    1
    42    41    36    1
    43    41    34    1
    44    41    39    1
    45    42    28    1
