@<TRIPOS>MOLECULE
outputs/IAG933/test6/raw/output_5174_IAG933_linker_design_.xyz
 46 52 0 0 0
SMALL
GASTEIGER

@<TRIPOS>ATOM
      1 C         -24.8550   -1.0120   30.1430 C.3     1  UNL1        0.0648
      2 C         -24.9730   -2.5050   29.7880 C.2     1  UNL1       -0.0169
      3 C         -23.9060   -3.1730   29.1460 C.2     1  UNL1       -0.0039
      4 C         -23.9890   -4.5490   28.8530 C.2     1  UNL1       -0.0003
      5 C         -25.1370   -5.2800   29.2050 C.2     1  UNL1       -0.0000
      6 C         -26.2320   -4.6110   29.7840 C.2     1  UNL1       -0.0003
      7 C         -26.1550   -3.2320   30.0650 C.2     1  UNL1       -0.0039
      8 C         -25.3870   -0.6790   31.5710 C.3     1  UNL1        0.0813
      9 C         -25.1890    0.7730   32.0280 C.3     1  UNL1        0.0226
     10 C         -25.3360    0.6840   33.5440 C.3     1  UNL1        0.0205
     11 C         -24.8290   -0.7150   33.9050 C.3     1  UNL1        0.0887
     12 N         -24.7580   -1.4810   32.6460 N.3     1  UNL1       -0.2188
     13 C         -25.6880    1.6140   26.4610 C.2     1  UNL1        0.1019
     14 C         -26.2500    2.9200   26.3950 C.2     1  UNL1        0.0926
     15 C         -25.6420    4.0930   27.1230 C.2     1  UNL1        0.2678
     16 N         -25.6140    5.2520   26.4490 N.am    1  UNL1       -0.1997
     17 C         -25.0260    6.4790   26.9630 C.3     1  UNL1        0.1388
     18 O         -25.1430    3.9660   28.2430 O.2     1  UNL1       -0.2683
     19 C         -27.4380    3.0910   25.6450 C.2     1  UNL1        0.1082
     20 N         -28.0750    2.0890   25.0030 N.2     1  UNL1       -0.2080
     21 C         -27.5430    0.8490   25.0790 C.2     1  UNL1        0.2548
     22 O         -28.1930   -0.2080   24.4770 O.2     1  UNL1       -0.4558
     23 C         -29.4600    0.0050   23.8660 C.3     1  UNL1        0.2426
     24 C         -30.0650   -1.3770   23.5730 C.3     1  UNL1        0.2292
     25 O         -30.7290   -1.8780   24.7210 O.3     1  UNL1       -0.2162
     26 C         -26.3540    0.5760   25.7770 C.2     1  UNL1        0.2090
     27 F         -25.8600   -0.6810   25.7950 F       1  UNL1       -0.1977
     28 C         -22.5336    2.2741   26.4565 C.3     1  UNL1        0.2424
     29 O         -21.2000    1.9566   26.9273 O.3     1  UNL1       -0.1660
     30 C         -27.8406    1.6628   32.1811 C.2     1  UNL1        0.1947
     31 C         -26.5066    3.7138   32.3167 C.2     1  UNL1        0.0020
     32 C         -26.1492    1.2954   29.4107 C.3     1  UNL1        0.0484
     33 O         -21.2625    1.1283   28.0309 O.3     1  UNL1       -0.3322
     34 C         -25.0595    0.6473   28.4050 C.ar    1  UNL1        0.0410
     35 C         -23.9862    0.0671   29.2003 C.ar    1  UNL1        0.0339
     36 N         -24.7306    1.2747   27.2595 N.ar    1  UNL1       -0.3065
     37 C         -26.7387    2.4277   31.8155 C.2     1  UNL1        0.0170
     38 C         -27.3869    4.2338   33.2516 C.2     1  UNL1        0.0368
     39 C         -29.8285    4.3503   35.6769 C.3     1  UNL1        0.2525
     40 O         -28.1579    0.5412   31.5323 O.2     1  UNL1       -0.2868
     41 C         -22.7729    0.8934   28.2272 C.ar    1  UNL1        0.1945
     42 C         -28.3669    3.3921   33.7780 C.2     1  UNL1        0.1419
     43 C         -25.7254    1.7110   30.9224 C.3     1  UNL1        0.0327
     44 O         -29.1159    3.7581   34.8081 O.2     1  UNL1       -0.4713
     45 C         -23.4576    1.4622   27.2754 C.ar    1  UNL1        0.1132
     46 C         -28.5763    2.1422   33.2319 C.2     1  UNL1        0.0785
@<TRIPOS>BOND
     1     1     2    1
     2     1     8    1
     3     2     7    1
     4     3     2    2
     5     4     3    1
     6     4     5    2
     7     5     6    1
     8     6     7    2
     9     8     9    1
    10     8    12    1
    11     9    10    1
    12    10    11    1
    13    12    11    1
    14    13    36    1
    15    14    13    1
    16    14    15    1
    17    15    18    2
    18    16    17    1
    19    16    15    1
    20    19    14    2
    21    20    21    2
    22    20    19    1
    23    21    26    1
    24    22    21    1
    25    23    22    1
    26    24    23    1
    27    24    25    1
    28    26    27    1
    29    26    13    2
    30    28    29    1
    31    28    45    1
    32    29    33    1
    33    30    46    1
    34    31    38    2
    35    32    43    1
    36    33    41    1
    37    34    35   ar
    38    34    32    1
    39    35     1    1
    40    36    45   ar
    41    36    34   ar
    42    37    30    2
    43    37    31    1
    44    38    42    1
    45    40    30    1
    46    41    35   ar
    47    42    44    1
    48    43    37    1
    49    43     9    1
    50    44    39    1
    51    45    41   ar
    52    46    42    2
