@<TRIPOS>MOLECULE
outputs/IAG933/test6/raw/output_5175_IAG933_linker_design_.xyz
 38 40 0 0 0
SMALL
GASTEIGER

@<TRIPOS>ATOM
      1 C         -24.8550   -1.0120   30.1430 C.3     1  UNL1        0.1438
      2 C         -24.9730   -2.5050   29.7880 C.2     1  UNL1       -0.0101
      3 C         -23.9060   -3.1730   29.1460 C.2     1  UNL1       -0.0037
      4 C         -23.9890   -4.5490   28.8530 C.2     1  UNL1       -0.0003
      5 C         -25.1370   -5.2800   29.2050 C.2     1  UNL1       -0.0000
      6 C         -26.2320   -4.6110   29.7840 C.2     1  UNL1       -0.0003
      7 C         -26.1550   -3.2320   30.0650 C.2     1  UNL1       -0.0037
      8 C         -25.3870   -0.6790   31.5710 C.3     1  UNL1        0.0880
      9 C         -25.1890    0.7730   32.0280 C.3     1  UNL1        0.0198
     10 C         -25.3360    0.6840   33.5440 C.3     1  UNL1        0.0203
     11 C         -24.8290   -0.7150   33.9050 C.3     1  UNL1        0.0887
     12 N         -24.7580   -1.4810   32.6460 N.3     1  UNL1       -0.2186
     13 C         -25.6880    1.6140   26.4610 C.2     1  UNL1        0.1188
     14 C         -26.2500    2.9200   26.3950 C.2     1  UNL1        0.0836
     15 C         -25.6420    4.0930   27.1230 C.2     1  UNL1        0.2667
     16 N         -25.6140    5.2520   26.4490 N.am    1  UNL1       -0.1997
     17 C         -25.0260    6.4790   26.9630 C.3     1  UNL1        0.1388
     18 O         -25.1430    3.9660   28.2430 O.2     1  UNL1       -0.2683
     19 C         -27.4380    3.0910   25.6450 C.2     1  UNL1        0.1070
     20 N         -28.0750    2.0890   25.0030 N.2     1  UNL1       -0.2081
     21 C         -27.5430    0.8490   25.0790 C.2     1  UNL1        0.2535
     22 O         -28.1930   -0.2080   24.4770 O.2     1  UNL1       -0.4558
     23 C         -29.4600    0.0050   23.8660 C.3     1  UNL1        0.2426
     24 C         -30.0650   -1.3770   23.5730 C.3     1  UNL1        0.2292
     25 O         -30.7290   -1.8780   24.7210 O.3     1  UNL1       -0.2162
     26 C         -26.3540    0.5760   25.7770 C.2     1  UNL1        0.2000
     27 F         -25.8600   -0.6810   25.7950 F       1  UNL1       -0.1990
     28 N         -23.3122    1.6820   26.9997 N.am    1  UNL1       -0.0942
     29 O         -23.4936    2.3087   24.8069 O.3     1  UNL1       -0.1632
     30 N         -24.8138    0.3873   28.2698 N.am    1  UNL1        0.0270
     31 O         -26.6347   -0.5617   28.5379 O.2     1  UNL1       -0.2425
     32 O         -21.2116    1.6369   27.6676 O.2     1  UNL1       -0.2217
     33 C         -24.6079    1.2430   27.2543 C.2     1  UNL1        0.3296
     34 N         -22.5859    0.1721   28.5930 N.am    1  UNL1       -0.1644
     35 C         -22.3484    1.2022   27.6924 C.2     1  UNL1        0.4166
     36 C         -21.6238   -0.0736   29.6079 C.3     1  UNL1        0.1425
     37 C         -23.0628    2.6116   26.0545 C.3     1  UNL1        0.3963
     38 C         -25.5335   -0.3285   29.0084 C.2     1  UNL1        0.3570
@<TRIPOS>BOND
     1     1    38    1
     2     2     7    1
     3     2     1    1
     4     3     2    2
     5     4     3    1
     6     4     5    2
     7     5     6    1
     8     6     7    2
     9     8     1    1
    10     8     9    1
    11     8    12    1
    12     9    10    1
    13    10    11    1
    14    12    11    1
    15    13    33    1
    16    14    13    1
    17    14    15    1
    18    15    18    2
    19    16    17    1
    20    16    15    1
    21    19    14    2
    22    20    21    2
    23    20    19    1
    24    21    26    1
    25    22    21    1
    26    23    22    1
    27    24    23    1
    28    24    25    1
    29    26    27    1
    30    26    13    2
    31    28    33    1
    32    28    35   am
    33    29    37    1
    34    30    38    1
    35    31    38    2
    36    32    35    2
    37    33    30    2
    38    34    36    1
    39    35    34    1
    40    37    28    1
