@<TRIPOS>MOLECULE
outputs/IAG933/test6/raw/output_5177_IAG933_linker_design_.xyz
 44 48 0 0 0
SMALL
GASTEIGER

@<TRIPOS>ATOM
      1 C         -24.8550   -1.0120   30.1430 C.3     1  UNL1        0.1137
      2 C         -24.9730   -2.5050   29.7880 C.2     1  UNL1       -0.0029
      3 C         -23.9060   -3.1730   29.1460 C.2     1  UNL1       -0.0026
      4 C         -23.9890   -4.5490   28.8530 C.2     1  UNL1       -0.0003
      5 C         -25.1370   -5.2800   29.2050 C.2     1  UNL1       -0.0000
      6 C         -26.2320   -4.6110   29.7840 C.2     1  UNL1       -0.0003
      7 C         -26.1550   -3.2320   30.0650 C.2     1  UNL1       -0.0026
      8 C         -25.3870   -0.6790   31.5710 C.3     1  UNL1        0.0951
      9 C         -25.1890    0.7730   32.0280 C.3     1  UNL1        0.0209
     10 C         -25.3360    0.6840   33.5440 C.3     1  UNL1        0.0203
     11 C         -24.8290   -0.7150   33.9050 C.3     1  UNL1        0.0888
     12 N         -24.7580   -1.4810   32.6460 N.3     1  UNL1       -0.2174
     13 C         -25.6880    1.6140   26.4610 C.3     1  UNL1        0.0734
     14 C         -26.2500    2.9200   26.3950 C.2     1  UNL1        0.0549
     15 C         -25.6420    4.0930   27.1230 C.2     1  UNL1        0.2624
     16 N         -25.6140    5.2520   26.4490 N.am    1  UNL1       -0.2000
     17 C         -25.0260    6.4790   26.9630 C.3     1  UNL1        0.1388
     18 O         -25.1430    3.9660   28.2430 O.2     1  UNL1       -0.2687
     19 C         -27.4380    3.0910   25.6450 C.2     1  UNL1        0.1021
     20 N         -28.0750    2.0890   25.0030 N.2     1  UNL1       -0.2119
     21 C         -27.5430    0.8490   25.0790 C.2     1  UNL1        0.2341
     22 O         -28.1930   -0.2080   24.4770 O.2     1  UNL1       -0.4585
     23 C         -29.4600    0.0050   23.8660 C.3     1  UNL1        0.2423
     24 C         -30.0650   -1.3770   23.5730 C.3     1  UNL1        0.2292
     25 O         -30.7290   -1.8780   24.7210 O.3     1  UNL1       -0.2162
     26 C         -26.3540    0.5760   25.7770 C.3     1  UNL1        0.2401
     27 F         -25.8600   -0.6810   25.7950 F       1  UNL1       -0.2269
     28 C         -25.0511    1.1814   27.4641 C.3     1  UNL1        0.0500
     29 C         -28.2741    0.3206   29.1402 C.2     1  UNL1        0.2348
     30 N         -29.4688    0.8681   28.8953 N.am    1  UNL1       -0.2349
     31 C         -23.3821    0.3862   28.9010 C.2     1  UNL1        0.2407
     32 C         -27.1601    1.4224   29.3111 C.3     1  UNL1        0.1058
     33 O         -28.0372   -0.9159   29.1152 O.2     1  UNL1       -0.2741
     34 C         -31.4801    2.4892   29.3135 C.2     1  UNL1        0.0165
     35 C         -31.1639    3.3544   28.0870 C.2     1  UNL1        0.0014
     36 C         -30.1806    0.2068   27.7343 C.2     1  UNL1        0.0721
     37 O         -22.3752    0.1267   29.5785 O.2     1  UNL1       -0.2735
     38 C         -31.0693    1.0763   26.8383 C.2     1  UNL1        0.0165
     39 C         -25.6175    1.1203   28.8718 C.3     1  UNL1        0.0868
     40 C         -30.7388    2.5884   26.8301 C.2     1  UNL1        0.0014
     41 C         -30.3521    1.5480   29.8514 C.2     1  UNL1        0.0721
     42 C         -23.4982    0.9732   27.6846 C.3     1  UNL1        0.1579
     43 CL        -22.1352    2.0262   26.8041 Cl      1  UNL1       -0.1051
     44 N         -24.6186   -0.0111   29.2043 N.am    1  UNL1       -0.2761
@<TRIPOS>BOND
     1     1     2    1
     2     2     7    1
     3     3     2    2
     4     4     3    1
     5     4     5    2
     6     5     6    1
     7     6     7    2
     8     8     1    1
     9     8     9    1
    10     8    12    1
    11     9    10    1
    12    10    11    1
    13    12    11    1
    14    13    14    1
    15    14    15    1
    16    15    18    2
    17    16    17    1
    18    16    15    1
    19    19    14    2
    20    20    21    2
    21    20    19    1
    22    21    26    1
    23    22    21    1
    24    23    22    1
    25    24    23    1
    26    24    25    1
    27    26    27    1
    28    26    13    1
    29    28    13    1
    30    28    42    1
    31    28    39    1
    32    29    32    1
    33    30    29   am
    34    30    41    1
    35    31    44   am
    36    31    37    2
    37    33    29    2
    38    34    41    2
    39    35    34    1
    40    36    30    1
    41    38    36    2
    42    39    44    1
    43    39    32    1
    44    40    38    1
    45    40    35    2
    46    42    43    1
    47    42    31    1
    48    44     1    1
