@<TRIPOS>MOLECULE
outputs/IAG933/test6/raw/output_5179_IAG933_linker_design_.xyz
 41 44 0 0 0
SMALL
GASTEIGER

@<TRIPOS>ATOM
      1 C         -24.8550   -1.0120   30.1430 C.3     1  UNL1        0.0474
      2 C         -24.9730   -2.5050   29.7880 C.2     1  UNL1       -0.0207
      3 C         -23.9060   -3.1730   29.1460 C.2     1  UNL1       -0.0042
      4 C         -23.9890   -4.5490   28.8530 C.2     1  UNL1       -0.0003
      5 C         -25.1370   -5.2800   29.2050 C.2     1  UNL1       -0.0000
      6 C         -26.2320   -4.6110   29.7840 C.2     1  UNL1       -0.0003
      7 C         -26.1550   -3.2320   30.0650 C.2     1  UNL1       -0.0042
      8 C         -25.3870   -0.6790   31.5710 C.3     1  UNL1        0.0773
      9 C         -25.1890    0.7730   32.0280 C.3     1  UNL1        0.0192
     10 C         -25.3360    0.6840   33.5440 C.3     1  UNL1        0.0202
     11 C         -24.8290   -0.7150   33.9050 C.3     1  UNL1        0.0887
     12 N         -24.7580   -1.4810   32.6460 N.3     1  UNL1       -0.2191
     13 C         -25.6880    1.6140   26.4610 C.3     1  UNL1        0.0761
     14 C         -26.2500    2.9200   26.3950 C.2     1  UNL1        0.0552
     15 C         -25.6420    4.0930   27.1230 C.2     1  UNL1        0.2625
     16 N         -25.6140    5.2520   26.4490 N.am    1  UNL1       -0.2000
     17 C         -25.0260    6.4790   26.9630 C.3     1  UNL1        0.1388
     18 O         -25.1430    3.9660   28.2430 O.2     1  UNL1       -0.2687
     19 C         -27.4380    3.0910   25.6450 C.2     1  UNL1        0.1021
     20 N         -28.0750    2.0890   25.0030 N.2     1  UNL1       -0.2119
     21 C         -27.5430    0.8490   25.0790 C.2     1  UNL1        0.2341
     22 O         -28.1930   -0.2080   24.4770 O.2     1  UNL1       -0.4585
     23 C         -29.4600    0.0050   23.8660 C.3     1  UNL1        0.2423
     24 C         -30.0650   -1.3770   23.5730 C.3     1  UNL1        0.2292
     25 O         -30.7290   -1.8780   24.7210 O.3     1  UNL1       -0.2162
     26 C         -26.3540    0.5760   25.7770 C.3     1  UNL1        0.2404
     27 F         -25.8600   -0.6810   25.7950 F       1  UNL1       -0.2269
     28 N         -27.4171    2.9017   31.3327 N.am    1  UNL1       -0.0675
     29 C         -25.0121    0.9850   27.7068 C.3     1  UNL1        0.0574
     30 C         -23.6181    1.0194   27.6251 C.2     1  UNL1        0.0875
     31 O         -27.6388   -0.6485   28.8402 O.2     1  UNL1       -0.2728
     32 N         -22.8650    0.4283   28.6501 N.pl3   1  UNL1       -0.2121
     33 C         -25.3536   -0.0219   28.9252 C.3     1  UNL1        0.0899
     34 C         -21.6206    0.9852   28.5683 C.2     1  UNL1        0.0887
     35 C         -27.7905    1.7747   30.6847 C.2     1  UNL1        0.3655
     36 C         -22.6946    1.7923   26.7755 C.2     1  UNL1        0.2081
     37 C         -21.4637    1.8058   27.4158 C.2     1  UNL1        0.0608
     38 N         -27.1480    1.5017   29.5248 N.am    1  UNL1       -0.1248
     39 C         -26.8684    0.2058   29.1601 C.2     1  UNL1        0.2495
     40 O         -28.6569    1.0530   31.1528 O.2     1  UNL1       -0.2470
     41 O         -23.0574    2.4122   25.6273 O.2     1  UNL1       -0.2855
@<TRIPOS>BOND
     1     1    33    1
     2     2     7    1
     3     2     1    1
     4     3     2    2
     5     4     3    1
     6     4     5    2
     7     5     6    1
     8     6     7    2
     9     8     1    1
    10     8     9    1
    11     8    12    1
    12     9    10    1
    13    10    11    1
    14    12    11    1
    15    13    29    1
    16    14    13    1
    17    14    15    1
    18    15    18    2
    19    16    17    1
    20    16    15    1
    21    19    14    2
    22    20    21    2
    23    20    19    1
    24    21    26    1
    25    22    21    1
    26    23    22    1
    27    24    23    1
    28    24    25    1
    29    26    27    1
    30    26    13    1
    31    29    33    1
    32    30    29    1
    33    30    32    1
    34    31    39    2
    35    33    39    1
    36    34    32    1
    37    35    40    2
    38    35    28    1
    39    36    37    1
    40    36    30    2
    41    37    34    2
    42    38    35    1
    43    39    38    1
    44    41    36    1
