@<TRIPOS>MOLECULE
No_518-gen_results/8p0m/2024-11-27-11-27-31/
 19 20 0 0 0
SMALL
GASTEIGER

@<TRIPOS>ATOM
      1 C         -28.0162   -0.8135   28.8779 C.3     1  UNL1        0.0355
      2 C         -28.4690   -0.7850   29.8287 C.3     1  UNL1        0.1821
      3 C         -26.5042   -0.7777   28.8766 C.3     1  UNL1        0.0028
      4 C         -25.8305   -1.6807   29.6849 C.3     1  UNL1        0.0027
      5 C         -28.1490   -1.8854   30.9031 C.3     1  UNL1        0.1821
      6 C         -26.6460   -1.9561   31.0330 C.3     1  UNL1        0.0355
      7 O         -28.6274   -1.7308   32.1858 O.3     1  UNL1       -0.2204
      8 O         -30.0168   -0.9269   29.8771 O.3     1  UNL1       -0.2204
      9 C         -24.6534   -2.3030   29.3807 C.3     1  UNL1        0.0001
     10 C         -23.4721   -1.5067   29.2502 C.3     1  UNL1        0.0003
     11 C         -23.6749   -0.2225   29.5643 C.3     1  UNL1        0.0044
     12 C         -23.1756    0.3517   30.6543 C.3     1  UNL1        0.0003
     13 C         -23.0637    0.7183   28.3441 C.3     1  UNL1        0.0263
     14 C         -23.5738    1.3859   27.5793 C.ar    1  UNL1       -0.0222
     15 C         -25.0068    1.6417   27.5306 C.ar    1  UNL1       -0.0043
     16 C         -25.5755    2.3286   26.4139 C.ar    1  UNL1       -0.0003
     17 C         -22.9631    2.0118   26.4237 C.ar    1  UNL1       -0.0043
     18 C         -23.4469    2.8252   25.4787 C.ar    1  UNL1       -0.0003
     19 C         -24.8059    3.0399   25.5751 C.ar    1  UNL1       -0.0000
@<TRIPOS>BOND
     1     1     2    1
     2     1     3    1
     3     3     4    1
     4     2     5    1
     5     4     6    1
     6     5     6    1
     7     5     7    1
     8     2     8    1
     9     4     9    1
    10     9    10    1
    11    10    11    1
    12    11    12    1
    13    11    13    1
    14    13    14    1
    15    14    15   ar
    16    15    16   ar
    17    16    19   ar
    18    19    18   ar
    19    18    17   ar
    20    17    14   ar
