@<TRIPOS>MOLECULE
outputs/IAG933/test6/raw/output_5184_IAG933_linker_design_.xyz
 41 44 0 0 0
SMALL
GASTEIGER

@<TRIPOS>ATOM
      1 C         -24.8550   -1.0120   30.1430 C.3     1  UNL1        0.0529
      2 C         -24.9730   -2.5050   29.7880 C.2     1  UNL1       -0.0198
      3 C         -23.9060   -3.1730   29.1460 C.2     1  UNL1       -0.0042
      4 C         -23.9890   -4.5490   28.8530 C.2     1  UNL1       -0.0003
      5 C         -25.1370   -5.2800   29.2050 C.2     1  UNL1       -0.0000
      6 C         -26.2320   -4.6110   29.7840 C.2     1  UNL1       -0.0003
      7 C         -26.1550   -3.2320   30.0650 C.2     1  UNL1       -0.0042
      8 C         -25.3870   -0.6790   31.5710 C.3     1  UNL1        0.0781
      9 C         -25.1890    0.7730   32.0280 C.3     1  UNL1        0.0192
     10 C         -25.3360    0.6840   33.5440 C.3     1  UNL1        0.0202
     11 C         -24.8290   -0.7150   33.9050 C.3     1  UNL1        0.0887
     12 N         -24.7580   -1.4810   32.6460 N.3     1  UNL1       -0.2191
     13 C         -25.6880    1.6140   26.4610 C.3     1  UNL1        0.0764
     14 C         -26.2500    2.9200   26.3950 C.2     1  UNL1        0.0552
     15 C         -25.6420    4.0930   27.1230 C.2     1  UNL1        0.2625
     16 N         -25.6140    5.2520   26.4490 N.am    1  UNL1       -0.2000
     17 C         -25.0260    6.4790   26.9630 C.3     1  UNL1        0.1388
     18 O         -25.1430    3.9660   28.2430 O.2     1  UNL1       -0.2687
     19 C         -27.4380    3.0910   25.6450 C.2     1  UNL1        0.1022
     20 N         -28.0750    2.0890   25.0030 N.2     1  UNL1       -0.2119
     21 C         -27.5430    0.8490   25.0790 C.2     1  UNL1        0.2341
     22 O         -28.1930   -0.2080   24.4770 O.2     1  UNL1       -0.4585
     23 C         -29.4600    0.0050   23.8660 C.3     1  UNL1        0.2423
     24 C         -30.0650   -1.3770   23.5730 C.3     1  UNL1        0.2292
     25 O         -30.7290   -1.8780   24.7210 O.3     1  UNL1       -0.2162
     26 C         -26.3540    0.5760   25.7770 C.3     1  UNL1        0.2404
     27 F         -25.8600   -0.6810   25.7950 F       1  UNL1       -0.2269
     28 N         -24.1895    0.3082   28.5615 N.3     1  UNL1       -0.2730
     29 CL        -23.0720    2.8214   24.8932 Cl      1  UNL1       -0.0872
     30 C         -22.9842    0.5464   29.3442 C.3     1  UNL1        0.0768
     31 C         -25.5485   -0.1696   29.0442 C.3     1  UNL1        0.0629
     32 C         -24.2258    0.5703   27.7327 C.3     1  UNL1        0.0777
     33 O         -31.1329    0.9577   27.9611 O.2     1  UNL1       -0.2883
     34 C         -29.9956    0.8518   28.5097 C.2     1  UNL1        0.2074
     35 C         -22.0543    1.7892   27.2329 C.2     1  UNL1       -0.0176
     36 C         -27.8281    0.4266   29.5585 C.3     1  UNL1        0.0096
     37 C         -26.5062    1.0219   29.0979 C.3     1  UNL1        0.0168
     38 C         -23.1582    1.8843   26.3732 C.2     1  UNL1        0.0326
     39 C         -28.9058   -0.1952   28.6609 C.3     1  UNL1        0.0723
     40 C         -24.2907    1.3978   26.7858 C.3     1  UNL1        0.0561
     41 C         -22.0772    1.2345   28.4695 C.3     1  UNL1        0.0439
@<TRIPOS>BOND
     1     1    31    1
     2     2     7    1
     3     2     1    1
     4     3     2    2
     5     4     3    1
     6     4     5    2
     7     5     6    1
     8     6     7    2
     9     8     1    1
    10     8     9    1
    11     8    12    1
    12     9    10    1
    13    10    11    1
    14    12    11    1
    15    13    14    1
    16    13    40    1
    17    14    15    1
    18    15    18    2
    19    16    17    1
    20    16    15    1
    21    19    14    2
    22    20    21    2
    23    20    19    1
    24    21    26    1
    25    22    21    1
    26    23    22    1
    27    24    23    1
    28    24    25    1
    29    26    27    1
    30    26    13    1
    31    28    31    1
    32    28    30    1
    33    29    38    1
    34    31    37    1
    35    32    28    1
    36    33    34    2
    37    34    39    1
    38    35    41    1
    39    37    36    1
    40    38    40    1
    41    38    35    2
    42    39    36    1
    43    40    32    1
    44    41    30    1
