@<TRIPOS>MOLECULE
outputs/IAG933/test6/raw/output_5191_IAG933_linker_design_.xyz
 44 46 0 0 0
SMALL
GASTEIGER

@<TRIPOS>ATOM
      1 C         -24.8550   -1.0120   30.1430 C.3     1  UNL1        0.0548
      2 C         -24.9730   -2.5050   29.7880 C.2     1  UNL1       -0.0198
      3 C         -23.9060   -3.1730   29.1460 C.2     1  UNL1       -0.0042
      4 C         -23.9890   -4.5490   28.8530 C.2     1  UNL1       -0.0003
      5 C         -25.1370   -5.2800   29.2050 C.2     1  UNL1       -0.0000
      6 C         -26.2320   -4.6110   29.7840 C.2     1  UNL1       -0.0003
      7 C         -26.1550   -3.2320   30.0650 C.2     1  UNL1       -0.0042
      8 C         -25.3870   -0.6790   31.5710 C.3     1  UNL1        0.0782
      9 C         -25.1890    0.7730   32.0280 C.3     1  UNL1        0.0192
     10 C         -25.3360    0.6840   33.5440 C.3     1  UNL1        0.0202
     11 C         -24.8290   -0.7150   33.9050 C.3     1  UNL1        0.0887
     12 N         -24.7580   -1.4810   32.6460 N.3     1  UNL1       -0.2191
     13 C         -25.6880    1.6140   26.4610 C.2     1  UNL1        0.0317
     14 C         -26.2500    2.9200   26.3950 C.2     1  UNL1        0.0739
     15 C         -25.6420    4.0930   27.1230 C.2     1  UNL1        0.2662
     16 N         -25.6140    5.2520   26.4490 N.am    1  UNL1       -0.1997
     17 C         -25.0260    6.4790   26.9630 C.3     1  UNL1        0.1388
     18 O         -25.1430    3.9660   28.2430 O.2     1  UNL1       -0.2683
     19 C         -27.4380    3.0910   25.6450 C.2     1  UNL1        0.1065
     20 N         -28.0750    2.0890   25.0030 N.2     1  UNL1       -0.2081
     21 C         -27.5430    0.8490   25.0790 C.2     1  UNL1        0.2530
     22 O         -28.1930   -0.2080   24.4770 O.2     1  UNL1       -0.4558
     23 C         -29.4600    0.0050   23.8660 C.3     1  UNL1        0.2426
     24 C         -30.0650   -1.3770   23.5730 C.3     1  UNL1        0.2292
     25 O         -30.7290   -1.8780   24.7210 O.3     1  UNL1       -0.2162
     26 C         -26.3540    0.5760   25.7770 C.2     1  UNL1        0.1904
     27 F         -25.8600   -0.6810   25.7950 F       1  UNL1       -0.1995
     28 C         -23.1425    1.6510   26.6339 C.3     1  UNL1        0.0572
     29 C         -25.1410   -0.2581   28.8011 C.3     1  UNL1        0.0875
     30 N         -24.5550    1.0160   28.5879 N.3     1  UNL1       -0.2154
     31 C         -22.1794    1.7097   27.7414 C.3     1  UNL1        0.1627
     32 C         -32.0818    2.2289   30.4241 C.3     1  UNL1        0.1111
     33 F         -20.8789    1.5832   27.5729 F       1  UNL1       -0.2372
     34 N         -28.4408    1.2237   30.0026 N.am    1  UNL1       -0.2777
     35 C         -29.6733    1.3183   30.8507 C.3     1  UNL1        0.0950
     36 C         -30.8990    1.3432   29.9779 C.3     1  UNL1        0.0420
     37 C         -21.5998    0.3488   27.8750 C.3     1  UNL1        0.0353
     38 O         -28.8290   -0.6606   28.7217 O.2     1  UNL1       -0.2748
     39 C         -28.0781    0.1907   29.1896 C.2     1  UNL1        0.2271
     40 C         -26.6660   -0.0867   28.6696 C.3     1  UNL1        0.1030
     41 C         -27.7212    2.4822   30.0805 C.3     1  UNL1        0.1148
     42 C         -24.4159    1.2047   27.0620 C.3     1  UNL1        0.1001
     43 N         -31.7345    3.6121   30.9082 N.3     1  UNL1       -0.1313
     44 C         -21.8227   -0.1254   29.3107 C.3     1  UNL1        0.0029
@<TRIPOS>BOND
     1     1    29    1
     2     2     7    1
     3     2     1    1
     4     3     2    2
     5     4     3    1
     6     4     5    2
     7     5     6    1
     8     6     7    2
     9     8     1    1
    10     8     9    1
    11     8    12    1
    12     9    10    1
    13    10    11    1
    14    12    11    1
    15    13    42    1
    16    14    13    1
    17    14    15    1
    18    15    18    2
    19    16    17    1
    20    16    15    1
    21    19    14    2
    22    20    21    2
    23    20    19    1
    24    21    26    1
    25    22    21    1
    26    23    22    1
    27    24    23    1
    28    24    25    1
    29    26    27    1
    30    26    13    2
    31    28    31    1
    32    29    40    1
    33    30    29    1
    34    31    33    1
    35    31    37    1
    36    32    43    1
    37    34    41    1
    38    34    35    1
    39    36    32    1
    40    36    35    1
    41    37    44    1
    42    38    39    2
    43    39    34   am
    44    40    39    1
    45    42    28    1
    46    42    30    1
