@<TRIPOS>MOLECULE
outputs/IAG933/test6/raw/output_5197_IAG933_linker_design_.xyz
 45 49 0 0 0
SMALL
GASTEIGER

@<TRIPOS>ATOM
      1 C         -24.8550   -1.0120   30.1430 C.3     1  UNL1        0.0639
      2 C         -24.9730   -2.5050   29.7880 C.2     1  UNL1       -0.0170
      3 C         -23.9060   -3.1730   29.1460 C.2     1  UNL1       -0.0039
      4 C         -23.9890   -4.5490   28.8530 C.2     1  UNL1       -0.0003
      5 C         -25.1370   -5.2800   29.2050 C.2     1  UNL1       -0.0000
      6 C         -26.2320   -4.6110   29.7840 C.2     1  UNL1       -0.0003
      7 C         -26.1550   -3.2320   30.0650 C.2     1  UNL1       -0.0039
      8 C         -25.3870   -0.6790   31.5710 C.3     1  UNL1        0.0810
      9 C         -25.1890    0.7730   32.0280 C.3     1  UNL1        0.0195
     10 C         -25.3360    0.6840   33.5440 C.3     1  UNL1        0.0203
     11 C         -24.8290   -0.7150   33.9050 C.3     1  UNL1        0.0887
     12 N         -24.7580   -1.4810   32.6460 N.3     1  UNL1       -0.2188
     13 C         -25.6880    1.6140   26.4610 C.3     1  UNL1        0.1552
     14 C         -26.2500    2.9200   26.3950 C.2     1  UNL1        0.0756
     15 C         -25.6420    4.0930   27.1230 C.2     1  UNL1        0.2642
     16 N         -25.6140    5.2520   26.4490 N.am    1  UNL1       -0.1999
     17 C         -25.0260    6.4790   26.9630 C.3     1  UNL1        0.1388
     18 O         -25.1430    3.9660   28.2430 O.2     1  UNL1       -0.2686
     19 C         -27.4380    3.0910   25.6450 C.2     1  UNL1        0.1040
     20 N         -28.0750    2.0890   25.0030 N.2     1  UNL1       -0.2117
     21 C         -27.5430    0.8490   25.0790 C.2     1  UNL1        0.2361
     22 O         -28.1930   -0.2080   24.4770 O.2     1  UNL1       -0.4585
     23 C         -29.4600    0.0050   23.8660 C.3     1  UNL1        0.2423
     24 C         -30.0650   -1.3770   23.5730 C.3     1  UNL1        0.2292
     25 O         -30.7290   -1.8780   24.7210 O.3     1  UNL1       -0.2162
     26 C         -26.3540    0.5760   25.7770 C.3     1  UNL1        0.2606
     27 F         -25.8600   -0.6810   25.7950 F       1  UNL1       -0.2248
     28 C         -23.3192    0.4204   28.5806 C.ar    1  UNL1        0.1542
     29 C         -23.1021    1.6633   26.1505 C.3     1  UNL1        0.3200
     30 C         -23.7049    1.2012   27.2776 C.ar    1  UNL1        0.1264
     31 C         -27.2523    0.5031   29.2505 C.3     1  UNL1        0.0493
     32 F         -22.3068    0.2197   29.3925 F       1  UNL1       -0.2031
     33 C         -21.0399    2.4502   26.8491 C.3     1  UNL1        0.1455
     34 C         -28.5426    4.5173   29.3458 C.3     1  UNL1        0.1144
     35 C         -27.6143    1.8508   29.7407 C.3     1  UNL1        0.0450
     36 C         -20.7651    1.5126   27.9412 C.3     1  UNL1        0.0348
     37 C         -24.5973   -0.0403   29.0940 C.ar    1  UNL1        0.0233
     38 C         -27.2606    4.2114   30.0713 C.2     1  UNL1       -0.0119
     39 N         -29.5596    3.4937   29.1553 N.3     1  UNL1       -0.2129
     40 C         -26.8817    2.8493   30.3299 C.2     1  UNL1       -0.0278
     41 C         -25.7221    0.6028   28.4694 C.ar    1  UNL1        0.0362
     42 N         -24.9721    1.2618   27.3990 N.ar    1  UNL1       -0.3230
     43 O         -21.8737    2.2795   25.9355 O.3     1  UNL1       -0.3224
     44 C         -29.1314    2.1114   29.5635 C.3     1  UNL1        0.0938
     45 F         -23.5280    1.5894   24.9847 F       1  UNL1       -0.1970
@<TRIPOS>BOND
     1     1    37    1
     2     2     7    1
     3     2     1    1
     4     3     2    2
     5     4     3    1
     6     4     5    2
     7     5     6    1
     8     6     7    2
     9     8     1    1
    10     8     9    1
    11     8    12    1
    12     9    10    1
    13    10    11    1
    14    12    11    1
    15    13    42    1
    16    14    13    1
    17    14    15    1
    18    15    18    2
    19    16    17    1
    20    16    15    1
    21    19    14    2
    22    20    21    2
    23    20    19    1
    24    21    26    1
    25    22    21    1
    26    23    22    1
    27    24    23    1
    28    24    25    1
    29    26    27    1
    30    26    13    1
    31    28    37   ar
    32    28    32    1
    33    29    45    1
    34    29    30    1
    35    30    42   ar
    36    30    28   ar
    37    33    36    1
    38    34    38    1
    39    35    31    1
    40    35    40    1
    41    38    40    2
    42    39    34    1
    43    39    44    1
    44    41    37   ar
    45    41    31    1
    46    42    41   ar
    47    43    29    1
    48    43    33    1
    49    44    35    1
