@<TRIPOS>MOLECULE
outputs/IAG933/test6/raw/output_52_IAG933_linker_design_.xyz
 39 42 0 0 0
SMALL
GASTEIGER

@<TRIPOS>ATOM
      1 C         -24.8550   -1.0120   30.1430 C.3     1  UNL1        0.1163
      2 C         -24.9730   -2.5050   29.7880 C.2     1  UNL1       -0.0125
      3 C         -23.9060   -3.1730   29.1460 C.2     1  UNL1       -0.0038
      4 C         -23.9890   -4.5490   28.8530 C.2     1  UNL1       -0.0003
      5 C         -25.1370   -5.2800   29.2050 C.2     1  UNL1       -0.0000
      6 C         -26.2320   -4.6110   29.7840 C.2     1  UNL1       -0.0003
      7 C         -26.1550   -3.2320   30.0650 C.2     1  UNL1       -0.0038
      8 C         -25.3870   -0.6790   31.5710 C.3     1  UNL1        0.0855
      9 C         -25.1890    0.7730   32.0280 C.3     1  UNL1        0.0197
     10 C         -25.3360    0.6840   33.5440 C.3     1  UNL1        0.0203
     11 C         -24.8290   -0.7150   33.9050 C.3     1  UNL1        0.0887
     12 N         -24.7580   -1.4810   32.6460 N.3     1  UNL1       -0.2186
     13 C         -25.6880    1.6140   26.4610 C.3     1  UNL1        0.0726
     14 C         -26.2500    2.9200   26.3950 C.2     1  UNL1        0.0549
     15 C         -25.6420    4.0930   27.1230 C.2     1  UNL1        0.2624
     16 N         -25.6140    5.2520   26.4490 N.am    1  UNL1       -0.2000
     17 C         -25.0260    6.4790   26.9630 C.3     1  UNL1        0.1388
     18 O         -25.1430    3.9660   28.2430 O.2     1  UNL1       -0.2687
     19 C         -27.4380    3.0910   25.6450 C.2     1  UNL1        0.1021
     20 N         -28.0750    2.0890   25.0030 N.2     1  UNL1       -0.2119
     21 C         -27.5430    0.8490   25.0790 C.2     1  UNL1        0.2341
     22 O         -28.1930   -0.2080   24.4770 O.2     1  UNL1       -0.4585
     23 C         -29.4600    0.0050   23.8660 C.3     1  UNL1        0.2423
     24 C         -30.0650   -1.3770   23.5730 C.3     1  UNL1        0.2292
     25 O         -30.7290   -1.8780   24.7210 O.3     1  UNL1       -0.2162
     26 C         -26.3540    0.5760   25.7770 C.3     1  UNL1        0.2401
     27 F         -25.8600   -0.6810   25.7950 F       1  UNL1       -0.2269
     28 N         -25.4644    1.0235   28.9871 N.am    1  UNL1       -0.2050
     29 C         -25.9255   -0.1399   29.2370 C.2     1  UNL1        0.2464
     30 C         -23.2581    1.9019   26.7855 C.3     1  UNL1        0.1312
     31 C         -23.6903    1.5032   27.8297 C.3     1  UNL1        0.0526
     32 C         -24.4259    1.8771   29.3290 C.3     1  UNL1        0.1176
     33 O         -21.8153   -0.1784   28.3046 O.3     1  UNL1       -0.3510
     34 C         -21.8431   -0.4607   29.7211 C.3     1  UNL1        0.1741
     35 O         -23.1428    2.3955   25.1979 O.3     1  UNL1       -0.2255
     36 C         -24.3537    1.4333   26.8792 C.3     1  UNL1        0.0397
     37 O         -27.1031   -0.4871   29.0138 O.2     1  UNL1       -0.2730
     38 C         -21.2214    1.0828   27.7056 C.3     1  UNL1        0.1448
     39 C         -21.8832    1.8634   26.7637 C.3     1  UNL1        0.0625
@<TRIPOS>BOND
     1     1    29    1
     2     2     7    1
     3     2     1    1
     4     3     2    2
     5     4     3    1
     6     4     5    2
     7     5     6    1
     8     6     7    2
     9     8     1    1
    10     8     9    1
    11     8    12    1
    12     9    10    1
    13    10    11    1
    14    12    11    1
    15    13    14    1
    16    14    15    1
    17    15    18    2
    18    16    17    1
    19    16    15    1
    20    19    14    2
    21    20    21    2
    22    20    19    1
    23    21    26    1
    24    22    21    1
    25    23    22    1
    26    24    23    1
    27    24    25    1
    28    26    27    1
    29    26    13    1
    30    28    29    1
    31    28    32    1
    32    30    35    1
    33    30    36    1
    34    30    31    1
    35    31    32    1
    36    33    34    1
    37    36    13    1
    38    36    31    1
    39    37    29    2
    40    38    33    1
    41    39    30    1
    42    39    38    1
