@<TRIPOS>MOLECULE
No_520-gen_results/8p0m/2024-11-27-11-27-31/
 15 17 0 0 0
SMALL
GASTEIGER

@<TRIPOS>ATOM
      1 C         -28.0162   -0.8135   28.8779 C.ar    1  UNL1        0.0174
      2 C         -28.4690   -0.7850   29.8287 C.ar    1  UNL1        0.0014
      3 C         -26.5455   -0.8762   28.8500 C.ar    1  UNL1        0.0800
      4 C         -25.8041   -1.0324   30.0571 C.ar    1  UNL1       -0.0044
      5 C         -26.5373   -1.0386   31.2171 C.ar    1  UNL1       -0.0029
      6 C         -27.8843   -0.9532   31.1862 C.ar    1  UNL1       -0.0002
      7 C         -24.3655   -1.1134   30.0483 C.3     1  UNL1        0.0455
      8 C         -23.6254   -0.9435   29.0230 C.3     1  UNL1        0.0846
      9 C         -22.3775   -0.3348   29.0683 C.3     1  UNL1        0.0183
     10 C         -21.9934    0.7172   28.8174 C.3     1  UNL1        0.0058
     11 C         -22.8988    1.6876   28.2449 C.3     1  UNL1        0.0542
     12 C         -23.9977    1.3611   27.5812 C.3     1  UNL1        0.2386
     13 N         -24.4075   -0.4879   27.9131 N.3     1  UNL1       -0.1587
     14 N         -25.7580   -0.5682   27.7294 N.pl3   1  UNL1       -0.1620
     15 F         -24.7322    1.8858   26.8711 F       1  UNL1       -0.2175
@<TRIPOS>BOND
     1     4     7    1
     2     8     9    1
     3    10    11    1
     4     8    13    1
     5    12    13    1
     6     3    14    1
     7    13    14    1
     8    12    15    1
     9     9    10    1
    10    11    12    1
    11     8     7    1
    12     1     2   ar
    13     2     6   ar
    14     6     5   ar
    15     5     4   ar
    16     4     3   ar
    17     3     1   ar
