@<TRIPOS>MOLECULE
outputs/IAG933/test6/raw/output_5206_IAG933_linker_design_.xyz
 45 49 0 0 0
SMALL
GASTEIGER

@<TRIPOS>ATOM
      1 C         -24.8550   -1.0120   30.1430 C.3     1  UNL1        0.0612
      2 C         -24.9730   -2.5050   29.7880 C.2     1  UNL1       -0.0194
      3 C         -23.9060   -3.1730   29.1460 C.2     1  UNL1       -0.0042
      4 C         -23.9890   -4.5490   28.8530 C.2     1  UNL1       -0.0003
      5 C         -25.1370   -5.2800   29.2050 C.2     1  UNL1       -0.0000
      6 C         -26.2320   -4.6110   29.7840 C.2     1  UNL1       -0.0003
      7 C         -26.1550   -3.2320   30.0650 C.2     1  UNL1       -0.0042
      8 C         -25.3870   -0.6790   31.5710 C.3     1  UNL1        0.0786
      9 C         -25.1890    0.7730   32.0280 C.3     1  UNL1        0.0193
     10 C         -25.3360    0.6840   33.5440 C.3     1  UNL1        0.0202
     11 C         -24.8290   -0.7150   33.9050 C.3     1  UNL1        0.0887
     12 N         -24.7580   -1.4810   32.6460 N.3     1  UNL1       -0.2191
     13 C         -25.6880    1.6140   26.4610 C.2     1  UNL1        0.0423
     14 C         -26.2500    2.9200   26.3950 C.2     1  UNL1        0.0767
     15 C         -25.6420    4.0930   27.1230 C.2     1  UNL1        0.2664
     16 N         -25.6140    5.2520   26.4490 N.am    1  UNL1       -0.1997
     17 C         -25.0260    6.4790   26.9630 C.3     1  UNL1        0.1388
     18 O         -25.1430    3.9660   28.2430 O.2     1  UNL1       -0.2683
     19 C         -27.4380    3.0910   25.6450 C.2     1  UNL1        0.1067
     20 N         -28.0750    2.0890   25.0030 N.2     1  UNL1       -0.2081
     21 C         -27.5430    0.8490   25.0790 C.2     1  UNL1        0.2533
     22 O         -28.1930   -0.2080   24.4770 O.2     1  UNL1       -0.4558
     23 C         -29.4600    0.0050   23.8660 C.3     1  UNL1        0.2426
     24 C         -30.0650   -1.3770   23.5730 C.3     1  UNL1        0.2292
     25 O         -30.7290   -1.8780   24.7210 O.3     1  UNL1       -0.2162
     26 C         -26.3540    0.5760   25.7770 C.2     1  UNL1        0.1932
     27 F         -25.8600   -0.6810   25.7950 F       1  UNL1       -0.1992
     28 C         -30.1432    1.2331   28.3250 C.3     1  UNL1        0.0025
     29 C         -21.8901    1.3632   27.5887 C.2     1  UNL1        0.0619
     30 C         -27.5140    0.5871   28.8262 C.3     1  UNL1        0.2477
     31 N         -26.8633    0.0104   29.0242 N.3     1  UNL1       -0.0985
     32 C         -30.9884    0.1045   28.4183 C.3     1  UNL1        0.0001
     33 C         -23.0126    1.4636   26.7876 C.2     1  UNL1        0.1916
     34 C         -22.1473    1.0207   28.8585 C.2     1  UNL1        0.1018
     35 O         -22.5161    1.7862   25.4981 O.2     1  UNL1       -0.2919
     36 N         -23.3682    0.7494   29.2978 N.2     1  UNL1       -0.2465
     37 C         -24.3697    1.2591   27.2199 C.2     1  UNL1        0.0557
     38 O         -27.8487   -0.5567   28.9791 O.3     1  UNL1       -0.1153
     39 C         -29.6953    1.4152   29.8432 C.3     1  UNL1        0.0321
     40 C         -25.4669   -0.0760   29.1725 C.3     1  UNL1        0.1350
     41 C         -24.4884    0.6910   28.5456 C.2     1  UNL1        0.0794
     42 F         -23.3186    1.9758   24.5919 F       1  UNL1        0.0138
     43 C         -28.3434    2.1442   30.1576 C.3     1  UNL1        0.1440
     44 O         -27.5658    2.0385   28.9678 O.3     1  UNL1       -0.3358
     45 C         -29.9508    0.2364   27.2117 C.3     1  UNL1        0.0001
@<TRIPOS>BOND
     1     1    40    1
     2     2     7    1
     3     2     1    1
     4     3     2    2
     5     4     3    1
     6     4     5    2
     7     5     6    1
     8     6     7    2
     9     8     1    1
    10     8     9    1
    11     8    12    1
    12     9    10    1
    13    10    11    1
    14    12    11    1
    15    13    37    1
    16    14    13    1
    17    14    15    1
    18    15    18    2
    19    16    17    1
    20    16    15    1
    21    19    14    2
    22    20    21    2
    23    20    19    1
    24    21    26    1
    25    22    21    1
    26    23    22    1
    27    24    23    1
    28    24    25    1
    29    26    27    1
    30    26    13    2
    31    28    32    1
    32    28    39    1
    33    29    34    1
    34    30    44    1
    35    30    31    1
    36    33    37    1
    37    33    29    2
    38    34    36    2
    39    35    33    1
    40    37    41    2
    41    38    31    1
    42    39    43    1
    43    40    31    1
    44    41    40    1
    45    41    36    1
    46    42    35    1
    47    44    43    1
    48    45    28    1
    49    45    32    1
