@<TRIPOS>MOLECULE
outputs/IAG933/test6/raw/output_5207_IAG933_linker_design_.xyz
 43 46 0 0 0
SMALL
GASTEIGER

@<TRIPOS>ATOM
      1 C         -24.8550   -1.0120   30.1430 C.3     1  UNL1        0.2526
      2 C         -24.9730   -2.5050   29.7880 C.2     1  UNL1        0.0275
      3 C         -23.9060   -3.1730   29.1460 C.2     1  UNL1       -0.0001
      4 C         -23.9890   -4.5490   28.8530 C.2     1  UNL1       -0.0002
      5 C         -25.1370   -5.2800   29.2050 C.2     1  UNL1       -0.0000
      6 C         -26.2320   -4.6110   29.7840 C.2     1  UNL1       -0.0002
      7 C         -26.1550   -3.2320   30.0650 C.2     1  UNL1       -0.0001
      8 C         -25.3870   -0.6790   31.5710 C.3     1  UNL1        0.1260
      9 C         -25.1890    0.7730   32.0280 C.3     1  UNL1        0.0237
     10 C         -25.3360    0.6840   33.5440 C.3     1  UNL1        0.0204
     11 C         -24.8290   -0.7150   33.9050 C.3     1  UNL1        0.0889
     12 N         -24.7580   -1.4810   32.6460 N.3     1  UNL1       -0.2147
     13 C         -25.6880    1.6140   26.4610 C.3     1  UNL1        0.0842
     14 C         -26.2500    2.9200   26.3950 C.2     1  UNL1        0.0555
     15 C         -25.6420    4.0930   27.1230 C.2     1  UNL1        0.2625
     16 N         -25.6140    5.2520   26.4490 N.am    1  UNL1       -0.2000
     17 C         -25.0260    6.4790   26.9630 C.3     1  UNL1        0.1388
     18 O         -25.1430    3.9660   28.2430 O.2     1  UNL1       -0.2687
     19 C         -27.4380    3.0910   25.6450 C.2     1  UNL1        0.1022
     20 N         -28.0750    2.0890   25.0030 N.2     1  UNL1       -0.2119
     21 C         -27.5430    0.8490   25.0790 C.2     1  UNL1        0.2341
     22 O         -28.1930   -0.2080   24.4770 O.2     1  UNL1       -0.4585
     23 C         -29.4600    0.0050   23.8660 C.3     1  UNL1        0.2423
     24 C         -30.0650   -1.3770   23.5730 C.3     1  UNL1        0.2292
     25 O         -30.7290   -1.8780   24.7210 O.3     1  UNL1       -0.2162
     26 C         -26.3540    0.5760   25.7770 C.3     1  UNL1        0.2406
     27 F         -25.8600   -0.6810   25.7950 F       1  UNL1       -0.2269
     28 C         -27.8815    1.4243   29.0635 C.2     1  UNL1        0.2392
     29 C         -25.4394    0.8430   28.7205 C.2     1  UNL1        0.3394
     30 C         -28.5857    2.4179   29.6635 C.2     1  UNL1        0.1102
     31 C         -26.8268    4.1043   30.2344 C.3     1  UNL1        0.0910
     32 C         -22.2943    2.1188   24.9911 C.3     1  UNL1        0.1740
     33 N         -24.7195   -0.1996   29.2264 N.2     1  UNL1       -0.0642
     34 C         -21.0665    1.6491   27.7905 C.3     1  UNL1        0.0026
     35 O         -23.3557    2.2681   26.0060 O.3     1  UNL1       -0.3530
     36 N         -28.0514    3.5613   30.2956 N.pl3   1  UNL1       -0.3036
     37 C         -24.7953    1.2883   27.5429 C.3     1  UNL1        0.1438
     38 C         -23.4097    1.1885   27.0119 C.3     1  UNL1        0.1273
     39 C         -22.5421    1.6572   28.0916 C.3     1  UNL1        0.0302
     40 C         -28.6903    4.2350   31.3175 C.3     1  UNL1        0.0910
     41 C         -27.6719    4.9862   32.0672 C.3     1  UNL1        0.0232
     42 N         -26.5104    1.4187   29.1186 N.pl3   1  UNL1       -0.0050
     43 C         -26.5253    4.6147   31.5171 C.3     1  UNL1        0.0232
@<TRIPOS>BOND
     1     1    33    1
     2     2     7    1
     3     2     1    1
     4     3     2    2
     5     4     3    1
     6     4     5    2
     7     5     6    1
     8     6     7    2
     9     8     1    1
    10     8     9    1
    11     8    12    1
    12     9    10    1
    13    10    11    1
    14    12    11    1
    15    13    37    1
    16    14    13    1
    17    14    15    1
    18    15    18    2
    19    16    17    1
    20    16    15    1
    21    19    14    2
    22    20    21    2
    23    20    19    1
    24    21    26    1
    25    22    21    1
    26    23    22    1
    27    24    23    1
    28    24    25    1
    29    26    27    1
    30    26    13    1
    31    28    42    1
    32    28    30    2
    33    29    42    1
    34    29    33    2
    35    30    36    1
    36    31    36    1
    37    31    43    1
    38    32    35    1
    39    34    39    1
    40    35    38    1
    41    36    40    1
    42    37    29    1
    43    38    37    1
    44    38    39    1
    45    40    41    1
    46    43    41    1
