@<TRIPOS>MOLECULE
outputs/IAG933/test6/raw/output_521_IAG933_linker_design_.xyz
 43 46 0 0 0
SMALL
GASTEIGER

@<TRIPOS>ATOM
      1 C         -24.8550   -1.0120   30.1430 C.3     1  UNL1        0.0454
      2 C         -24.9730   -2.5050   29.7880 C.2     1  UNL1       -0.0207
      3 C         -23.9060   -3.1730   29.1460 C.2     1  UNL1       -0.0042
      4 C         -23.9890   -4.5490   28.8530 C.2     1  UNL1       -0.0003
      5 C         -25.1370   -5.2800   29.2050 C.2     1  UNL1       -0.0000
      6 C         -26.2320   -4.6110   29.7840 C.2     1  UNL1       -0.0003
      7 C         -26.1550   -3.2320   30.0650 C.2     1  UNL1       -0.0042
      8 C         -25.3870   -0.6790   31.5710 C.3     1  UNL1        0.0953
      9 C         -25.1890    0.7730   32.0280 C.3     1  UNL1        0.0945
     10 C         -25.3360    0.6840   33.5440 C.3     1  UNL1        0.0401
     11 C         -24.8290   -0.7150   33.9050 C.3     1  UNL1        0.0905
     12 N         -24.7580   -1.4810   32.6460 N.3     1  UNL1       -0.2174
     13 C         -25.6880    1.6140   26.4610 C.3     1  UNL1        0.1023
     14 C         -26.2500    2.9200   26.3950 C.2     1  UNL1        0.0573
     15 C         -25.6420    4.0930   27.1230 C.2     1  UNL1        0.2625
     16 N         -25.6140    5.2520   26.4490 N.am    1  UNL1       -0.2000
     17 C         -25.0260    6.4790   26.9630 C.3     1  UNL1        0.1388
     18 O         -25.1430    3.9660   28.2430 O.2     1  UNL1       -0.2687
     19 C         -27.4380    3.0910   25.6450 C.2     1  UNL1        0.1022
     20 N         -28.0750    2.0890   25.0030 N.2     1  UNL1       -0.2119
     21 C         -27.5430    0.8490   25.0790 C.2     1  UNL1        0.2342
     22 O         -28.1930   -0.2080   24.4770 O.2     1  UNL1       -0.4585
     23 C         -29.4600    0.0050   23.8660 C.3     1  UNL1        0.2423
     24 C         -30.0650   -1.3770   23.5730 C.3     1  UNL1        0.2292
     25 O         -30.7290   -1.8780   24.7210 O.3     1  UNL1       -0.2162
     26 C         -26.3540    0.5760   25.7770 C.3     1  UNL1        0.2425
     27 F         -25.8600   -0.6810   25.7950 F       1  UNL1       -0.2268
     28 C         -24.7748    2.4829   30.4499 C.2     1  UNL1        0.3233
     29 C         -28.7037    4.4408   30.9147 C.3     1  UNL1        0.0001
     30 O         -22.0221    0.1178   28.9889 O.3     1  UNL1       -0.2212
     31 C         -29.1804    2.8886   31.2375 C.3     1  UNL1        0.0017
     32 C         -23.6316    1.8260   27.9441 C.3     1  UNL1        0.1577
     33 C         -22.2788    1.1205   28.1681 C.3     1  UNL1        0.1744
     34 C         -21.1770    1.7739   27.2505 C.3     1  UNL1        0.0374
     35 C         -26.8911    2.5068   31.4871 C.3     1  UNL1        0.0769
     36 C         -27.1196    3.8747   30.9960 C.3     1  UNL1        0.0199
     37 O         -23.5817    1.7450   25.4609 O.3     1  UNL1       -0.2208
     38 C         -27.5706    4.0666   30.0980 C.3     1  UNL1        0.0017
     39 O         -24.4204    3.5524   30.8524 O.2     1  UNL1       -0.2508
     40 N         -25.7481    1.7864   31.2811 N.am    1  UNL1       -0.2647
     41 N         -24.3289    1.9516   29.3114 N.am    1  UNL1       -0.1850
     42 C         -28.2236    2.4144   32.2210 C.3     1  UNL1        0.0199
     43 C         -24.2205    1.6091   26.6135 C.3     1  UNL1        0.1816
@<TRIPOS>BOND
     1     2     7    1
     2     2     1    1
     3     3     2    2
     4     4     3    1
     5     4     5    2
     6     5     6    1
     7     6     7    2
     8     8     1    1
     9     8     9    1
    10     8    12    1
    11     9    40    1
    12     9    10    1
    13    10    11    1
    14    12    11    1
    15    13    43    1
    16    14    13    1
    17    14    15    1
    18    15    18    2
    19    16    17    1
    20    16    15    1
    21    19    14    2
    22    20    21    2
    23    20    19    1
    24    21    26    1
    25    22    21    1
    26    23    22    1
    27    24    23    1
    28    24    25    1
    29    26    27    1
    30    26    13    1
    31    28    39    2
    32    28    40   am
    33    29    31    1
    34    31    42    1
    35    32    33    1
    36    32    41    1
    37    33    34    1
    38    33    30    1
    39    35    42    1
    40    36    35    1
    41    38    29    1
    42    38    36    1
    43    40    35    1
    44    41    28    1
    45    43    37    1
    46    43    32    1
