@<TRIPOS>MOLECULE
outputs/IAG933/test6/raw/output_5211_IAG933_linker_design_.xyz
 45 49 0 0 0
SMALL
GASTEIGER

@<TRIPOS>ATOM
      1 C         -24.8550   -1.0120   30.1430 C.3     1  UNL1        0.0822
      2 C         -24.9730   -2.5050   29.7880 C.2     1  UNL1       -0.0152
      3 C         -23.9060   -3.1730   29.1460 C.2     1  UNL1       -0.0038
      4 C         -23.9890   -4.5490   28.8530 C.2     1  UNL1       -0.0003
      5 C         -25.1370   -5.2800   29.2050 C.2     1  UNL1       -0.0000
      6 C         -26.2320   -4.6110   29.7840 C.2     1  UNL1       -0.0003
      7 C         -26.1550   -3.2320   30.0650 C.2     1  UNL1       -0.0038
      8 C         -25.3870   -0.6790   31.5710 C.3     1  UNL1        0.0827
      9 C         -25.1890    0.7730   32.0280 C.3     1  UNL1        0.0196
     10 C         -25.3360    0.6840   33.5440 C.3     1  UNL1        0.0203
     11 C         -24.8290   -0.7150   33.9050 C.3     1  UNL1        0.0887
     12 N         -24.7580   -1.4810   32.6460 N.3     1  UNL1       -0.2187
     13 C         -25.6880    1.6140   26.4610 C.2     1  UNL1        0.0518
     14 C         -26.2500    2.9200   26.3950 C.2     1  UNL1        0.0777
     15 C         -25.6420    4.0930   27.1230 C.2     1  UNL1        0.2665
     16 N         -25.6140    5.2520   26.4490 N.am    1  UNL1       -0.1997
     17 C         -25.0260    6.4790   26.9630 C.3     1  UNL1        0.1388
     18 O         -25.1430    3.9660   28.2430 O.2     1  UNL1       -0.2683
     19 C         -27.4380    3.0910   25.6450 C.2     1  UNL1        0.1068
     20 N         -28.0750    2.0890   25.0030 N.2     1  UNL1       -0.2081
     21 C         -27.5430    0.8490   25.0790 C.2     1  UNL1        0.2533
     22 O         -28.1930   -0.2080   24.4770 O.2     1  UNL1       -0.4558
     23 C         -29.4600    0.0050   23.8660 C.3     1  UNL1        0.2426
     24 C         -30.0650   -1.3770   23.5730 C.3     1  UNL1        0.2292
     25 O         -30.7290   -1.8780   24.7210 O.3     1  UNL1       -0.2162
     26 C         -26.3540    0.5760   25.7770 C.2     1  UNL1        0.1942
     27 F         -25.8600   -0.6810   25.7950 F       1  UNL1       -0.1992
     28 O         -22.2854    0.1100   29.5339 O.2     1  UNL1       -0.2739
     29 C         -30.8464   -1.2799   33.1627 C.2     1  UNL1       -0.0000
     30 C         -23.1229    1.9180   26.5634 C.2     1  UNL1       -0.0020
     31 C         -31.4376   -1.0039   31.8964 C.2     1  UNL1       -0.0003
     32 O         -28.7713   -0.2975   28.0366 O.2     1  UNL1       -0.2825
     33 N         -24.1777    0.5773   28.1170 N.am    1  UNL1       -0.2342
     34 C         -22.1595    1.4835   27.5299 C.3     1  UNL1        0.1005
     35 C         -22.7716    0.6616   28.5671 C.2     1  UNL1        0.2369
     36 C         -28.6344   -0.7709   32.2621 C.2     1  UNL1       -0.0038
     37 C         -25.1814   -0.1526   28.8872 C.2     1  UNL1        0.0779
     38 C         -26.5731   -0.0522   28.6446 C.1     1  UNL1       -0.0534
     39 C         -29.2700   -0.8623   30.9242 C.2     1  UNL1       -0.0138
     40 C         -20.7160    1.8415   27.4526 C.3     1  UNL1        0.0144
     41 C         -24.3289    1.3569   27.0044 C.2     1  UNL1        0.0570
     42 C         -30.6146   -0.7534   30.7820 C.2     1  UNL1       -0.0038
     43 C         -27.8232   -0.3682   28.6328 C.2     1  UNL1        0.2127
     44 C         -28.7622   -1.3008   29.5349 C.3     1  UNL1        0.1037
     45 C         -29.4539   -1.0763   33.3961 C.2     1  UNL1       -0.0003
@<TRIPOS>BOND
     1     1    37    1
     2     2     7    1
     3     2     1    1
     4     3     2    2
     5     4     3    1
     6     4     5    2
     7     5     6    1
     8     6     7    2
     9     8     1    1
    10     8     9    1
    11     8    12    1
    12     9    10    1
    13    10    11    1
    14    12    11    1
    15    13    41    1
    16    14    13    1
    17    14    15    1
    18    15    18    2
    19    16    17    1
    20    16    15    1
    21    19    14    2
    22    20    21    2
    23    20    19    1
    24    21    26    1
    25    22    21    1
    26    23    22    1
    27    24    23    1
    28    24    25    1
    29    26    27    1
    30    26    13    2
    31    29    45    1
    32    30    41    2
    33    30    34    1
    34    31    29    2
    35    32    43    1
    36    33    35   am
    37    33    37    1
    38    34    40    1
    39    34    35    1
    40    35    28    2
    41    36    45    2
    42    38    37    2
    43    39    36    1
    44    41    33    1
    45    42    39    2
    46    42    31    1
    47    43    38    2
    48    43    44    1
    49    44    39    1
