@<TRIPOS>MOLECULE
outputs/IAG933/test6/raw/output_5212_IAG933_linker_design_.xyz
 43 47 0 0 0
SMALL
GASTEIGER

@<TRIPOS>ATOM
      1 C         -24.8550   -1.0120   30.1430 C.3     1  UNL1        0.0570
      2 C         -24.9730   -2.5050   29.7880 C.2     1  UNL1       -0.0195
      3 C         -23.9060   -3.1730   29.1460 C.2     1  UNL1       -0.0042
      4 C         -23.9890   -4.5490   28.8530 C.2     1  UNL1       -0.0003
      5 C         -25.1370   -5.2800   29.2050 C.2     1  UNL1       -0.0000
      6 C         -26.2320   -4.6110   29.7840 C.2     1  UNL1       -0.0003
      7 C         -26.1550   -3.2320   30.0650 C.2     1  UNL1       -0.0042
      8 C         -25.3870   -0.6790   31.5710 C.3     1  UNL1        0.0784
      9 C         -25.1890    0.7730   32.0280 C.3     1  UNL1        0.0192
     10 C         -25.3360    0.6840   33.5440 C.3     1  UNL1        0.0202
     11 C         -24.8290   -0.7150   33.9050 C.3     1  UNL1        0.0887
     12 N         -24.7580   -1.4810   32.6460 N.3     1  UNL1       -0.2191
     13 C         -25.6880    1.6140   26.4610 C.2     1  UNL1        0.0378
     14 C         -26.2500    2.9200   26.3950 C.2     1  UNL1        0.0765
     15 C         -25.6420    4.0930   27.1230 C.2     1  UNL1        0.2664
     16 N         -25.6140    5.2520   26.4490 N.am    1  UNL1       -0.1997
     17 C         -25.0260    6.4790   26.9630 C.3     1  UNL1        0.1388
     18 O         -25.1430    3.9660   28.2430 O.2     1  UNL1       -0.2683
     19 C         -27.4380    3.0910   25.6450 C.2     1  UNL1        0.1067
     20 N         -28.0750    2.0890   25.0030 N.2     1  UNL1       -0.2081
     21 C         -27.5430    0.8490   25.0790 C.2     1  UNL1        0.2533
     22 O         -28.1930   -0.2080   24.4770 O.2     1  UNL1       -0.4558
     23 C         -29.4600    0.0050   23.8660 C.3     1  UNL1        0.2426
     24 C         -30.0650   -1.3770   23.5730 C.3     1  UNL1        0.2292
     25 O         -30.7290   -1.8780   24.7210 O.3     1  UNL1       -0.2162
     26 C         -26.3540    0.5760   25.7770 C.2     1  UNL1        0.1930
     27 F         -25.8600   -0.6810   25.7950 F       1  UNL1       -0.1992
     28 N         -29.3481   -0.1638   28.4678 N.3     1  UNL1       -0.2590
     29 C         -23.1264    0.1739   28.8220 C.3     1  UNL1        0.2315
     30 C         -24.4848    1.2760   27.2314 C.2     1  UNL1        0.0047
     31 N         -26.9352    0.2625   28.8202 N.3     1  UNL1       -0.2563
     32 C         -23.2767    1.7859   26.7376 C.2     1  UNL1        0.0682
     33 C         -31.4477    0.4582   27.6821 C.3     1  UNL1        0.0188
     34 C         -28.4440   -0.4644   30.4750 C.3     1  UNL1        0.0347
     35 C         -28.1596    0.4790   27.8951 C.3     1  UNL1        0.1495
     36 C         -29.0498   -1.3344   29.3358 C.3     1  UNL1        0.0748
     37 C         -22.1014    1.4541   27.4023 C.2     1  UNL1        0.2836
     38 O         -22.0078    0.6106   28.4067 O.2     1  UNL1       -0.4489
     39 F         -20.9204    1.9908   27.0884 F       1  UNL1       -0.1633
     40 C         -25.5497   -0.0949   29.0696 C.3     1  UNL1        0.0860
     41 C         -24.4268    0.4322   28.3459 C.2     1  UNL1        0.0141
     42 C         -27.5815    0.7090   30.0440 C.3     1  UNL1        0.0750
     43 C         -30.3448   -0.5657   27.4855 C.3     1  UNL1        0.0734
@<TRIPOS>BOND
     1     1    40    1
     2     2     7    1
     3     2     1    1
     4     3     2    2
     5     4     3    1
     6     4     5    2
     7     5     6    1
     8     6     7    2
     9     8     1    1
    10     8     9    1
    11     8    12    1
    12     9    10    1
    13    10    11    1
    14    12    11    1
    15    13    30    1
    16    14    13    1
    17    14    15    1
    18    15    18    2
    19    16    17    1
    20    16    15    1
    21    19    14    2
    22    20    21    2
    23    20    19    1
    24    21    26    1
    25    22    21    1
    26    23    22    1
    27    24    23    1
    28    24    25    1
    29    26    27    1
    30    26    13    2
    31    28    36    1
    32    30    41    2
    33    31    40    1
    34    31    42    1
    35    32    30    1
    36    32    37    2
    37    35    28    1
    38    35    31    1
    39    36    34    1
    40    37    38    1
    41    38    29    1
    42    39    37    1
    43    40    41    1
    44    41    29    1
    45    42    34    1
    46    43    33    1
    47    43    28    1
