@<TRIPOS>MOLECULE
outputs/IAG933/test6/raw/output_5217_IAG933_linker_design_.xyz
 46 50 0 0 0
SMALL
GASTEIGER

@<TRIPOS>ATOM
      1 C         -24.8550   -1.0120   30.1430 C.3     1  UNL1        0.0427
      2 C         -24.9730   -2.5050   29.7880 C.2     1  UNL1       -0.0208
      3 C         -23.9060   -3.1730   29.1460 C.2     1  UNL1       -0.0042
      4 C         -23.9890   -4.5490   28.8530 C.2     1  UNL1       -0.0003
      5 C         -25.1370   -5.2800   29.2050 C.2     1  UNL1       -0.0000
      6 C         -26.2320   -4.6110   29.7840 C.2     1  UNL1       -0.0003
      7 C         -26.1550   -3.2320   30.0650 C.2     1  UNL1       -0.0042
      8 C         -25.3870   -0.6790   31.5710 C.3     1  UNL1        0.0774
      9 C         -25.1890    0.7730   32.0280 C.3     1  UNL1        0.0222
     10 C         -25.3360    0.6840   33.5440 C.3     1  UNL1        0.0205
     11 C         -24.8290   -0.7150   33.9050 C.3     1  UNL1        0.0887
     12 N         -24.7580   -1.4810   32.6460 N.3     1  UNL1       -0.2191
     13 C         -25.6880    1.6140   26.4610 C.3     1  UNL1        0.0920
     14 C         -26.2500    2.9200   26.3950 C.2     1  UNL1        0.0589
     15 C         -25.6420    4.0930   27.1230 C.2     1  UNL1        0.2628
     16 N         -25.6140    5.2520   26.4490 N.am    1  UNL1       -0.2000
     17 C         -25.0260    6.4790   26.9630 C.3     1  UNL1        0.1388
     18 O         -25.1430    3.9660   28.2430 O.2     1  UNL1       -0.2686
     19 C         -27.4380    3.0910   25.6450 C.2     1  UNL1        0.1025
     20 N         -28.0750    2.0890   25.0030 N.2     1  UNL1       -0.2118
     21 C         -27.5430    0.8490   25.0790 C.2     1  UNL1        0.2344
     22 O         -28.1930   -0.2080   24.4770 O.2     1  UNL1       -0.4585
     23 C         -29.4600    0.0050   23.8660 C.3     1  UNL1        0.2423
     24 C         -30.0650   -1.3770   23.5730 C.3     1  UNL1        0.2292
     25 O         -30.7290   -1.8780   24.7210 O.3     1  UNL1       -0.2162
     26 C         -26.3540    0.5760   25.7770 C.3     1  UNL1        0.2440
     27 F         -25.8600   -0.6810   25.7950 F       1  UNL1       -0.2265
     28 C         -26.6679    5.9709   31.9946 C.2     1  UNL1        0.1231
     29 C         -22.7750    0.6799   28.6847 C.2     1  UNL1       -0.0046
     30 C         -27.2581    5.3972   30.8934 C.2     1  UNL1        0.0328
     31 C         -24.4438    7.0033   32.5920 C.3     1  UNL1        0.0162
     32 C         -24.2848    1.4524   26.8895 C.2     1  UNL1       -0.0190
     33 O         -27.5630    6.5486   32.9586 O.2     1  UNL1       -0.4753
     34 C         -24.0961    0.6924   28.1779 C.2     1  UNL1       -0.0254
     35 C         -25.2036   -0.1205   28.9519 C.3     1  UNL1        0.0318
     36 C         -21.9042    1.9736   26.7784 C.2     1  UNL1       -0.0003
     37 C         -25.2345    5.7913   32.1256 C.3     1  UNL1        0.1182
     38 C         -23.1956    2.0551   26.2164 C.2     1  UNL1       -0.0042
     39 C         -27.1490    4.2673   30.4350 C.2     1  UNL1        0.0025
     40 C         -25.3069    3.3916   31.4320 C.2     1  UNL1        0.0130
     41 C         -28.9609    6.7183   32.7963 C.3     1  UNL1        0.2520
     42 C         -24.5973    4.5354   31.9256 C.2     1  UNL1        0.1758
     43 C         -21.6890    1.2740   27.9907 C.2     1  UNL1       -0.0003
     44 C         -24.7755    2.0161   31.2215 C.3     1  UNL1        0.0307
     45 C         -26.5457    3.4378   31.1146 C.2     1  UNL1       -0.0013
     46 O         -23.3115    4.2903   32.2019 O.2     1  UNL1       -0.2912
@<TRIPOS>BOND
     1     1    35    1
     2     2     7    1
     3     2     1    1
     4     3     2    2
     5     4     3    1
     6     4     5    2
     7     5     6    1
     8     6     7    2
     9     8     1    1
    10     8     9    1
    11     8    12    1
    12     9    44    1
    13     9    10    1
    14    10    11    1
    15    12    11    1
    16    13    32    1
    17    14    13    1
    18    14    15    1
    19    15    18    2
    20    16    17    1
    21    16    15    1
    22    19    14    2
    23    20    21    2
    24    20    19    1
    25    21    26    1
    26    22    21    1
    27    23    22    1
    28    24    23    1
    29    24    25    1
    30    26    27    1
    31    26    13    1
    32    28    37    1
    33    28    33    1
    34    30    28    2
    35    32    34    2
    36    34    29    1
    37    34    35    1
    38    36    43    1
    39    37    31    1
    40    38    36    2
    41    38    32    1
    42    39    30    1
    43    39    45    2
    44    40    42    2
    45    41    33    1
    46    42    37    1
    47    42    46    1
    48    43    29    2
    49    44    40    1
    50    45    40    1
