@<TRIPOS>MOLECULE
outputs/IAG933/test6/raw/output_522_IAG933_linker_design_.xyz
 46 49 0 0 0
SMALL
GASTEIGER

@<TRIPOS>ATOM
      1 C         -24.8550   -1.0120   30.1430 C.3     1  UNL1        0.0640
      2 C         -24.9730   -2.5050   29.7880 C.2     1  UNL1       -0.0191
      3 C         -23.9060   -3.1730   29.1460 C.2     1  UNL1       -0.0042
      4 C         -23.9890   -4.5490   28.8530 C.2     1  UNL1       -0.0003
      5 C         -25.1370   -5.2800   29.2050 C.2     1  UNL1       -0.0000
      6 C         -26.2320   -4.6110   29.7840 C.2     1  UNL1       -0.0003
      7 C         -26.1550   -3.2320   30.0650 C.2     1  UNL1       -0.0042
      8 C         -25.3870   -0.6790   31.5710 C.3     1  UNL1        0.0789
      9 C         -25.1890    0.7730   32.0280 C.3     1  UNL1        0.0193
     10 C         -25.3360    0.6840   33.5440 C.3     1  UNL1        0.0202
     11 C         -24.8290   -0.7150   33.9050 C.3     1  UNL1        0.0887
     12 N         -24.7580   -1.4810   32.6460 N.3     1  UNL1       -0.2191
     13 C         -25.6880    1.6140   26.4610 C.2     1  UNL1        0.0414
     14 C         -26.2500    2.9200   26.3950 C.2     1  UNL1        0.0767
     15 C         -25.6420    4.0930   27.1230 C.2     1  UNL1        0.2664
     16 N         -25.6140    5.2520   26.4490 N.am    1  UNL1       -0.1997
     17 C         -25.0260    6.4790   26.9630 C.3     1  UNL1        0.1388
     18 O         -25.1430    3.9660   28.2430 O.2     1  UNL1       -0.2683
     19 C         -27.4380    3.0910   25.6450 C.2     1  UNL1        0.1067
     20 N         -28.0750    2.0890   25.0030 N.2     1  UNL1       -0.2081
     21 C         -27.5430    0.8490   25.0790 C.2     1  UNL1        0.2533
     22 O         -28.1930   -0.2080   24.4770 O.2     1  UNL1       -0.4558
     23 C         -29.4600    0.0050   23.8660 C.3     1  UNL1        0.2426
     24 C         -30.0650   -1.3770   23.5730 C.3     1  UNL1        0.2292
     25 O         -30.7290   -1.8780   24.7210 O.3     1  UNL1       -0.2162
     26 C         -26.3540    0.5760   25.7770 C.2     1  UNL1        0.1932
     27 F         -25.8600   -0.6810   25.7950 F       1  UNL1       -0.1992
     28 C         -21.8048    1.1348   28.4149 C.2     1  UNL1        0.1008
     29 F         -29.2576    4.6508   30.0232 F       1  UNL1       -0.2016
     30 C         -30.8825    2.9211   29.8277 C.3     1  UNL1        0.0750
     31 N         -26.6323    0.2632   28.7779 N.am    1  UNL1       -0.2006
     32 C         -29.6796    1.3137   27.6436 C.3     1  UNL1        0.0125
     33 F         -30.0029    4.3645   28.0099 F       1  UNL1       -0.2016
     34 F         -22.8285    2.3915   25.2066 F       1  UNL1       -0.2041
     35 C         -29.6736    3.6344   29.1497 C.3     1  UNL1        0.2920
     36 C         -22.9627    1.9228   26.4974 C.2     1  UNL1        0.1429
     37 C         -24.1877    0.6971   28.3055 C.2     1  UNL1        0.0813
     38 N         -23.0349    0.6622   28.9877 N.2     1  UNL1       -0.2463
     39 O         -28.0885   -1.1294   29.6401 O.2     1  UNL1       -0.2733
     40 C         -21.7624    1.7922   27.1760 C.2     1  UNL1        0.0503
     41 C         -27.8597   -0.0559   29.1752 C.2     1  UNL1        0.2439
     42 C         -28.5318    2.5453   29.0082 C.3     1  UNL1        0.2211
     43 C         -24.2616    1.4352   27.0768 C.2     1  UNL1        0.0452
     44 C         -25.2638   -0.2023   28.8256 C.3     1  UNL1        0.1404
     45 C         -29.0370    1.0617   29.0208 C.3     1  UNL1        0.1140
     46 O         -27.7195    2.6591   30.2012 O.3     1  UNL1       -0.2168
@<TRIPOS>BOND
     1     1    44    1
     2     2     7    1
     3     2     1    1
     4     3     2    2
     5     4     3    1
     6     4     5    2
     7     5     6    1
     8     6     7    2
     9     8     1    1
    10     8     9    1
    11     8    12    1
    12     9    10    1
    13    10    11    1
    14    12    11    1
    15    13    43    1
    16    14    13    1
    17    14    15    1
    18    15    18    2
    19    16    17    1
    20    16    15    1
    21    19    14    2
    22    20    21    2
    23    20    19    1
    24    21    26    1
    25    22    21    1
    26    23    22    1
    27    24    23    1
    28    24    25    1
    29    26    27    1
    30    26    13    2
    31    28    38    1
    32    31    41    1
    33    33    35    1
    34    34    36    1
    35    35    30    1
    36    35    29    1
    37    36    43    2
    38    36    40    1
    39    37    44    1
    40    37    38    2
    41    40    28    2
    42    41    39    2
    43    42    45    1
    44    42    35    1
    45    42    46    1
    46    43    37    1
    47    44    31    1
    48    45    32    1
    49    45    41    1
