@<TRIPOS>MOLECULE
outputs/IAG933/test6/raw/output_5227_IAG933_linker_design_.xyz
 41 44 0 0 0
SMALL
GASTEIGER

@<TRIPOS>ATOM
      1 C         -24.8550   -1.0120   30.1430 C.3     1  UNL1        0.1335
      2 C         -24.9730   -2.5050   29.7880 C.2     1  UNL1       -0.0032
      3 C         -23.9060   -3.1730   29.1460 C.2     1  UNL1       -0.0028
      4 C         -23.9890   -4.5490   28.8530 C.2     1  UNL1       -0.0003
      5 C         -25.1370   -5.2800   29.2050 C.2     1  UNL1       -0.0000
      6 C         -26.2320   -4.6110   29.7840 C.2     1  UNL1       -0.0003
      7 C         -26.1550   -3.2320   30.0650 C.2     1  UNL1       -0.0028
      8 C         -25.3870   -0.6790   31.5710 C.3     1  UNL1        0.0948
      9 C         -25.1890    0.7730   32.0280 C.3     1  UNL1        0.0207
     10 C         -25.3360    0.6840   33.5440 C.3     1  UNL1        0.0203
     11 C         -24.8290   -0.7150   33.9050 C.3     1  UNL1        0.0888
     12 N         -24.7580   -1.4810   32.6460 N.3     1  UNL1       -0.2176
     13 C         -25.6880    1.6140   26.4610 C.2     1  UNL1        0.0408
     14 C         -26.2500    2.9200   26.3950 C.2     1  UNL1        0.0766
     15 C         -25.6420    4.0930   27.1230 C.2     1  UNL1        0.2664
     16 N         -25.6140    5.2520   26.4490 N.am    1  UNL1       -0.1997
     17 C         -25.0260    6.4790   26.9630 C.3     1  UNL1        0.1388
     18 O         -25.1430    3.9660   28.2430 O.2     1  UNL1       -0.2683
     19 C         -27.4380    3.0910   25.6450 C.2     1  UNL1        0.1067
     20 N         -28.0750    2.0890   25.0030 N.2     1  UNL1       -0.2081
     21 C         -27.5430    0.8490   25.0790 C.2     1  UNL1        0.2533
     22 O         -28.1930   -0.2080   24.4770 O.2     1  UNL1       -0.4558
     23 C         -29.4600    0.0050   23.8660 C.3     1  UNL1        0.2426
     24 C         -30.0650   -1.3770   23.5730 C.3     1  UNL1        0.2292
     25 O         -30.7290   -1.8780   24.7210 O.3     1  UNL1       -0.2162
     26 C         -26.3540    0.5760   25.7770 C.2     1  UNL1        0.1931
     27 F         -25.8600   -0.6810   25.7950 F       1  UNL1       -0.1992
     28 C         -23.3047    2.6342   24.9959 C.3     1  UNL1        0.0311
     29 C         -23.2704    1.9501   26.3671 C.2     1  UNL1       -0.0188
     30 O         -25.1522   -0.6495   28.2701 O.2     1  UNL1       -0.4011
     31 O         -29.5213   -1.8731   30.1231 O.3     1  UNL1       -0.2231
     32 C         -29.1977   -0.5449   29.5352 C.3     1  UNL1        0.1536
     33 C         -24.3266    0.4355   28.1144 C.2     1  UNL1        0.1649
     34 C         -24.4332    1.3679   26.9722 C.2     1  UNL1        0.0350
     35 C         -23.0408    0.3052   28.7207 C.2     1  UNL1        0.0394
     36 C         -21.9272    0.9553   28.1544 C.2     1  UNL1        0.0029
     37 N         -25.5189    0.0458   28.9848 N.3     1  UNL1       -0.1168
     38 C         -27.8356   -0.5489   28.8069 C.3     1  UNL1        0.0538
     39 C         -26.8917    0.5923   29.1147 C.3     1  UNL1        0.1163
     40 C         -29.4599    0.4255   30.6626 C.3     1  UNL1        0.0355
     41 C         -22.0388    1.8092   27.0430 C.2     1  UNL1       -0.0041
@<TRIPOS>BOND
     1     1    37    1
     2     2     7    1
     3     2     1    1
     4     3     2    2
     5     4     3    1
     6     4     5    2
     7     5     6    1
     8     6     7    2
     9     8     1    1
    10     8     9    1
    11     8    12    1
    12     9    10    1
    13    10    11    1
    14    12    11    1
    15    13    34    1
    16    14    13    1
    17    14    15    1
    18    15    18    2
    19    16    17    1
    20    16    15    1
    21    19    14    2
    22    20    21    2
    23    20    19    1
    24    21    26    1
    25    22    21    1
    26    23    22    1
    27    24    23    1
    28    24    25    1
    29    26    27    1
    30    26    13    2
    31    28    29    1
    32    29    34    2
    33    29    41    1
    34    30    37    1
    35    32    31    1
    36    32    40    1
    37    33    30    1
    38    33    35    2
    39    34    33    1
    40    36    35    1
    41    37    39    1
    42    38    39    1
    43    38    32    1
    44    41    36    2
