@<TRIPOS>MOLECULE
outputs/IAG933/test6/raw/output_523_IAG933_linker_design_.xyz
 44 49 0 0 0
SMALL
GASTEIGER

@<TRIPOS>ATOM
      1 C         -24.8550   -1.0120   30.1430 C.3     1  UNL1        0.1333
      2 C         -24.9730   -2.5050   29.7880 C.2     1  UNL1       -0.0012
      3 C         -23.9060   -3.1730   29.1460 C.2     1  UNL1       -0.0026
      4 C         -23.9890   -4.5490   28.8530 C.2     1  UNL1       -0.0003
      5 C         -25.1370   -5.2800   29.2050 C.2     1  UNL1       -0.0000
      6 C         -26.2320   -4.6110   29.7840 C.2     1  UNL1       -0.0003
      7 C         -26.1550   -3.2320   30.0650 C.2     1  UNL1       -0.0026
      8 C         -25.3870   -0.6790   31.5710 C.3     1  UNL1        0.0969
      9 C         -25.1890    0.7730   32.0280 C.3     1  UNL1        0.0210
     10 C         -25.3360    0.6840   33.5440 C.3     1  UNL1        0.0203
     11 C         -24.8290   -0.7150   33.9050 C.3     1  UNL1        0.0888
     12 N         -24.7580   -1.4810   32.6460 N.3     1  UNL1       -0.2174
     13 C         -25.6880    1.6140   26.4610 C.3     1  UNL1        0.0708
     14 C         -26.2500    2.9200   26.3950 C.2     1  UNL1        0.0526
     15 C         -25.6420    4.0930   27.1230 C.2     1  UNL1        0.2177
     16 N         -25.6140    5.2520   26.4490 N.2     1  UNL1       -0.2359
     17 C         -25.0260    6.4790   26.9630 C.3     1  UNL1        0.1550
     18 O         -25.1430    3.9660   28.2430 O.2     1  UNL1       -0.4638
     19 C         -27.4380    3.0910   25.6450 C.2     1  UNL1        0.1022
     20 N         -28.0750    2.0890   25.0030 N.2     1  UNL1       -0.2119
     21 C         -27.5430    0.8490   25.0790 C.2     1  UNL1        0.2341
     22 O         -28.1930   -0.2080   24.4770 O.2     1  UNL1       -0.4585
     23 C         -29.4600    0.0050   23.8660 C.3     1  UNL1        0.2423
     24 C         -30.0650   -1.3770   23.5730 C.3     1  UNL1        0.2292
     25 O         -30.7290   -1.8780   24.7210 O.3     1  UNL1       -0.2162
     26 C         -26.3540    0.5760   25.7770 C.3     1  UNL1        0.2400
     27 F         -25.8600   -0.6810   25.7950 F       1  UNL1       -0.2269
     28 C         -25.6127    4.1830   31.0024 C.3     1  UNL1        0.1187
     29 C         -27.3312    6.6361   30.9438 C.3     1  UNL1        0.0296
     30 C         -25.2837    6.1447   32.5501 C.3     1  UNL1        0.0296
     31 O         -22.7404    1.4972   30.0854 O.2     1  UNL1       -0.2732
     32 C         -24.8392    2.9238   30.3997 C.3     1  UNL1        0.0736
     33 N         -23.8723   -0.1989   29.4773 N.am    1  UNL1       -0.2012
     34 C         -26.1678    5.2396   33.1003 C.3     1  UNL1        0.0049
     35 C         -24.8247    2.7826   28.8959 C.3     1  UNL1        0.1779
     36 C         -26.6897    4.5763   31.9135 C.3     1  UNL1        0.0275
     37 C         -27.9290    5.2193   31.2196 C.3     1  UNL1        0.0049
     38 C         -22.3650    2.3960   27.4941 C.3     1  UNL1        0.0122
     39 O         -25.4530    5.4864   30.3165 O.3     1  UNL1       -0.3586
     40 C         -23.4561    0.9710   29.3086 C.2     1  UNL1        0.2442
     41 C         -23.7144    1.9238   28.1363 C.3     1  UNL1        0.1076
     42 C         -21.2326    1.3901   27.5619 C.3     1  UNL1        0.0006
     43 C         -24.2850    1.3170   26.8745 C.3     1  UNL1        0.0200
     44 C         -25.8391    6.5628   31.2151 C.3     1  UNL1        0.1151
@<TRIPOS>BOND
     1     1    33    1
     2     2     7    1
     3     2     1    1
     4     3     2    2
     5     4     3    1
     6     4     5    2
     7     5     6    1
     8     6     7    2
     9     8     1    1
    10     8     9    1
    11     8    12    1
    12     9    10    1
    13    10    11    1
    14    12    11    1
    15    13    43    1
    16    14    13    1
    17    14    15    1
    18    15    18    1
    19    16    17    1
    20    16    15    2
    21    18    35    1
    22    19    14    2
    23    20    21    2
    24    20    19    1
    25    21    26    1
    26    22    21    1
    27    23    22    1
    28    24    23    1
    29    24    25    1
    30    26    27    1
    31    26    13    1
    32    28    32    1
    33    28    36    1
    34    29    37    1
    35    30    34    1
    36    35    32    1
    37    36    37    1
    38    36    34    1
    39    38    42    1
    40    39    28    1
    41    39    44    1
    42    40    33    1
    43    40    31    2
    44    41    38    1
    45    41    35    1
    46    41    40    1
    47    43    41    1
    48    44    29    1
    49    44    30    1
