@<TRIPOS>MOLECULE
outputs/IAG933/test6/raw/output_5234_IAG933_linker_design_.xyz
 42 46 0 0 0
SMALL
GASTEIGER

@<TRIPOS>ATOM
      1 C         -24.8550   -1.0120   30.1430 C.3     1  UNL1        0.0428
      2 C         -24.9730   -2.5050   29.7880 C.2     1  UNL1       -0.0208
      3 C         -23.9060   -3.1730   29.1460 C.2     1  UNL1       -0.0042
      4 C         -23.9890   -4.5490   28.8530 C.2     1  UNL1       -0.0003
      5 C         -25.1370   -5.2800   29.2050 C.2     1  UNL1       -0.0000
      6 C         -26.2320   -4.6110   29.7840 C.2     1  UNL1       -0.0003
      7 C         -26.1550   -3.2320   30.0650 C.2     1  UNL1       -0.0042
      8 C         -25.3870   -0.6790   31.5710 C.3     1  UNL1        0.0771
      9 C         -25.1890    0.7730   32.0280 C.3     1  UNL1        0.0183
     10 C         -25.3360    0.6840   33.5440 C.3     1  UNL1        0.0202
     11 C         -24.8290   -0.7150   33.9050 C.3     1  UNL1        0.0887
     12 N         -24.7580   -1.4810   32.6460 N.3     1  UNL1       -0.2191
     13 C         -25.6880    1.6140   26.4610 C.2     1  UNL1        0.0388
     14 C         -26.2500    2.9200   26.3950 C.2     1  UNL1        0.0533
     15 C         -25.6420    4.0930   27.1230 C.2     1  UNL1        0.2120
     16 N         -25.6140    5.2520   26.4490 N.pl3   1  UNL1       -0.2035
     17 C         -25.0260    6.4790   26.9630 C.3     1  UNL1        0.1387
     18 O         -25.1430    3.9660   28.2430 O.2     1  UNL1       -0.4433
     19 C         -27.4380    3.0910   25.6450 C.3     1  UNL1        0.1590
     20 N         -28.0750    2.0890   25.0030 N.2     1  UNL1       -0.2341
     21 C         -27.5430    0.8490   25.0790 C.2     1  UNL1        0.2342
     22 O         -28.1930   -0.2080   24.4770 O.2     1  UNL1       -0.4585
     23 C         -29.4600    0.0050   23.8660 C.3     1  UNL1        0.2423
     24 C         -30.0650   -1.3770   23.5730 C.3     1  UNL1        0.2292
     25 O         -30.7290   -1.8780   24.7210 O.3     1  UNL1       -0.2162
     26 C         -26.3540    0.5760   25.7770 C.3     1  UNL1        0.2592
     27 F         -25.8600   -0.6810   25.7950 F       1  UNL1       -0.2223
     28 C         -25.8767    4.4650   30.8056 C.3     1  UNL1        0.1895
     29 O         -23.1463    2.7827   26.2886 O.3     1  UNL1       -0.0808
     30 C         -25.2576    1.3692   28.5880 C.2     1  UNL1        0.0263
     31 C         -25.5871    0.0028   29.3209 C.3     1  UNL1        0.0364
     32 C         -26.1845    3.1581   30.1982 C.3     1  UNL1        0.0902
     33 N         -23.4370    1.7142   27.2317 N.3     1  UNL1       -0.1637
     34 C         -26.2533    1.7773   31.5346 C.3     1  UNL1        0.0116
     35 C         -25.4008    2.8229   29.1110 C.2     1  UNL1        0.1240
     36 C         -24.7956    1.4569   27.4898 C.2     1  UNL1        0.0866
     37 N         -22.9991    0.6161   29.3761 N.3     1  UNL1        0.0075
     38 C         -20.9675    1.6119   27.0851 C.3     1  UNL1        0.1779
     39 O         -21.3377    1.4313   28.3330 O.3     1  UNL1       -0.3163
     40 C         -22.7356    1.7591   28.4780 C.3     1  UNL1        0.3395
     41 O         -22.7328   -0.5239   28.8577 O.3     1  UNL1       -0.0957
     42 O         -26.6324    5.5392   30.2971 O.3     1  UNL1       -0.2199
@<TRIPOS>BOND
     1     1     2    1
     2     1     8    1
     3     2     7    1
     4     3     2    2
     5     4     3    1
     6     4     5    2
     7     5     6    1
     8     6     7    2
     9     8     9    1
    10     8    12    1
    11     9    34    1
    12     9    10    1
    13    10    11    1
    14    12    11    1
    15    13    36    2
    16    14    13    1
    17    14    15    2
    18    15    18    1
    19    16    17    1
    20    16    15    1
    21    18    35    1
    22    19    14    1
    23    20    21    2
    24    20    19    1
    25    21    26    1
    26    22    21    1
    27    23    22    1
    28    24    23    1
    29    24    25    1
    30    26    27    1
    31    26    13    1
    32    29    33    1
    33    30    35    2
    34    30    31    1
    35    31     1    1
    36    32    28    1
    37    32    34    1
    38    33    36    1
    39    33    40    1
    40    35    32    1
    41    36    30    1
    42    38    39    1
    43    40    39    1
    44    40    37    1
    45    41    37    1
    46    42    28    1
