@<TRIPOS>MOLECULE
No_524-gen_results/8p0m/2024-11-27-11-27-31/
 13 13 0 0 0
SMALL
GASTEIGER

@<TRIPOS>ATOM
      1 C         -28.0162   -0.8135   28.8779 C.ar    1  UNL1        0.0065
      2 C         -28.4690   -0.7850   29.8287 C.ar    1  UNL1        0.0798
      3 C         -26.5455   -0.8762   28.8500 C.ar    1  UNL1        0.0041
      4 C         -25.8041   -1.0324   30.0571 C.ar    1  UNL1        0.0714
      5 C         -27.9437   -0.9869   31.2075 C.ar    1  UNL1        0.0065
      6 C         -26.5825   -1.0386   31.2231 C.ar    1  UNL1        0.0041
      7 C         -30.0606   -0.7371   29.9024 C.2     1  UNL1        0.3878
      8 O         -30.6052    0.0855   30.7066 O.co2   1  UNL1       -0.2406
      9 O         -30.6284   -1.1532   28.8275 O.co2   1  UNL1       -0.2406
     10 C         -24.3699   -1.0981   30.0806 C.3     1  UNL1        0.4186
     11 F         -23.9346   -2.0234   30.6805 F       1  UNL1       -0.1659
     12 F         -23.8175   -1.0974   28.7996 F       1  UNL1       -0.1659
     13 F         -23.8616    0.0350   30.6849 F       1  UNL1       -0.1659
@<TRIPOS>BOND
     1     2     7    1
     2     7     8   ar
     3     7     9   ar
     4     4    10    1
     5    10    11    1
     6    10    12    1
     7    10    13    1
     8     1     2   ar
     9     2     5   ar
    10     5     6   ar
    11     6     4   ar
    12     4     3   ar
    13     3     1   ar
