@<TRIPOS>MOLECULE
outputs/IAG933/test6/raw/output_5242_IAG933_linker_design_.xyz
 44 47 0 0 0
SMALL
GASTEIGER

@<TRIPOS>ATOM
      1 C         -24.8550   -1.0120   30.1430 C.3     1  UNL1        0.0602
      2 C         -24.9730   -2.5050   29.7880 C.2     1  UNL1       -0.0171
      3 C         -23.9060   -3.1730   29.1460 C.2     1  UNL1       -0.0039
      4 C         -23.9890   -4.5490   28.8530 C.2     1  UNL1       -0.0003
      5 C         -25.1370   -5.2800   29.2050 C.2     1  UNL1       -0.0000
      6 C         -26.2320   -4.6110   29.7840 C.2     1  UNL1       -0.0003
      7 C         -26.1550   -3.2320   30.0650 C.2     1  UNL1       -0.0039
      8 C         -25.3870   -0.6790   31.5710 C.3     1  UNL1        0.0808
      9 C         -25.1890    0.7730   32.0280 C.3     1  UNL1        0.0195
     10 C         -25.3360    0.6840   33.5440 C.3     1  UNL1        0.0203
     11 C         -24.8290   -0.7150   33.9050 C.3     1  UNL1        0.0887
     12 N         -24.7580   -1.4810   32.6460 N.3     1  UNL1       -0.2188
     13 C         -25.6880    1.6140   26.4610 C.3     1  UNL1        0.0929
     14 C         -26.2500    2.9200   26.3950 C.2     1  UNL1        0.0589
     15 C         -25.6420    4.0930   27.1230 C.2     1  UNL1        0.2628
     16 N         -25.6140    5.2520   26.4490 N.am    1  UNL1       -0.2000
     17 C         -25.0260    6.4790   26.9630 C.3     1  UNL1        0.1388
     18 O         -25.1430    3.9660   28.2430 O.2     1  UNL1       -0.2686
     19 C         -27.4380    3.0910   25.6450 C.2     1  UNL1        0.1025
     20 N         -28.0750    2.0890   25.0030 N.2     1  UNL1       -0.2118
     21 C         -27.5430    0.8490   25.0790 C.2     1  UNL1        0.2344
     22 O         -28.1930   -0.2080   24.4770 O.2     1  UNL1       -0.4585
     23 C         -29.4600    0.0050   23.8660 C.3     1  UNL1        0.2423
     24 C         -30.0650   -1.3770   23.5730 C.3     1  UNL1        0.2292
     25 O         -30.7290   -1.8780   24.7210 O.3     1  UNL1       -0.2162
     26 C         -26.3540    0.5760   25.7770 C.3     1  UNL1        0.2440
     27 F         -25.8600   -0.6810   25.7950 F       1  UNL1       -0.2265
     28 C         -21.0662    1.4422   27.9454 C.3     1  UNL1        0.0319
     29 C         -24.8597    1.2488   27.3569 C.2     1  UNL1       -0.0074
     30 N         -27.2971    3.9483   29.8972 N.am    1  UNL1       -0.1872
     31 C         -22.9953    0.2729   29.1127 C.2     1  UNL1       -0.0076
     32 C         -27.7403    4.5605   31.1139 C.3     1  UNL1        0.1184
     33 C         -25.3462    0.5545   28.5303 C.2     1  UNL1       -0.0069
     34 CL        -22.7837    2.4599   25.8263 Cl      1  UNL1       -0.0829
     35 C         -24.3570    0.0170   29.2418 C.2     1  UNL1       -0.0199
     36 N         -27.0066    1.6555   29.7767 N.am    1  UNL1       -0.1824
     37 C         -28.5472    6.7410   30.1459 C.3     1  UNL1        0.1111
     38 N         -28.6358    8.0637   30.6913 N.3     1  UNL1       -0.1313
     39 C         -22.5215    1.0340   28.0611 C.2     1  UNL1       -0.0119
     40 C         -23.4816    1.5325   27.1671 C.2     1  UNL1        0.0499
     41 C         -28.8549    5.5829   31.0806 C.3     1  UNL1        0.0440
     42 C         -27.8092    2.7083   29.6067 C.2     1  UNL1        0.3396
     43 O         -28.8961    2.7142   29.1567 O.2     1  UNL1       -0.2492
     44 C         -26.8905    0.4878   28.9322 C.3     1  UNL1        0.1426
@<TRIPOS>BOND
     1     1    35    1
     2     2     7    1
     3     2     1    1
     4     3     2    2
     5     4     3    1
     6     4     5    2
     7     5     6    1
     8     6     7    2
     9     8     1    1
    10     8     9    1
    11     8    12    1
    12     9    10    1
    13    10    11    1
    14    12    11    1
    15    13    29    1
    16    14    13    1
    17    14    15    1
    18    15    18    2
    19    16    17    1
    20    16    15    1
    21    19    14    2
    22    20    21    2
    23    20    19    1
    24    21    26    1
    25    22    21    1
    26    23    22    1
    27    24    23    1
    28    24    25    1
    29    26    27    1
    30    26    13    1
    31    28    39    1
    32    29    33    1
    33    30    32    1
    34    31    35    1
    35    33    44    1
    36    33    35    2
    37    34    40    1
    38    37    38    1
    39    37    41    1
    40    39    31    2
    41    40    29    2
    42    40    39    1
    43    41    32    1
    44    42    36    1
    45    42    30    1
    46    43    42    2
    47    44    36    1
