@<TRIPOS>MOLECULE
outputs/IAG933/test6/raw/output_5247_IAG933_linker_design_.xyz
 46 50 0 0 0
SMALL
GASTEIGER

@<TRIPOS>ATOM
      1 C         -24.8550   -1.0120   30.1430 C.3     1  UNL1        0.0783
      2 C         -24.9730   -2.5050   29.7880 C.2     1  UNL1       -0.0155
      3 C         -23.9060   -3.1730   29.1460 C.2     1  UNL1       -0.0039
      4 C         -23.9890   -4.5490   28.8530 C.2     1  UNL1       -0.0003
      5 C         -25.1370   -5.2800   29.2050 C.2     1  UNL1       -0.0000
      6 C         -26.2320   -4.6110   29.7840 C.2     1  UNL1       -0.0003
      7 C         -26.1550   -3.2320   30.0650 C.2     1  UNL1       -0.0039
      8 C         -25.3870   -0.6790   31.5710 C.3     1  UNL1        0.0824
      9 C         -25.1890    0.7730   32.0280 C.3     1  UNL1        0.0196
     10 C         -25.3360    0.6840   33.5440 C.3     1  UNL1        0.0203
     11 C         -24.8290   -0.7150   33.9050 C.3     1  UNL1        0.0887
     12 N         -24.7580   -1.4810   32.6460 N.3     1  UNL1       -0.2187
     13 C         -25.6880    1.6140   26.4610 C.2     1  UNL1        0.0105
     14 C         -26.2500    2.9200   26.3950 C.2     1  UNL1        0.0530
     15 C         -25.6420    4.0930   27.1230 C.2     1  UNL1        0.2622
     16 N         -25.6140    5.2520   26.4490 N.am    1  UNL1       -0.2000
     17 C         -25.0260    6.4790   26.9630 C.3     1  UNL1        0.1388
     18 O         -25.1430    3.9660   28.2430 O.2     1  UNL1       -0.2687
     19 C         -27.4380    3.0910   25.6450 C.3     1  UNL1        0.1588
     20 N         -28.0750    2.0890   25.0030 N.2     1  UNL1       -0.2341
     21 C         -27.5430    0.8490   25.0790 C.2     1  UNL1        0.2338
     22 O         -28.1930   -0.2080   24.4770 O.2     1  UNL1       -0.4585
     23 C         -29.4600    0.0050   23.8660 C.3     1  UNL1        0.2423
     24 C         -30.0650   -1.3770   23.5730 C.3     1  UNL1        0.2292
     25 O         -30.7290   -1.8780   24.7210 O.3     1  UNL1       -0.2162
     26 C         -26.3540    0.5760   25.7770 C.3     1  UNL1        0.2546
     27 F         -25.8600   -0.6810   25.7950 F       1  UNL1       -0.2227
     28 N         -23.2812   -0.0758   29.3958 N.2     1  UNL1       -0.2707
     29 O         -23.0733    2.2977   25.9435 O.2     1  UNL1       -0.2924
     30 C         -26.6784    0.9930   29.0417 C.1     1  UNL1       -0.1036
     31 C         -25.2942    0.7963   28.5241 C.2     1  UNL1        0.0362
     32 C         -22.2090    0.4204   28.8304 C.3     1  UNL1        0.1679
     33 C         -24.7589    1.3340   27.3645 C.3     1  UNL1        0.1121
     34 C         -29.2962    5.5062   28.4381 C.2     1  UNL1       -0.0209
     35 C         -29.4270    2.9890   28.5434 C.2     1  UNL1        0.0003
     36 C         -28.1770    3.5119   30.6196 C.2     1  UNL1        0.0033
     37 C         -28.6563    2.5717   29.6315 C.2     1  UNL1        0.0078
     38 C         -28.0039    1.2379   29.7360 C.2     1  UNL1        0.0411
     39 C         -22.1876    1.3357   27.8183 C.3     1  UNL1        0.2423
     40 BR        -26.9319    5.6951   31.7196 Br      1  UNL1       -0.0533
     41 C         -29.6736    4.2299   28.0441 C.2     1  UNL1       -0.0042
     42 F         -21.0298    1.9207   27.5268 F       1  UNL1       -0.2271
     43 C         -28.0097    4.9157   30.4943 C.2     1  UNL1        0.0168
     44 C         -24.4714   -0.1038   29.3299 C.2     1  UNL1        0.0626
     45 C         -28.5946    5.8077   29.5692 C.3     1  UNL1        0.0591
     46 C         -23.3672    1.6696   26.9671 C.2     1  UNL1        0.1931
@<TRIPOS>BOND
     1     1    44    1
     2     2     7    1
     3     2     1    1
     4     3     2    2
     5     4     3    1
     6     4     5    2
     7     5     6    1
     8     6     7    2
     9     8     1    1
    10     8     9    1
    11     8    12    1
    12     9    10    1
    13    10    11    1
    14    12    11    1
    15    14    13    2
    16    14    15    1
    17    15    18    2
    18    16    17    1
    19    16    15    1
    20    19    14    1
    21    20    21    2
    22    20    19    1
    23    21    26    1
    24    22    21    1
    25    23    22    1
    26    24    23    1
    27    24    25    1
    28    26    27    1
    29    26    13    1
    30    29    46    2
    31    30    38    2
    32    31    30    2
    33    31    44    1
    34    32    28    1
    35    33    13    1
    36    33    31    1
    37    34    45    1
    38    35    37    2
    39    37    38    1
    40    37    36    1
    41    39    42    1
    42    39    32    1
    43    41    34    2
    44    41    35    1
    45    43    36    2
    46    43    40    1
    47    44    28    2
    48    45    43    1
    49    46    33    1
    50    46    39    1
