@<TRIPOS>MOLECULE
outputs/IAG933/test6/raw/output_5248_IAG933_linker_design_.xyz
 46 51 0 0 0
SMALL
GASTEIGER

@<TRIPOS>ATOM
      1 C         -24.8550   -1.0120   30.1430 C.3     1  UNL1        0.0450
      2 C         -24.9730   -2.5050   29.7880 C.2     1  UNL1       -0.0207
      3 C         -23.9060   -3.1730   29.1460 C.2     1  UNL1       -0.0042
      4 C         -23.9890   -4.5490   28.8530 C.2     1  UNL1       -0.0003
      5 C         -25.1370   -5.2800   29.2050 C.2     1  UNL1       -0.0000
      6 C         -26.2320   -4.6110   29.7840 C.2     1  UNL1       -0.0003
      7 C         -26.1550   -3.2320   30.0650 C.2     1  UNL1       -0.0042
      8 C         -25.3870   -0.6790   31.5710 C.3     1  UNL1        0.0772
      9 C         -25.1890    0.7730   32.0280 C.3     1  UNL1        0.0192
     10 C         -25.3360    0.6840   33.5440 C.3     1  UNL1        0.0202
     11 C         -24.8290   -0.7150   33.9050 C.3     1  UNL1        0.0887
     12 N         -24.7580   -1.4810   32.6460 N.3     1  UNL1       -0.2191
     13 C         -25.6880    1.6140   26.4610 C.3     1  UNL1        0.0776
     14 C         -26.2500    2.9200   26.3950 C.2     1  UNL1        0.0552
     15 C         -25.6420    4.0930   27.1230 C.2     1  UNL1        0.2625
     16 N         -25.6140    5.2520   26.4490 N.am    1  UNL1       -0.2000
     17 C         -25.0260    6.4790   26.9630 C.3     1  UNL1        0.1388
     18 O         -25.1430    3.9660   28.2430 O.2     1  UNL1       -0.2687
     19 C         -27.4380    3.0910   25.6450 C.2     1  UNL1        0.1022
     20 N         -28.0750    2.0890   25.0030 N.2     1  UNL1       -0.2119
     21 C         -27.5430    0.8490   25.0790 C.2     1  UNL1        0.2341
     22 O         -28.1930   -0.2080   24.4770 O.2     1  UNL1       -0.4585
     23 C         -29.4600    0.0050   23.8660 C.3     1  UNL1        0.2423
     24 C         -30.0650   -1.3770   23.5730 C.3     1  UNL1        0.2292
     25 O         -30.7290   -1.8780   24.7210 O.3     1  UNL1       -0.2162
     26 C         -26.3540    0.5760   25.7770 C.3     1  UNL1        0.2404
     27 F         -25.8600   -0.6810   25.7950 F       1  UNL1       -0.2269
     28 O         -27.0596    2.4746   29.9478 O.2     1  UNL1       -0.3316
     29 C         -26.6080    0.2757   28.8564 C.3     1  UNL1        0.2002
     30 S         -25.9926    6.0824   30.5557 S.3     1  UNL1       -0.0941
     31 C         -27.8111    3.6600   30.1909 C.2     1  UNL1        0.2033
     32 C         -27.4195    5.0220   30.3716 C.2     1  UNL1        0.1164
     33 O         -27.4360    1.3168   29.5438 O.3     1  UNL1       -0.1723
     34 O         -22.6270    1.8186   26.5000 O.2     1  UNL1       -0.4752
     35 C         -21.3397    1.7904   27.0831 C.3     1  UNL1        0.2313
     36 C         -29.1306    3.6865   30.4865 C.2     1  UNL1        0.0588
     37 C         -22.3286    0.5918   28.9143 C.2     1  UNL1       -0.0024
     38 C         -21.2255    1.0705   28.2265 C.2     1  UNL1        0.0204
     39 C         -23.5183    1.3363   27.2162 C.2     1  UNL1        0.1130
     40 N         -28.4863    5.8012   30.7187 N.pl3   1  UNL1       -0.2777
     41 C         -23.5586    0.7098   28.3826 C.2     1  UNL1        0.0100
     42 C         -24.3728    1.4326   26.3763 C.3     1  UNL1        0.0714
     43 C         -26.9601    7.3635   31.2659 C.3     1  UNL1        0.0853
     44 C         -24.9344    0.1591   29.0040 C.3     1  UNL1        0.0644
     45 C         -28.2557    7.1317   30.9748 C.3     1  UNL1        0.1081
     46 C         -29.5211    4.9820   30.9110 C.2     1  UNL1        0.0692
@<TRIPOS>BOND
     1     1    44    1
     2     2     7    1
     3     2     1    1
     4     3     2    2
     5     4     3    1
     6     4     5    2
     7     5     6    1
     8     6     7    2
     9     8     1    1
    10     8     9    1
    11     8    12    1
    12     9    10    1
    13    10    11    1
    14    12    11    1
    15    13    42    1
    16    14    13    1
    17    14    15    1
    18    15    18    2
    19    16    17    1
    20    16    15    1
    21    19    14    2
    22    20    21    2
    23    20    19    1
    24    21    26    1
    25    22    21    1
    26    23    22    1
    27    24    23    1
    28    24    25    1
    29    26    27    1
    30    26    13    1
    31    28    31    1
    32    29    33    1
    33    30    43    1
    34    31    32    2
    35    31    36    1
    36    32    30    1
    37    32    40    1
    38    33    28    1
    39    34    35    1
    40    34    39    1
    41    35    38    1
    42    36    46    2
    43    38    37    2
    44    39    41    2
    45    40    46    1
    46    40    45    1
    47    41    37    1
    48    41    44    1
    49    42    39    1
    50    44    29    1
    51    45    43    1
