@<TRIPOS>MOLECULE
No_525-gen_results/8p0m/2024-11-27-11-27-31/
 16 16 0 0 0
SMALL
GASTEIGER

@<TRIPOS>ATOM
      1 C         -28.0162   -0.8135   28.8779 C.3     1  UNL1        0.1518
      2 C         -27.0636   -0.1189   28.6079 C.ar    1  UNL1        0.0020
      3 C         -26.9716    0.7139   27.5060 C.ar    1  UNL1       -0.0022
      4 C         -25.8205    1.4909   27.1160 C.ar    1  UNL1        0.0044
      5 C         -24.6562    1.4242   27.9180 C.ar    1  UNL1        0.0566
      6 C         -24.6847    0.5901   29.0659 C.ar    1  UNL1        0.0044
      7 C         -25.8099   -0.1265   29.3338 C.ar    1  UNL1       -0.0022
      8 N         -27.9680   -1.6901   30.0059 N.2     1  UNL1       -0.2606
      9 C         -23.4715    2.1888   27.6131 C.2     1  UNL1        0.2842
     10 O         -23.2745    2.6995   26.5021 O.2     1  UNL1       -0.2667
     11 N         -22.2808    1.9446   28.3604 N.am    1  UNL1       -0.0837
     12 C         -29.0628   -2.3695   30.4619 C.2     1  UNL1        0.1692
     13 C         -28.8330   -3.5897   31.3266 C.3     1  UNL1        0.4358
     14 F         -27.8195   -4.1926   30.8134 F       1  UNL1       -0.1644
     15 F         -28.5429   -3.3274   32.5698 F       1  UNL1       -0.1644
     16 F         -29.9104   -4.2934   31.5141 F       1  UNL1       -0.1644
@<TRIPOS>BOND
     1     1     8    1
     2     5     9    1
     3     9    10    2
     4     9    11   am
     5     8    12    2
     6    12    13    1
     7    13    14    1
     8    13    15    1
     9    13    16    1
    10     1     2    1
    11     2     3   ar
    12     3     4   ar
    13     4     5   ar
    14     5     6   ar
    15     6     7   ar
    16     7     2   ar
