@<TRIPOS>MOLECULE
outputs/IAG933/test6/raw/output_5251_IAG933_linker_design_.xyz
 39 42 0 0 0
SMALL
GASTEIGER

@<TRIPOS>ATOM
      1 C         -24.8550   -1.0120   30.1430 C.3     1  UNL1        0.1186
      2 C         -24.9730   -2.5050   29.7880 C.2     1  UNL1       -0.0028
      3 C         -23.9060   -3.1730   29.1460 C.2     1  UNL1       -0.0026
      4 C         -23.9890   -4.5490   28.8530 C.2     1  UNL1       -0.0003
      5 C         -25.1370   -5.2800   29.2050 C.2     1  UNL1       -0.0000
      6 C         -26.2320   -4.6110   29.7840 C.2     1  UNL1       -0.0003
      7 C         -26.1550   -3.2320   30.0650 C.2     1  UNL1       -0.0026
      8 C         -25.3870   -0.6790   31.5710 C.3     1  UNL1        0.0953
      9 C         -25.1890    0.7730   32.0280 C.3     1  UNL1        0.0209
     10 C         -25.3360    0.6840   33.5440 C.3     1  UNL1        0.0203
     11 C         -24.8290   -0.7150   33.9050 C.3     1  UNL1        0.0888
     12 N         -24.7580   -1.4810   32.6460 N.3     1  UNL1       -0.2174
     13 C         -25.6880    1.6140   26.4610 C.2     1  UNL1        0.0453
     14 C         -26.2500    2.9200   26.3950 C.2     1  UNL1        0.0768
     15 C         -25.6420    4.0930   27.1230 C.2     1  UNL1        0.2664
     16 N         -25.6140    5.2520   26.4490 N.am    1  UNL1       -0.1997
     17 C         -25.0260    6.4790   26.9630 C.3     1  UNL1        0.1388
     18 O         -25.1430    3.9660   28.2430 O.2     1  UNL1       -0.2683
     19 C         -27.4380    3.0910   25.6450 C.2     1  UNL1        0.1067
     20 N         -28.0750    2.0890   25.0030 N.2     1  UNL1       -0.2081
     21 C         -27.5430    0.8490   25.0790 C.2     1  UNL1        0.2533
     22 O         -28.1930   -0.2080   24.4770 O.2     1  UNL1       -0.4558
     23 C         -29.4600    0.0050   23.8660 C.3     1  UNL1        0.2426
     24 C         -30.0650   -1.3770   23.5730 C.3     1  UNL1        0.2292
     25 O         -30.7290   -1.8780   24.7210 O.3     1  UNL1       -0.2162
     26 C         -26.3540    0.5760   25.7770 C.2     1  UNL1        0.1933
     27 F         -25.8600   -0.6810   25.7950 F       1  UNL1       -0.1992
     28 N         -24.1534   -0.0356   29.3039 N.am    1  UNL1       -0.2243
     29 F         -22.1254    0.0615   30.4571 F       1  UNL1       -0.1832
     30 C         -22.2685    0.9685   28.3279 C.3     1  UNL1        0.2299
     31 C         -23.1339    1.4328   27.2294 C.2     1  UNL1        0.1921
     32 O         -26.0016   -0.4581   28.0898 O.2     1  UNL1       -0.2697
     33 O         -23.1789    1.8011   30.3446 O.3     1  UNL1       -0.1669
     34 O         -23.1828    2.4820   25.2213 O.3     1  UNL1        0.0281
     35 C         -24.5780    1.0825   27.2669 C.2     1  UNL1        0.0915
     36 C         -24.9430    0.1619   28.1883 C.2     1  UNL1        0.2557
     37 N         -20.8410    1.1348   28.1245 N.3     1  UNL1       -0.1170
     38 C         -23.0256    0.5857   29.5615 C.3     1  UNL1        0.3465
     39 O         -22.4765    2.1287   26.2854 O.2     1  UNL1       -0.3056
@<TRIPOS>BOND
     1     1     2    1
     2     2     7    1
     3     3     2    2
     4     4     3    1
     5     4     5    2
     6     5     6    1
     7     6     7    2
     8     8     1    1
     9     8     9    1
    10     8    12    1
    11     9    10    1
    12    10    11    1
    13    12    11    1
    14    13    35    1
    15    14    13    1
    16    14    15    1
    17    15    18    2
    18    16    17    1
    19    16    15    1
    20    19    14    2
    21    20    21    2
    22    20    19    1
    23    21    26    1
    24    22    21    1
    25    23    22    1
    26    24    23    1
    27    24    25    1
    28    26    27    1
    29    26    13    2
    30    28    38    1
    31    28     1    1
    32    30    37    1
    33    30    38    1
    34    31    35    2
    35    31    30    1
    36    32    36    2
    37    34    39    1
    38    35    36    1
    39    36    28   am
    40    38    33    1
    41    38    29    1
    42    39    31    1
