@<TRIPOS>MOLECULE
outputs/IAG933/test6/raw/output_5253_IAG933_linker_design_.xyz
 39 43 0 0 0
SMALL
GASTEIGER

@<TRIPOS>ATOM
      1 C         -24.8550   -1.0120   30.1430 C.3     1  UNL1        0.2002
      2 C         -24.9730   -2.5050   29.7880 C.2     1  UNL1        0.0213
      3 C         -23.9060   -3.1730   29.1460 C.2     1  UNL1       -0.0004
      4 C         -23.9890   -4.5490   28.8530 C.2     1  UNL1       -0.0002
      5 C         -25.1370   -5.2800   29.2050 C.2     1  UNL1       -0.0000
      6 C         -26.2320   -4.6110   29.7840 C.2     1  UNL1       -0.0002
      7 C         -26.1550   -3.2320   30.0650 C.2     1  UNL1       -0.0004
      8 C         -25.3870   -0.6790   31.5710 C.3     1  UNL1        0.1198
      9 C         -25.1890    0.7730   32.0280 C.3     1  UNL1        0.0233
     10 C         -25.3360    0.6840   33.5440 C.3     1  UNL1        0.0204
     11 C         -24.8290   -0.7150   33.9050 C.3     1  UNL1        0.0889
     12 N         -24.7580   -1.4810   32.6460 N.3     1  UNL1       -0.2150
     13 C         -25.6880    1.6140   26.4610 C.3     1  UNL1        0.1467
     14 C         -26.2500    2.9200   26.3950 C.2     1  UNL1        0.0732
     15 C         -25.6420    4.0930   27.1230 C.2     1  UNL1        0.2640
     16 N         -25.6140    5.2520   26.4490 N.am    1  UNL1       -0.1999
     17 C         -25.0260    6.4790   26.9630 C.3     1  UNL1        0.1388
     18 O         -25.1430    3.9660   28.2430 O.2     1  UNL1       -0.2686
     19 C         -27.4380    3.0910   25.6450 C.2     1  UNL1        0.1038
     20 N         -28.0750    2.0890   25.0030 N.2     1  UNL1       -0.2118
     21 C         -27.5430    0.8490   25.0790 C.2     1  UNL1        0.2358
     22 O         -28.1930   -0.2080   24.4770 O.2     1  UNL1       -0.4585
     23 C         -29.4600    0.0050   23.8660 C.3     1  UNL1        0.2423
     24 C         -30.0650   -1.3770   23.5730 C.3     1  UNL1        0.2292
     25 O         -30.7290   -1.8780   24.7210 O.3     1  UNL1       -0.2162
     26 C         -26.3540    0.5760   25.7770 C.3     1  UNL1        0.2581
     27 F         -25.8600   -0.6810   25.7950 F       1  UNL1       -0.2251
     28 C         -20.6341    1.6301   27.4351 C.2     1  UNL1        0.2876
     29 N         -24.2893   -0.1565   29.3762 N.pl3   1  UNL1       -0.1662
     30 N         -24.8357    1.1744   27.5232 N.pl3   1  UNL1       -0.2563
     31 C         -25.3672    0.1671   28.5398 C.3     1  UNL1        0.3054
     32 O         -21.3870    2.2257   26.5297 O.3     1  UNL1       -0.3974
     33 C         -23.0982   -0.0257   29.3382 C.2     1  UNL1        0.3967
     34 N         -21.1993    0.9775   28.4060 N.2     1  UNL1       -0.1981
     35 C         -22.7781    2.1394   26.4813 C.2     1  UNL1        0.3625
     36 O         -23.3375    2.7360   25.5450 O.2     1  UNL1       -0.2430
     37 C         -23.4501    1.3858   27.5379 C.2     1  UNL1        0.1535
     38 N         -22.2334   -0.5288   30.1585 N.2     1  UNL1        0.1950
     39 C         -22.5561    0.8130   28.4123 C.2     1  UNL1        0.1907
@<TRIPOS>BOND
     1     1     2    1
     2     2     7    1
     3     3     2    2
     4     4     3    1
     5     4     5    2
     6     5     6    1
     7     6     7    2
     8     8     1    1
     9     8     9    1
    10     8    12    1
    11     9    10    1
    12    10    11    1
    13    12    11    1
    14    13    30    1
    15    14    13    1
    16    14    15    1
    17    15    18    2
    18    16    17    1
    19    16    15    1
    20    19    14    2
    21    20    21    2
    22    20    19    1
    23    21    26    1
    24    22    21    1
    25    23    22    1
    26    24    23    1
    27    24    25    1
    28    26    27    1
    29    26    13    1
    30    28    34    2
    31    29     1    1
    32    30    37    1
    33    30    31    1
    34    31    29    1
    35    32    28    1
    36    33    29    1
    37    33    38    2
    38    34    39    1
    39    35    32    1
    40    35    37    1
    41    36    35    2
    42    37    39    2
    43    39    33    1
