@<TRIPOS>MOLECULE
outputs/IAG933/test6/raw/output_526_IAG933_linker_design_.xyz
 42 45 0 0 0
SMALL
GASTEIGER

@<TRIPOS>ATOM
      1 C         -24.8550   -1.0120   30.1430 C.3     1  UNL1        0.1126
      2 C         -24.9730   -2.5050   29.7880 C.2     1  UNL1       -0.0030
      3 C         -23.9060   -3.1730   29.1460 C.2     1  UNL1       -0.0026
      4 C         -23.9890   -4.5490   28.8530 C.2     1  UNL1       -0.0003
      5 C         -25.1370   -5.2800   29.2050 C.2     1  UNL1       -0.0000
      6 C         -26.2320   -4.6110   29.7840 C.2     1  UNL1       -0.0003
      7 C         -26.1550   -3.2320   30.0650 C.2     1  UNL1       -0.0026
      8 C         -25.3870   -0.6790   31.5710 C.3     1  UNL1        0.0951
      9 C         -25.1890    0.7730   32.0280 C.3     1  UNL1        0.0209
     10 C         -25.3360    0.6840   33.5440 C.3     1  UNL1        0.0203
     11 C         -24.8290   -0.7150   33.9050 C.3     1  UNL1        0.0888
     12 N         -24.7580   -1.4810   32.6460 N.3     1  UNL1       -0.2174
     13 C         -25.6880    1.6140   26.4610 C.2     1  UNL1        0.0470
     14 C         -26.2500    2.9200   26.3950 C.2     1  UNL1        0.0772
     15 C         -25.6420    4.0930   27.1230 C.2     1  UNL1        0.2664
     16 N         -25.6140    5.2520   26.4490 N.am    1  UNL1       -0.1997
     17 C         -25.0260    6.4790   26.9630 C.3     1  UNL1        0.1388
     18 O         -25.1430    3.9660   28.2430 O.2     1  UNL1       -0.2683
     19 C         -27.4380    3.0910   25.6450 C.2     1  UNL1        0.1067
     20 N         -28.0750    2.0890   25.0030 N.2     1  UNL1       -0.2081
     21 C         -27.5430    0.8490   25.0790 C.2     1  UNL1        0.2533
     22 O         -28.1930   -0.2080   24.4770 O.2     1  UNL1       -0.4558
     23 C         -29.4600    0.0050   23.8660 C.3     1  UNL1        0.2426
     24 C         -30.0650   -1.3770   23.5730 C.3     1  UNL1        0.2292
     25 O         -30.7290   -1.8780   24.7210 O.3     1  UNL1       -0.2162
     26 C         -26.3540    0.5760   25.7770 C.2     1  UNL1        0.1937
     27 F         -25.8600   -0.6810   25.7950 F       1  UNL1       -0.1992
     28 N         -25.1773    0.0200   29.1774 N.pl3   1  UNL1       -0.2867
     29 C         -24.4839    1.3136   27.2003 C.2     1  UNL1        0.0603
     30 C         -28.6261    0.2051   28.3985 C.1     1  UNL1       -0.0124
     31 C         -27.5360    0.6025   28.6887 C.1     1  UNL1       -0.0557
     32 C         -20.7879    0.8633   28.2364 C.3     1  UNL1        0.2406
     33 C         -22.1787    2.2159   25.2880 C.3     1  UNL1        0.3812
     34 C         -21.8273    0.1978   28.8802 C.2     1  UNL1        0.0634
     35 C         -23.1157    0.2468   28.6739 C.1     1  UNL1       -0.0869
     36 C         -23.3511    1.4208   27.1411 C.1     1  UNL1       -0.0624
     37 O         -20.8329    1.5352   27.0801 O.2     1  UNL1       -0.4615
     38 C         -26.3437    0.7590   29.2374 C.3     1  UNL1        0.1701
     39 C         -22.1415    1.7033   26.5835 C.2     1  UNL1        0.2176
     40 F         -22.6331    1.2277   24.5142 F       1  UNL1       -0.1890
     41 C         -24.2087    0.5808   28.2575 C.2     1  UNL1        0.0913
     42 F         -23.2172    3.1918   25.2374 F       1  UNL1       -0.1890
@<TRIPOS>BOND
     1     1    28    1
     2     2     7    1
     3     2     1    1
     4     3     2    2
     5     4     3    1
     6     4     5    2
     7     5     6    1
     8     6     7    2
     9     8     1    1
    10     8     9    1
    11     8    12    1
    12     9    10    1
    13    10    11    1
    14    12    11    1
    15    13    29    1
    16    14    13    1
    17    14    15    1
    18    15    18    2
    19    16    17    1
    20    16    15    1
    21    19    14    2
    22    20    21    2
    23    20    19    1
    24    21    26    1
    25    22    21    1
    26    23    22    1
    27    24    23    1
    28    24    25    1
    29    26    27    1
    30    26    13    2
    31    28    38    1
    32    29    41    1
    33    30    31    3
    34    31    38    1
    35    32    34    1
    36    33    39    1
    37    35    34    2
    38    36    29    2
    39    37    32    1
    40    39    37    1
    41    39    36    2
    42    40    33    1
    43    41    35    2
    44    41    28    1
    45    42    33    1
