@<TRIPOS>MOLECULE
outputs/IAG933/test6/raw/output_5261_IAG933_linker_design_.xyz
 42 45 0 0 0
SMALL
GASTEIGER

@<TRIPOS>ATOM
      1 C         -24.8550   -1.0120   30.1430 C.3     1  UNL1        0.2053
      2 C         -24.9730   -2.5050   29.7880 C.2     1  UNL1        0.0217
      3 C         -23.9060   -3.1730   29.1460 C.2     1  UNL1       -0.0004
      4 C         -23.9890   -4.5490   28.8530 C.2     1  UNL1       -0.0002
      5 C         -25.1370   -5.2800   29.2050 C.2     1  UNL1       -0.0000
      6 C         -26.2320   -4.6110   29.7840 C.2     1  UNL1       -0.0002
      7 C         -26.1550   -3.2320   30.0650 C.2     1  UNL1       -0.0004
      8 C         -25.3870   -0.6790   31.5710 C.3     1  UNL1        0.1202
      9 C         -25.1890    0.7730   32.0280 C.3     1  UNL1        0.0233
     10 C         -25.3360    0.6840   33.5440 C.3     1  UNL1        0.0204
     11 C         -24.8290   -0.7150   33.9050 C.3     1  UNL1        0.0889
     12 N         -24.7580   -1.4810   32.6460 N.3     1  UNL1       -0.2150
     13 C         -25.6880    1.6140   26.4610 C.3     1  UNL1        0.1175
     14 C         -26.2500    2.9200   26.3950 C.2     1  UNL1        0.0607
     15 C         -25.6420    4.0930   27.1230 C.2     1  UNL1        0.2628
     16 N         -25.6140    5.2520   26.4490 N.am    1  UNL1       -0.2000
     17 C         -25.0260    6.4790   26.9630 C.3     1  UNL1        0.1388
     18 O         -25.1430    3.9660   28.2430 O.2     1  UNL1       -0.2686
     19 C         -27.4380    3.0910   25.6450 C.2     1  UNL1        0.1025
     20 N         -28.0750    2.0890   25.0030 N.2     1  UNL1       -0.2118
     21 C         -27.5430    0.8490   25.0790 C.2     1  UNL1        0.2345
     22 O         -28.1930   -0.2080   24.4770 O.2     1  UNL1       -0.4585
     23 C         -29.4600    0.0050   23.8660 C.3     1  UNL1        0.2423
     24 C         -30.0650   -1.3770   23.5730 C.3     1  UNL1        0.2292
     25 O         -30.7290   -1.8780   24.7210 O.3     1  UNL1       -0.2162
     26 C         -26.3540    0.5760   25.7770 C.3     1  UNL1        0.2458
     27 F         -25.8600   -0.6810   25.7950 F       1  UNL1       -0.2265
     28 N         -24.2633    0.0985   29.3666 N.pl3   1  UNL1       -0.1444
     29 O         -28.0708   -0.9416   28.1642 O.3     1  UNL1       -0.2158
     30 C         -24.7845    1.1449   27.3304 C.2     1  UNL1        0.1482
     31 C         -22.1378    0.9679   28.0413 C.2     1  UNL1        0.2513
     32 CA        -27.5964    1.2122   28.8060 C.3     1  UNL1        0.2376
     33 F         -22.1500   -0.0503   30.1913 F       1  UNL1       -0.1572
     34 F         -22.1028    2.0070   25.7843 F       1  UNL1       -0.1805
     35 N         -26.3754    1.0181   29.0457 N.pl3   1  UNL1       -0.0366
     36 C         -22.8449    0.3621   29.1805 C.2     1  UNL1        0.3124
     37 C         -25.1675    0.8398   28.5820 C.2     0  ACE0        0.3292
     38 C         -28.3977    0.3146   27.9916 C.3     1  UNL1        0.2326
     39 N         -23.7680    1.0119   26.5149 N.2     1  UNL1       -0.2126
     40 C         -22.7461    1.3539   26.8012 C.2     1  UNL1        0.2557
     41 CB        -28.1617    2.3578   29.5401 C.3     1  UNL1        0.0581
     42 F         -20.8221    1.0915   28.0623 F       1  UNL1       -0.1939
@<TRIPOS>BOND
     1     1     2    1
     2     2     7    1
     3     3     2    2
     4     4     3    1
     5     4     5    2
     6     5     6    1
     7     6     7    2
     8     8     1    1
     9     8     9    1
    10     8    12    1
    11     9    10    1
    12    10    11    1
    13    12    11    1
    14    13    30    1
    15    14    13    1
    16    14    15    1
    17    15    18    2
    18    16    17    1
    19    16    15    1
    20    19    14    2
    21    20    21    2
    22    20    19    1
    23    21    26    1
    24    22    21    1
    25    23    22    1
    26    24    23    1
    27    24    25    1
    28    26    27    1
    29    26    13    1
    30    28     1    1
    31    30    37    2
    32    31    42    1
    33    31    36    2
    34    32    35    1
    35    32    41    1
    36    34    40    1
    37    36    28    1
    38    36    33    1
    39    37    35    1
    40    37    28    1
    41    38    29    1
    42    38    32    1
    43    39    40    2
    44    39    30    1
    45    40    31    1
