@<TRIPOS>MOLECULE
outputs/IAG933/test6/raw/output_5262_IAG933_linker_design_.xyz
 40 44 0 0 0
SMALL
GASTEIGER

@<TRIPOS>ATOM
      1 C         -24.8550   -1.0120   30.1430 C.3     1  UNL1        0.1134
      2 C         -24.9730   -2.5050   29.7880 C.2     1  UNL1       -0.0050
      3 C         -23.9060   -3.1730   29.1460 C.2     1  UNL1       -0.0029
      4 C         -23.9890   -4.5490   28.8530 C.2     1  UNL1       -0.0003
      5 C         -25.1370   -5.2800   29.2050 C.2     1  UNL1       -0.0000
      6 C         -26.2320   -4.6110   29.7840 C.2     1  UNL1       -0.0003
      7 C         -26.1550   -3.2320   30.0650 C.2     1  UNL1       -0.0029
      8 C         -25.3870   -0.6790   31.5710 C.3     1  UNL1        0.0999
      9 C         -25.1890    0.7730   32.0280 C.3     1  UNL1        0.0799
     10 C         -25.3360    0.6840   33.5440 C.3     1  UNL1        0.0277
     11 C         -24.8290   -0.7150   33.9050 C.3     1  UNL1        0.0892
     12 N         -24.7580   -1.4810   32.6460 N.3     1  UNL1       -0.2173
     13 C         -25.6880    1.6140   26.4610 C.3     1  UNL1        0.0915
     14 C         -26.2500    2.9200   26.3950 C.2     1  UNL1        0.0565
     15 C         -25.6420    4.0930   27.1230 C.2     1  UNL1        0.2625
     16 N         -25.6140    5.2520   26.4490 N.am    1  UNL1       -0.2000
     17 C         -25.0260    6.4790   26.9630 C.3     1  UNL1        0.1388
     18 O         -25.1430    3.9660   28.2430 O.2     1  UNL1       -0.2687
     19 C         -27.4380    3.0910   25.6450 C.2     1  UNL1        0.1022
     20 N         -28.0750    2.0890   25.0030 N.2     1  UNL1       -0.2119
     21 C         -27.5430    0.8490   25.0790 C.2     1  UNL1        0.2341
     22 O         -28.1930   -0.2080   24.4770 O.2     1  UNL1       -0.4585
     23 C         -29.4600    0.0050   23.8660 C.3     1  UNL1        0.2423
     24 C         -30.0650   -1.3770   23.5730 C.3     1  UNL1        0.2292
     25 O         -30.7290   -1.8780   24.7210 O.3     1  UNL1       -0.2162
     26 C         -26.3540    0.5760   25.7770 C.3     1  UNL1        0.2417
     27 F         -25.8600   -0.6810   25.7950 F       1  UNL1       -0.2268
     28 C         -24.4236    1.2114   29.2129 C.3     1  UNL1        0.2093
     29 C         -22.0371    1.8866   26.0173 C.2     1  UNL1        0.1562
     30 O         -21.8583    0.3809   29.2899 O.2     1  UNL1       -0.2698
     31 C         -24.5392    1.6257   30.8101 C.2     1  UNL1        0.1865
     32 N         -24.2466   -0.1722   29.3978 N.3     1  UNL1       -0.1891
     33 F         -23.7269    1.4280   24.4308 F       1  UNL1       -0.2282
     34 O         -24.0501    2.6944   31.1491 O.2     1  UNL1       -0.2927
     35 N         -23.7939    1.1371   28.1244 N.am    1  UNL1       -0.2555
     36 F         -21.2159    2.3604   25.1038 F       1  UNL1       -0.2058
     37 C         -22.3510    0.9778   28.2918 C.2     1  UNL1        0.2525
     38 C         -23.3528    1.5702   25.7162 C.3     1  UNL1        0.2288
     39 C         -24.2516    1.4367   26.8001 C.3     1  UNL1        0.1236
     40 C         -21.5393    1.5287   27.2760 C.2     1  UNL1        0.0859
@<TRIPOS>BOND
     1     1     2    1
     2     1     8    1
     3     2     7    1
     4     3     2    2
     5     4     3    1
     6     4     5    2
     7     5     6    1
     8     6     7    2
     9     8     9    1
    10     8    12    1
    11     9    10    1
    12    10    11    1
    13    12    11    1
    14    13    14    1
    15    13    39    1
    16    14    15    1
    17    15    18    2
    18    16    17    1
    19    16    15    1
    20    19    14    2
    21    20    21    2
    22    20    19    1
    23    21    26    1
    24    22    21    1
    25    23    22    1
    26    24    23    1
    27    24    25    1
    28    26    27    1
    29    26    13    1
    30    28    35    1
    31    28    32    1
    32    28    31    1
    33    29    40    2
    34    31    34    2
    35    31     9    1
    36    32     1    1
    37    35    37   am
    38    36    29    1
    39    37    30    2
    40    38    33    1
    41    38    29    1
    42    38    39    1
    43    39    35    1
    44    40    37    1
