@<TRIPOS>MOLECULE
outputs/IAG933/test6/raw/output_5263_IAG933_linker_design_.xyz
 42 45 0 0 0
SMALL
GASTEIGER

@<TRIPOS>ATOM
      1 C         -24.8550   -1.0120   30.1430 C.3     1  UNL1        0.0438
      2 C         -24.9730   -2.5050   29.7880 C.2     1  UNL1       -0.0208
      3 C         -23.9060   -3.1730   29.1460 C.2     1  UNL1       -0.0042
      4 C         -23.9890   -4.5490   28.8530 C.2     1  UNL1       -0.0003
      5 C         -25.1370   -5.2800   29.2050 C.2     1  UNL1       -0.0000
      6 C         -26.2320   -4.6110   29.7840 C.2     1  UNL1       -0.0003
      7 C         -26.1550   -3.2320   30.0650 C.2     1  UNL1       -0.0042
      8 C         -25.3870   -0.6790   31.5710 C.3     1  UNL1        0.0799
      9 C         -25.1890    0.7730   32.0280 C.3     1  UNL1        0.0504
     10 C         -25.3360    0.6840   33.5440 C.3     1  UNL1        0.0230
     11 C         -24.8290   -0.7150   33.9050 C.3     1  UNL1        0.0888
     12 N         -24.7580   -1.4810   32.6460 N.3     1  UNL1       -0.2190
     13 C         -25.6880    1.6140   26.4610 C.2     1  UNL1        0.0917
     14 C         -26.2500    2.9200   26.3950 C.2     1  UNL1        0.0809
     15 C         -25.6420    4.0930   27.1230 C.2     1  UNL1        0.2666
     16 N         -25.6140    5.2520   26.4490 N.am    1  UNL1       -0.1997
     17 C         -25.0260    6.4790   26.9630 C.3     1  UNL1        0.1388
     18 O         -25.1430    3.9660   28.2430 O.2     1  UNL1       -0.2683
     19 C         -27.4380    3.0910   25.6450 C.2     1  UNL1        0.1069
     20 N         -28.0750    2.0890   25.0030 N.2     1  UNL1       -0.2081
     21 C         -27.5430    0.8490   25.0790 C.2     1  UNL1        0.2534
     22 O         -28.1930   -0.2080   24.4770 O.2     1  UNL1       -0.4558
     23 C         -29.4600    0.0050   23.8660 C.3     1  UNL1        0.2426
     24 C         -30.0650   -1.3770   23.5730 C.3     1  UNL1        0.2292
     25 O         -30.7290   -1.8780   24.7210 O.3     1  UNL1       -0.2162
     26 C         -26.3540    0.5760   25.7770 C.2     1  UNL1        0.1974
     27 F         -25.8600   -0.6810   25.7950 F       1  UNL1       -0.1991
     28 C         -21.9652    0.9030   28.7537 C.3     1  UNL1        0.1848
     29 C         -24.5402    1.0227   27.2205 C.2     1  UNL1        0.2562
     30 N         -24.1719    1.7960   29.8802 N.3     1  UNL1       -0.1816
     31 N         -23.4746    1.7021   27.5596 N.am    1  UNL1       -0.2097
     32 O         -24.6476   -0.2052   27.5169 O.2     1  UNL1       -0.2697
     33 C         -26.4505    5.0601   31.2156 C.2     1  UNL1        0.2785
     34 F         -22.3046    2.2412   25.4214 F       1  UNL1       -0.1800
     35 C         -26.5778    3.6619   30.8041 C.3     1  UNL1        0.1783
     36 O         -21.3620    1.3570   27.4494 O.3     1  UNL1       -0.3077
     37 N         -27.4897    5.7160   31.5797 N.am    1  UNL1       -0.0865
     38 C         -23.3438    1.4493   28.8677 C.3     1  UNL1        0.1854
     39 C         -24.8430    2.0099   31.2289 C.3     1  UNL1        0.1487
     40 N         -25.4058    3.0836   31.5844 N.3     1  UNL1       -0.1924
     41 C         -22.3427    1.9057   26.7725 C.3     1  UNL1        0.3683
     42 O         -25.3516    5.5360   31.1585 O.2     1  UNL1       -0.2701
@<TRIPOS>BOND
     1     2     7    1
     2     2     1    1
     3     3     2    2
     4     4     3    1
     5     4     5    2
     6     5     6    1
     7     6     7    2
     8     8     1    1
     9     8     9    1
    10     8    12    1
    11     9    39    1
    12     9    10    1
    13    10    11    1
    14    12    11    1
    15    13    29    1
    16    14    13    1
    17    14    15    1
    18    15    18    2
    19    16    17    1
    20    16    15    1
    21    19    14    2
    22    20    21    2
    23    20    19    1
    24    21    26    1
    25    22    21    1
    26    23    22    1
    27    24    23    1
    28    24    25    1
    29    26    27    1
    30    26    13    2
    31    28    38    1
    32    29    32    2
    33    29    31   am
    34    31    38    1
    35    33    37    1
    36    35    33    1
    37    35    40    1
    38    36    28    1
    39    38    30    1
    40    39    30    1
    41    39    40    1
    42    41    34    1
    43    41    36    1
    44    41    31    1
    45    42    33    2
