@<TRIPOS>MOLECULE
outputs/IAG933/test6/raw/output_5266_IAG933_linker_design_.xyz
 43 47 0 0 0
SMALL
GASTEIGER

@<TRIPOS>ATOM
      1 C         -24.8550   -1.0120   30.1430 C.3     1  UNL1        0.0639
      2 C         -24.9730   -2.5050   29.7880 C.2     1  UNL1       -0.0191
      3 C         -23.9060   -3.1730   29.1460 C.2     1  UNL1       -0.0042
      4 C         -23.9890   -4.5490   28.8530 C.2     1  UNL1       -0.0003
      5 C         -25.1370   -5.2800   29.2050 C.2     1  UNL1       -0.0000
      6 C         -26.2320   -4.6110   29.7840 C.2     1  UNL1       -0.0003
      7 C         -26.1550   -3.2320   30.0650 C.2     1  UNL1       -0.0042
      8 C         -25.3870   -0.6790   31.5710 C.3     1  UNL1        0.0788
      9 C         -25.1890    0.7730   32.0280 C.3     1  UNL1        0.0193
     10 C         -25.3360    0.6840   33.5440 C.3     1  UNL1        0.0202
     11 C         -24.8290   -0.7150   33.9050 C.3     1  UNL1        0.0887
     12 N         -24.7580   -1.4810   32.6460 N.3     1  UNL1       -0.2191
     13 C         -25.6880    1.6140   26.4610 C.2     1  UNL1        0.0399
     14 C         -26.2500    2.9200   26.3950 C.2     1  UNL1        0.0766
     15 C         -25.6420    4.0930   27.1230 C.2     1  UNL1        0.2664
     16 N         -25.6140    5.2520   26.4490 N.am    1  UNL1       -0.1997
     17 C         -25.0260    6.4790   26.9630 C.3     1  UNL1        0.1388
     18 O         -25.1430    3.9660   28.2430 O.2     1  UNL1       -0.2683
     19 C         -27.4380    3.0910   25.6450 C.2     1  UNL1        0.1067
     20 N         -28.0750    2.0890   25.0030 N.2     1  UNL1       -0.2081
     21 C         -27.5430    0.8490   25.0790 C.2     1  UNL1        0.2533
     22 O         -28.1930   -0.2080   24.4770 O.2     1  UNL1       -0.4558
     23 C         -29.4600    0.0050   23.8660 C.3     1  UNL1        0.2426
     24 C         -30.0650   -1.3770   23.5730 C.3     1  UNL1        0.2292
     25 O         -30.7290   -1.8780   24.7210 O.3     1  UNL1       -0.2162
     26 C         -26.3540    0.5760   25.7770 C.2     1  UNL1        0.1931
     27 F         -25.8600   -0.6810   25.7950 F       1  UNL1       -0.1992
     28 C         -23.2084    1.6520   26.8161 C.2     1  UNL1        0.0922
     29 N         -26.7692   -0.4408   28.7198 N.pl3   1  UNL1       -0.2330
     30 C         -22.3971    1.2670   27.7892 C.3     1  UNL1        0.2969
     31 N         -23.0872    0.6545   28.7264 N.2     1  UNL1       -0.2369
     32 C         -29.5569    1.8024   29.9178 C.2     1  UNL1        0.0590
     33 C         -28.2021    1.4380   29.5946 C.2     1  UNL1        0.0275
     34 F         -21.1265    1.5555   27.7211 F       1  UNL1       -0.2042
     35 C         -24.4628    1.3334   27.1171 C.2     1  UNL1        0.0285
     36 C         -30.4438   -0.2046   29.0026 C.2     1  UNL1        0.0022
     37 C         -25.4682    0.0031   29.1798 C.3     1  UNL1        0.1371
     38 C         -24.3923    0.6318   28.3462 C.2     1  UNL1        0.0776
     39 CL        -22.6478    2.3319   25.3451 Cl      1  UNL1       -0.0820
     40 C         -29.1864   -0.5255   28.4917 C.2     1  UNL1        0.0162
     41 C         -30.6228    0.9259   29.8301 C.2     1  UNL1        0.0115
     42 CL        -30.0256    3.2870   30.2703 Cl      1  UNL1       -0.0822
     43 C         -28.0579    0.2137   28.9175 C.2     1  UNL1        0.0665
@<TRIPOS>BOND
     1     1    37    1
     2     2     7    1
     3     2     1    1
     4     3     2    2
     5     4     3    1
     6     4     5    2
     7     5     6    1
     8     6     7    2
     9     8     1    1
    10     8     9    1
    11     8    12    1
    12     9    10    1
    13    10    11    1
    14    12    11    1
    15    13    35    1
    16    14    13    1
    17    14    15    1
    18    15    18    2
    19    16    17    1
    20    16    15    1
    21    19    14    2
    22    20    21    2
    23    20    19    1
    24    21    26    1
    25    22    21    1
    26    23    22    1
    27    24    23    1
    28    24    25    1
    29    26    27    1
    30    26    13    2
    31    28    35    2
    32    28    30    1
    33    29    43    1
    34    30    34    1
    35    30    31    1
    36    32    42    1
    37    33    32    2
    38    35    38    1
    39    36    41    2
    40    37    29    1
    41    38    31    2
    42    38    37    1
    43    39    28    1
    44    40    43    2
    45    40    36    1
    46    41    32    1
    47    43    33    1
