@<TRIPOS>MOLECULE
outputs/IAG933/test6/raw/output_5277_IAG933_linker_design_.xyz
 47 51 0 0 0
SMALL
GASTEIGER

@<TRIPOS>ATOM
      1 C         -24.8550   -1.0120   30.1430 C.3     1  UNL1        0.1115
      2 C         -24.9730   -2.5050   29.7880 C.2     1  UNL1       -0.0030
      3 C         -23.9060   -3.1730   29.1460 C.2     1  UNL1       -0.0026
      4 C         -23.9890   -4.5490   28.8530 C.2     1  UNL1       -0.0003
      5 C         -25.1370   -5.2800   29.2050 C.2     1  UNL1       -0.0000
      6 C         -26.2320   -4.6110   29.7840 C.2     1  UNL1       -0.0003
      7 C         -26.1550   -3.2320   30.0650 C.2     1  UNL1       -0.0026
      8 C         -25.3870   -0.6790   31.5710 C.3     1  UNL1        0.0950
      9 C         -25.1890    0.7730   32.0280 C.3     1  UNL1        0.0209
     10 C         -25.3360    0.6840   33.5440 C.3     1  UNL1        0.0203
     11 C         -24.8290   -0.7150   33.9050 C.3     1  UNL1        0.0888
     12 N         -24.7580   -1.4810   32.6460 N.3     1  UNL1       -0.2174
     13 C         -25.6880    1.6140   26.4610 C.3     1  UNL1        0.1622
     14 C         -26.2500    2.9200   26.3950 C.2     1  UNL1        0.0747
     15 C         -25.6420    4.0930   27.1230 C.2     1  UNL1        0.2641
     16 N         -25.6140    5.2520   26.4490 N.am    1  UNL1       -0.1999
     17 C         -25.0260    6.4790   26.9630 C.3     1  UNL1        0.1388
     18 O         -25.1430    3.9660   28.2430 O.2     1  UNL1       -0.2686
     19 C         -27.4380    3.0910   25.6450 C.2     1  UNL1        0.1038
     20 N         -28.0750    2.0890   25.0030 N.2     1  UNL1       -0.2118
     21 C         -27.5430    0.8490   25.0790 C.2     1  UNL1        0.2359
     22 O         -28.1930   -0.2080   24.4770 O.2     1  UNL1       -0.4585
     23 C         -29.4600    0.0050   23.8660 C.3     1  UNL1        0.2423
     24 C         -30.0650   -1.3770   23.5730 C.3     1  UNL1        0.2292
     25 O         -30.7290   -1.8780   24.7210 O.3     1  UNL1       -0.2162
     26 C         -26.3540    0.5760   25.7770 C.3     1  UNL1        0.2598
     27 F         -25.8600   -0.6810   25.7950 F       1  UNL1       -0.2250
     28 C         -22.3360    0.4257   28.9921 C.2     1  UNL1        0.4300
     29 N         -24.9021    1.3427   27.3277 N.pl3   1  UNL1       -0.2289
     30 C         -29.1729    1.7188   28.9242 C.3     1  UNL1        0.0925
     31 C         -23.7262    1.3742   27.5028 C.2     1  UNL1        0.1009
     32 C         -22.7632    1.8292   26.8089 C.2     1  UNL1        0.1206
     33 N         -22.0268   -0.1231   30.2213 N.pl3   1  UNL1        0.2178
     34 C         -26.4218    0.7111   29.2979 C.3     1  UNL1        0.0914
     35 C         -30.0718    2.9166   32.2306 C.2     1  UNL1        0.0787
     36 N         -21.2311    0.8670   28.2569 N.2     1  UNL1       -0.0266
     37 C         -30.1391    2.0448   31.1377 C.2     1  UNL1        0.0786
     38 C         -28.6559    0.4100   28.2060 C.3     1  UNL1        0.0232
     39 N         -24.9467    0.1036   29.2078 N.pl3   1  UNL1       -0.2971
     40 C         -27.3509   -0.2525   28.7234 C.3     1  UNL1        0.0232
     41 N         -29.3544    3.9154   31.5820 N.pl3   1  UNL1       -0.2869
     42 C         -23.6816    0.6338   28.6011 C.2     1  UNL1        0.1559
     43 C         -28.7863    5.1175   32.3155 C.3     1  UNL1        0.1138
     44 C         -29.0415    3.6671   30.3491 C.3     1  UNL1        0.1888
     45 CL        -23.1097    2.7618   25.4625 Cl      1  UNL1       -0.0768
     46 C         -21.4382    1.6057   27.1343 C.2     1  UNL1        0.2486
     47 N         -29.4534    2.4797   30.0952 N.pl3   1  UNL1       -0.2887
@<TRIPOS>BOND
     1     1    39    1
     2     2     7    1
     3     2     1    1
     4     3     2    2
     5     4     3    1
     6     4     5    2
     7     5     6    1
     8     6     7    2
     9     8     1    1
    10     8     9    1
    11     8    12    1
    12     9    10    1
    13    10    11    1
    14    12    11    1
    15    13    29    1
    16    14    13    1
    17    14    15    1
    18    15    18    2
    19    16    17    1
    20    16    15    1
    21    19    14    2
    22    20    21    2
    23    20    19    1
    24    21    26    1
    25    22    21    1
    26    23    22    1
    27    24    23    1
    28    24    25    1
    29    26    27    1
    30    26    13    1
    31    28    33    1
    32    29    31    1
    33    30    47    1
    34    31    42    2
    35    32    46    2
    36    32    31    1
    37    36    28    2
    38    37    35    2
    39    38    40    1
    40    38    30    1
    41    39    34    1
    42    40    34    1
    43    41    35    1
    44    41    43    1
    45    42    28    1
    46    42    39    1
    47    44    41    1
    48    45    32    1
    49    46    36    1
    50    47    44    1
    51    47    37    1
