@<TRIPOS>MOLECULE
outputs/IAG933/test6/raw/output_5278_IAG933_linker_design_.xyz
 43 46 0 0 0
SMALL
GASTEIGER

@<TRIPOS>ATOM
      1 C         -24.8550   -1.0120   30.1430 C.3     1  UNL1        0.0438
      2 C         -24.9730   -2.5050   29.7880 C.2     1  UNL1       -0.0208
      3 C         -23.9060   -3.1730   29.1460 C.2     1  UNL1       -0.0042
      4 C         -23.9890   -4.5490   28.8530 C.2     1  UNL1       -0.0003
      5 C         -25.1370   -5.2800   29.2050 C.2     1  UNL1       -0.0000
      6 C         -26.2320   -4.6110   29.7840 C.2     1  UNL1       -0.0003
      7 C         -26.1550   -3.2320   30.0650 C.2     1  UNL1       -0.0042
      8 C         -25.3870   -0.6790   31.5710 C.3     1  UNL1        0.0789
      9 C         -25.1890    0.7730   32.0280 C.3     1  UNL1        0.0427
     10 C         -25.3360    0.6840   33.5440 C.3     1  UNL1        0.0221
     11 C         -24.8290   -0.7150   33.9050 C.3     1  UNL1        0.0888
     12 N         -24.7580   -1.4810   32.6460 N.3     1  UNL1       -0.2191
     13 C         -25.6880    1.6140   26.4610 C.3     1  UNL1        0.0936
     14 C         -26.2500    2.9200   26.3950 C.2     1  UNL1        0.0589
     15 C         -25.6420    4.0930   27.1230 C.2     1  UNL1        0.2628
     16 N         -25.6140    5.2520   26.4490 N.am    1  UNL1       -0.2000
     17 C         -25.0260    6.4790   26.9630 C.3     1  UNL1        0.1388
     18 O         -25.1430    3.9660   28.2430 O.2     1  UNL1       -0.2686
     19 C         -27.4380    3.0910   25.6450 C.2     1  UNL1        0.1025
     20 N         -28.0750    2.0890   25.0030 N.2     1  UNL1       -0.2118
     21 C         -27.5430    0.8490   25.0790 C.2     1  UNL1        0.2344
     22 O         -28.1930   -0.2080   24.4770 O.2     1  UNL1       -0.4585
     23 C         -29.4600    0.0050   23.8660 C.3     1  UNL1        0.2423
     24 C         -30.0650   -1.3770   23.5730 C.3     1  UNL1        0.2292
     25 O         -30.7290   -1.8780   24.7210 O.3     1  UNL1       -0.2162
     26 C         -26.3540    0.5760   25.7770 C.3     1  UNL1        0.2440
     27 F         -25.8600   -0.6810   25.7950 F       1  UNL1       -0.2265
     28 C         -22.2335    2.2235   25.5837 C.3     1  UNL1        0.2348
     29 C         -25.0835    3.8598   32.4301 C.3     1  UNL1        0.0892
     30 O         -21.5931    1.7293   26.6669 O.2     1  UNL1       -0.4422
     31 C         -22.3054    1.3123   27.7211 C.2     1  UNL1        0.3079
     32 C         -25.7707    1.8679   31.1598 C.3     1  UNL1        0.1521
     33 N         -26.1973    3.0543   31.9222 N.3     1  UNL1       -0.2102
     34 C         -23.6090    2.2251   25.5450 C.2     1  UNL1        0.0184
     35 O         -21.5464    0.6875   28.5847 O.2     1  UNL1       -0.4431
     36 C         -23.7199    1.5033   27.8861 C.2     1  UNL1        0.1408
     37 O         -23.5174    2.4704   30.5529 O.2     1  UNL1       -0.2715
     38 C         -26.5801    4.6530   34.3434 C.3     1  UNL1        0.0015
     39 C         -24.3092    1.7545   26.6709 C.2     1  UNL1        0.0058
     40 C         -20.1272    0.3953   28.4021 C.3     1  UNL1        0.2559
     41 N         -24.6560    1.4380   28.9908 N.am    1  UNL1       -0.1719
     42 C         -24.5960    2.0002   30.1924 C.2     1  UNL1        0.2616
     43 C         -25.3881    4.9645   33.4599 C.3     1  UNL1        0.0188
@<TRIPOS>BOND
     1     2     7    1
     2     2     1    1
     3     3     2    2
     4     4     3    1
     5     4     5    2
     6     5     6    1
     7     6     7    2
     8     8     1    1
     9     8     9    1
    10     8    12    1
    11     9    32    1
    12     9    10    1
    13    10    11    1
    14    12    11    1
    15    13    39    1
    16    14    13    1
    17    14    15    1
    18    15    18    2
    19    16    17    1
    20    16    15    1
    21    19    14    2
    22    20    21    2
    23    20    19    1
    24    21    26    1
    25    22    21    1
    26    23    22    1
    27    24    23    1
    28    24    25    1
    29    26    27    1
    30    26    13    1
    31    28    30    1
    32    29    43    1
    33    30    31    1
    34    31    36    2
    35    31    35    1
    36    32    42    1
    37    32    33    1
    38    33    29    1
    39    34    28    1
    40    34    39    2
    41    36    41    1
    42    39    36    1
    43    40    35    1
    44    41    42    1
    45    42    37    2
    46    43    38    1
