@<TRIPOS>MOLECULE
outputs/IAG933/test6/raw/output_5279_IAG933_linker_design_.xyz
 42 46 0 0 0
SMALL
GASTEIGER

@<TRIPOS>ATOM
      1 C         -24.8550   -1.0120   30.1430 C.3     1  UNL1        0.0457
      2 C         -24.9730   -2.5050   29.7880 C.2     1  UNL1       -0.0207
      3 C         -23.9060   -3.1730   29.1460 C.2     1  UNL1       -0.0042
      4 C         -23.9890   -4.5490   28.8530 C.2     1  UNL1       -0.0003
      5 C         -25.1370   -5.2800   29.2050 C.2     1  UNL1       -0.0000
      6 C         -26.2320   -4.6110   29.7840 C.2     1  UNL1       -0.0003
      7 C         -26.1550   -3.2320   30.0650 C.2     1  UNL1       -0.0042
      8 C         -25.3870   -0.6790   31.5710 C.3     1  UNL1        0.0772
      9 C         -25.1890    0.7730   32.0280 C.3     1  UNL1        0.0192
     10 C         -25.3360    0.6840   33.5440 C.3     1  UNL1        0.0202
     11 C         -24.8290   -0.7150   33.9050 C.3     1  UNL1        0.0887
     12 N         -24.7580   -1.4810   32.6460 N.3     1  UNL1       -0.2191
     13 C         -25.6880    1.6140   26.4610 C.2     1  UNL1        0.1038
     14 C         -26.2500    2.9200   26.3950 C.2     1  UNL1        0.0927
     15 C         -25.6420    4.0930   27.1230 C.2     1  UNL1        0.2678
     16 N         -25.6140    5.2520   26.4490 N.am    1  UNL1       -0.1997
     17 C         -25.0260    6.4790   26.9630 C.3     1  UNL1        0.1388
     18 O         -25.1430    3.9660   28.2430 O.2     1  UNL1       -0.2683
     19 C         -27.4380    3.0910   25.6450 C.2     1  UNL1        0.1082
     20 N         -28.0750    2.0890   25.0030 N.2     1  UNL1       -0.2080
     21 C         -27.5430    0.8490   25.0790 C.2     1  UNL1        0.2548
     22 O         -28.1930   -0.2080   24.4770 O.2     1  UNL1       -0.4558
     23 C         -29.4600    0.0050   23.8660 C.3     1  UNL1        0.2426
     24 C         -30.0650   -1.3770   23.5730 C.3     1  UNL1        0.2292
     25 O         -30.7290   -1.8780   24.7210 O.3     1  UNL1       -0.2162
     26 C         -26.3540    0.5760   25.7770 C.2     1  UNL1        0.2091
     27 F         -25.8600   -0.6810   25.7950 F       1  UNL1       -0.1977
     28 C         -26.7761    0.7233   29.1453 C.3     1  UNL1        0.0342
     29 C         -30.6270   -1.0268   28.9469 C.2     1  UNL1       -0.0000
     30 C         -23.4827    1.5408   26.8219 C.ar    1  UNL1        0.1373
     31 CL        -23.0175    2.3845   25.3924 Cl      1  UNL1       -0.0615
     32 C         -28.4036   -1.0255   29.8744 C.2     1  UNL1       -0.0043
     33 N         -24.6643    1.1442   27.3332 N.ar    1  UNL1       -0.2825
     34 C         -30.2556   -0.0287   28.0641 C.2     1  UNL1       -0.0003
     35 C         -20.9738    1.4219   27.6843 C.3     1  UNL1        0.0546
     36 C         -29.0049    0.5634   28.1664 C.2     1  UNL1       -0.0043
     37 C         -29.7086   -1.5151   29.8600 C.2     1  UNL1       -0.0003
     38 C         -25.5083    0.0127   29.1288 C.3     1  UNL1        0.0670
     39 C         -22.4531    1.0934   27.8892 C.ar    1  UNL1        0.0876
     40 C         -28.0576    0.1000   29.0862 C.2     1  UNL1       -0.0217
     41 C         -24.5260    0.4216   28.4282 C.ar    1  UNL1        0.1247
     42 N         -23.2427    0.3231   28.7560 N.ar    1  UNL1       -0.2340
@<TRIPOS>BOND
     1     1    38    1
     2     2     7    1
     3     2     1    1
     4     3     2    2
     5     4     3    1
     6     4     5    2
     7     5     6    1
     8     6     7    2
     9     8     1    1
    10     8     9    1
    11     8    12    1
    12     9    10    1
    13    10    11    1
    14    12    11    1
    15    13    33    1
    16    14    13    1
    17    14    15    1
    18    15    18    2
    19    16    17    1
    20    16    15    1
    21    19    14    2
    22    20    21    2
    23    20    19    1
    24    21    26    1
    25    22    21    1
    26    23    22    1
    27    24    23    1
    28    24    25    1
    29    26    27    1
    30    26    13    2
    31    29    37    1
    32    30    33   ar
    33    30    39   ar
    34    31    30    1
    35    33    41   ar
    36    34    36    1
    37    34    29    2
    38    35    39    1
    39    36    40    2
    40    37    32    2
    41    38    28    1
    42    39    42   ar
    43    40    28    1
    44    40    32    1
    45    41    42   ar
    46    41    38    1
