@<TRIPOS>MOLECULE
outputs/IAG933/test6/raw/output_5282_IAG933_linker_design_.xyz
 41 44 0 0 0
SMALL
GASTEIGER

@<TRIPOS>ATOM
      1 C         -24.8550   -1.0120   30.1430 C.3     1  UNL1        0.0438
      2 C         -24.9730   -2.5050   29.7880 C.2     1  UNL1       -0.0208
      3 C         -23.9060   -3.1730   29.1460 C.2     1  UNL1       -0.0042
      4 C         -23.9890   -4.5490   28.8530 C.2     1  UNL1       -0.0003
      5 C         -25.1370   -5.2800   29.2050 C.2     1  UNL1       -0.0000
      6 C         -26.2320   -4.6110   29.7840 C.2     1  UNL1       -0.0003
      7 C         -26.1550   -3.2320   30.0650 C.2     1  UNL1       -0.0042
      8 C         -25.3870   -0.6790   31.5710 C.3     1  UNL1        0.0793
      9 C         -25.1890    0.7730   32.0280 C.3     1  UNL1        0.0467
     10 C         -25.3360    0.6840   33.5440 C.3     1  UNL1        0.0224
     11 C         -24.8290   -0.7150   33.9050 C.3     1  UNL1        0.0888
     12 N         -24.7580   -1.4810   32.6460 N.3     1  UNL1       -0.2191
     13 C         -25.6880    1.6140   26.4610 C.2     1  UNL1        0.0256
     14 C         -26.2500    2.9200   26.3950 C.2     1  UNL1        0.0734
     15 C         -25.6420    4.0930   27.1230 C.2     1  UNL1        0.2661
     16 N         -25.6140    5.2520   26.4490 N.am    1  UNL1       -0.1997
     17 C         -25.0260    6.4790   26.9630 C.3     1  UNL1        0.1388
     18 O         -25.1430    3.9660   28.2430 O.2     1  UNL1       -0.2683
     19 C         -27.4380    3.0910   25.6450 C.2     1  UNL1        0.1064
     20 N         -28.0750    2.0890   25.0030 N.2     1  UNL1       -0.2081
     21 C         -27.5430    0.8490   25.0790 C.2     1  UNL1        0.2530
     22 O         -28.1930   -0.2080   24.4770 O.2     1  UNL1       -0.4558
     23 C         -29.4600    0.0050   23.8660 C.3     1  UNL1        0.2426
     24 C         -30.0650   -1.3770   23.5730 C.3     1  UNL1        0.2292
     25 O         -30.7290   -1.8780   24.7210 O.3     1  UNL1       -0.2162
     26 C         -26.3540    0.5760   25.7770 C.2     1  UNL1        0.1899
     27 F         -25.8600   -0.6810   25.7950 F       1  UNL1       -0.1995
     28 C         -27.7230    1.6250   30.2744 C.2     1  UNL1        0.3593
     29 C         -24.2342    1.8304   29.7898 C.3     1  UNL1        0.0323
     30 S         -23.1718    2.0345   25.7225 S.3     1  UNL1       -0.1366
     31 O         -24.4228    3.9889   31.9296 O.co2   1  UNL1       -0.2438
     32 C         -25.4878    3.2910   31.8899 C.2     1  UNL1        0.3821
     33 N         -28.6073    2.2019   31.1761 N.am    1  UNL1       -0.0679
     34 C         -23.6351    1.5694   28.2200 C.3     1  UNL1        0.0172
     35 O         -26.4855    3.5951   32.5499 O.co2   1  UNL1       -0.2438
     36 C         -21.8612    1.9637   26.7549 C.3     1  UNL1        0.0579
     37 C         -24.2729    1.3837   26.9405 C.3     1  UNL1        0.0724
     38 N         -26.4777    2.1619   30.0006 N.am    1  UNL1       -0.1783
     39 C         -22.2432    1.6158   28.0614 C.3     1  UNL1        0.0129
     40 C         -25.3316    1.9871   30.9827 C.3     1  UNL1        0.1743
     41 O         -28.0961    0.6069   29.7006 O.2     1  UNL1       -0.2474
@<TRIPOS>BOND
     1     2     7    1
     2     2     1    1
     3     3     2    2
     4     4     3    1
     5     4     5    2
     6     5     6    1
     7     6     7    2
     8     8     1    1
     9     8     9    1
    10     8    12    1
    11     9    40    1
    12     9    10    1
    13    10    11    1
    14    12    11    1
    15    14    13    1
    16    14    15    1
    17    15    18    2
    18    16    17    1
    19    16    15    1
    20    19    14    2
    21    20    21    2
    22    20    19    1
    23    21    26    1
    24    22    21    1
    25    23    22    1
    26    24    23    1
    27    24    25    1
    28    26    27    1
    29    26    13    2
    30    28    33    1
    31    30    36    1
    32    30    37    1
    33    32    31   ar
    34    32    35   ar
    35    34    29    1
    36    36    39    1
    37    37    13    1
    38    37    34    1
    39    38    28    1
    40    38    40    1
    41    39    34    1
    42    40    29    1
    43    40    32    1
    44    41    28    2
