@<TRIPOS>MOLECULE
outputs/IAG933/test6/raw/output_5283_IAG933_linker_design_.xyz
 42 46 0 0 0
SMALL
GASTEIGER

@<TRIPOS>ATOM
      1 C         -24.8550   -1.0120   30.1430 C.3     1  UNL1        0.0619
      2 C         -24.9730   -2.5050   29.7880 C.2     1  UNL1       -0.0170
      3 C         -23.9060   -3.1730   29.1460 C.2     1  UNL1       -0.0039
      4 C         -23.9890   -4.5490   28.8530 C.2     1  UNL1       -0.0003
      5 C         -25.1370   -5.2800   29.2050 C.2     1  UNL1       -0.0000
      6 C         -26.2320   -4.6110   29.7840 C.2     1  UNL1       -0.0003
      7 C         -26.1550   -3.2320   30.0650 C.2     1  UNL1       -0.0039
      8 C         -25.3870   -0.6790   31.5710 C.3     1  UNL1        0.0809
      9 C         -25.1890    0.7730   32.0280 C.3     1  UNL1        0.0195
     10 C         -25.3360    0.6840   33.5440 C.3     1  UNL1        0.0203
     11 C         -24.8290   -0.7150   33.9050 C.3     1  UNL1        0.0887
     12 N         -24.7580   -1.4810   32.6460 N.3     1  UNL1       -0.2188
     13 C         -25.6880    1.6140   26.4610 C.2     1  UNL1        0.0425
     14 C         -26.2500    2.9200   26.3950 C.2     1  UNL1        0.0767
     15 C         -25.6420    4.0930   27.1230 C.2     1  UNL1        0.2664
     16 N         -25.6140    5.2520   26.4490 N.am    1  UNL1       -0.1997
     17 C         -25.0260    6.4790   26.9630 C.3     1  UNL1        0.1388
     18 O         -25.1430    3.9660   28.2430 O.2     1  UNL1       -0.2683
     19 C         -27.4380    3.0910   25.6450 C.2     1  UNL1        0.1067
     20 N         -28.0750    2.0890   25.0030 N.2     1  UNL1       -0.2081
     21 C         -27.5430    0.8490   25.0790 C.2     1  UNL1        0.2533
     22 O         -28.1930   -0.2080   24.4770 O.2     1  UNL1       -0.4558
     23 C         -29.4600    0.0050   23.8660 C.3     1  UNL1        0.2426
     24 C         -30.0650   -1.3770   23.5730 C.3     1  UNL1        0.2292
     25 O         -30.7290   -1.8780   24.7210 O.3     1  UNL1       -0.2162
     26 C         -26.3540    0.5760   25.7770 C.2     1  UNL1        0.1932
     27 F         -25.8600   -0.6810   25.7950 F       1  UNL1       -0.1992
     28 C         -28.6280    2.2342   30.5021 C.3     1  UNL1        0.1468
     29 C         -25.1959    0.6364   28.4786 C.2     1  UNL1        0.0675
     30 C         -28.7608    1.8556   29.0815 C.3     1  UNL1        0.0859
     31 C         -23.2817    1.5592   27.1970 C.2     1  UNL1        0.2241
     32 O         -22.6848    2.3142   26.3329 O.2     1  UNL1       -0.2841
     33 O         -28.3721   -0.1702   27.7134 O.3     1  UNL1       -0.2008
     34 F         -21.0871    1.3289   27.9989 F       1  UNL1       -0.2008
     35 C         -24.2902   -0.0894   29.1925 C.2     1  UNL1        0.0003
     36 C         -22.8888    0.0669   29.0411 C.2     1  UNL1        0.0303
     37 O         -28.9153    0.9278   30.9868 O.3     1  UNL1       -0.3491
     38 C         -22.4012    0.9357   28.0863 C.2     1  UNL1        0.1786
     39 C         -24.6345    1.3460   27.3382 C.2     1  UNL1        0.0584
     40 C         -28.2604   -0.1269   30.2482 C.3     1  UNL1        0.1931
     41 C         -27.9311    0.5806   28.9146 C.3     1  UNL1        0.2306
     42 N         -26.4993    0.9376   28.9598 N.pl3   1  UNL1       -0.2096
@<TRIPOS>BOND
     1     1    35    1
     2     2     7    1
     3     2     1    1
     4     3     2    2
     5     4     3    1
     6     4     5    2
     7     5     6    1
     8     6     7    2
     9     8     1    1
    10     8     9    1
    11     8    12    1
    12     9    10    1
    13    10    11    1
    14    12    11    1
    15    13    39    1
    16    14    13    1
    17    14    15    1
    18    15    18    2
    19    16    17    1
    20    16    15    1
    21    19    14    2
    22    20    21    2
    23    20    19    1
    24    21    26    1
    25    22    21    1
    26    23    22    1
    27    24    23    1
    28    24    25    1
    29    26    27    1
    30    26    13    2
    31    28    37    1
    32    29    42    1
    33    29    35    1
    34    30    28    1
    35    31    39    1
    36    31    38    2
    37    32    31    1
    38    34    38    1
    39    36    35    2
    40    38    36    1
    41    39    29    2
    42    40    37    1
    43    41    33    1
    44    41    42    1
    45    41    30    1
    46    41    40    1
