@<TRIPOS>MOLECULE
outputs/IAG933/test6/raw/output_5284_IAG933_linker_design_.xyz
 41 45 0 0 0
SMALL
GASTEIGER

@<TRIPOS>ATOM
      1 C         -24.8550   -1.0120   30.1430 C.3     1  UNL1        0.0970
      2 C         -24.9730   -2.5050   29.7880 C.2     1  UNL1       -0.0064
      3 C         -23.9060   -3.1730   29.1460 C.2     1  UNL1       -0.0029
      4 C         -23.9890   -4.5490   28.8530 C.2     1  UNL1       -0.0003
      5 C         -25.1370   -5.2800   29.2050 C.2     1  UNL1       -0.0000
      6 C         -26.2320   -4.6110   29.7840 C.2     1  UNL1       -0.0003
      7 C         -26.1550   -3.2320   30.0650 C.2     1  UNL1       -0.0029
      8 C         -25.3870   -0.6790   31.5710 C.3     1  UNL1        0.0916
      9 C         -25.1890    0.7730   32.0280 C.3     1  UNL1        0.0206
     10 C         -25.3360    0.6840   33.5440 C.3     1  UNL1        0.0203
     11 C         -24.8290   -0.7150   33.9050 C.3     1  UNL1        0.0888
     12 N         -24.7580   -1.4810   32.6460 N.3     1  UNL1       -0.2178
     13 C         -25.6880    1.6140   26.4610 C.3     1  UNL1        0.1263
     14 C         -26.2500    2.9200   26.3950 C.2     1  UNL1        0.0620
     15 C         -25.6420    4.0930   27.1230 C.2     1  UNL1        0.2629
     16 N         -25.6140    5.2520   26.4490 N.am    1  UNL1       -0.2000
     17 C         -25.0260    6.4790   26.9630 C.3     1  UNL1        0.1388
     18 O         -25.1430    3.9660   28.2430 O.2     1  UNL1       -0.2686
     19 C         -27.4380    3.0910   25.6450 C.2     1  UNL1        0.1026
     20 N         -28.0750    2.0890   25.0030 N.2     1  UNL1       -0.2118
     21 C         -27.5430    0.8490   25.0790 C.2     1  UNL1        0.2345
     22 O         -28.1930   -0.2080   24.4770 O.2     1  UNL1       -0.4585
     23 C         -29.4600    0.0050   23.8660 C.3     1  UNL1        0.2423
     24 C         -30.0650   -1.3770   23.5730 C.3     1  UNL1        0.2292
     25 O         -30.7290   -1.8780   24.7210 O.3     1  UNL1       -0.2162
     26 C         -26.3540    0.5760   25.7770 C.3     1  UNL1        0.2471
     27 F         -25.8600   -0.6810   25.7950 F       1  UNL1       -0.2264
     28 O         -20.5324   -0.0812   28.7631 O.2     1  UNL1       -0.2917
     29 C         -21.6966    0.2691   28.6388 C.2     1  UNL1        0.1977
     30 C         -25.0151    1.2070   28.9906 C.2     1  UNL1        0.0787
     31 C         -23.6598    0.9089   27.4319 C.2     1  UNL1        0.0391
     32 C         -22.2617    2.3759   25.6848 C.3     1  UNL1        0.3612
     33 C         -25.8240    1.9179   29.2869 C.1     1  UNL1        0.1310
     34 O         -21.6109    1.8408   26.7329 O.3     1  UNL1       -0.3063
     35 O         -26.6361    2.5802   29.5238 O.2     1  UNL1       -0.2314
     36 O         -23.5802    2.2661   25.5474 O.2     1  UNL1       -0.4524
     37 N         -23.9657   -0.4166   29.2198 N.3     1  UNL1       -0.2564
     38 C         -22.7233   -0.1906   29.5393 C.3     1  UNL1        0.1412
     39 C         -22.3040    1.0825   27.6173 C.3     1  UNL1        0.1997
     40 C         -24.2390    1.6560   26.4895 C.2     1  UNL1        0.1223
     41 C         -24.4734    0.1092   28.1483 C.3     1  UNL1        0.1155
@<TRIPOS>BOND
     1     1     2    1
     2     2     7    1
     3     3     2    2
     4     4     3    1
     5     4     5    2
     6     5     6    1
     7     6     7    2
     8     8     1    1
     9     8     9    1
    10     8    12    1
    11     9    10    1
    12    10    11    1
    13    12    11    1
    14    13    40    1
    15    14    13    1
    16    14    15    1
    17    15    18    2
    18    16    17    1
    19    16    15    1
    20    19    14    2
    21    20    21    2
    22    20    19    1
    23    21    26    1
    24    22    21    1
    25    23    22    1
    26    24    23    1
    27    24    25    1
    28    26    27    1
    29    26    13    1
    30    29    28    2
    31    29    38    1
    32    30    33    2
    33    31    39    1
    34    31    41    1
    35    32    34    1
    36    33    35    2
    37    36    32    1
    38    36    40    1
    39    37    38    1
    40    37     1    1
    41    39    34    1
    42    39    29    1
    43    40    31    2
    44    41    30    1
    45    41    37    1
