@<TRIPOS>MOLECULE
outputs/IAG933/test6/raw/output_5285_IAG933_linker_design_.xyz
 41 44 0 0 0
SMALL
GASTEIGER

@<TRIPOS>ATOM
      1 C         -24.8550   -1.0120   30.1430 C.3     1  UNL1        0.0808
      2 C         -24.9730   -2.5050   29.7880 C.2     1  UNL1       -0.0174
      3 C         -23.9060   -3.1730   29.1460 C.2     1  UNL1       -0.0041
      4 C         -23.9890   -4.5490   28.8530 C.2     1  UNL1       -0.0003
      5 C         -25.1370   -5.2800   29.2050 C.2     1  UNL1       -0.0000
      6 C         -26.2320   -4.6110   29.7840 C.2     1  UNL1       -0.0003
      7 C         -26.1550   -3.2320   30.0650 C.2     1  UNL1       -0.0041
      8 C         -25.3870   -0.6790   31.5710 C.3     1  UNL1        0.0805
      9 C         -25.1890    0.7730   32.0280 C.3     1  UNL1        0.0193
     10 C         -25.3360    0.6840   33.5440 C.3     1  UNL1        0.0202
     11 C         -24.8290   -0.7150   33.9050 C.3     1  UNL1        0.0887
     12 N         -24.7580   -1.4810   32.6460 N.3     1  UNL1       -0.2190
     13 C         -25.6880    1.6140   26.4610 C.2     1  UNL1        0.0407
     14 C         -26.2500    2.9200   26.3950 C.2     1  UNL1        0.0744
     15 C         -25.6420    4.0930   27.1230 C.2     1  UNL1        0.2231
     16 N         -25.6140    5.2520   26.4490 N.2     1  UNL1       -0.2356
     17 C         -25.0260    6.4790   26.9630 C.3     1  UNL1        0.1550
     18 O         -25.1430    3.9660   28.2430 O.2     1  UNL1       -0.4464
     19 C         -27.4380    3.0910   25.6450 C.2     1  UNL1        0.1068
     20 N         -28.0750    2.0890   25.0030 N.2     1  UNL1       -0.2081
     21 C         -27.5430    0.8490   25.0790 C.2     1  UNL1        0.2533
     22 O         -28.1930   -0.2080   24.4770 O.2     1  UNL1       -0.4558
     23 C         -29.4600    0.0050   23.8660 C.3     1  UNL1        0.2426
     24 C         -30.0650   -1.3770   23.5730 C.3     1  UNL1        0.2292
     25 O         -30.7290   -1.8780   24.7210 O.3     1  UNL1       -0.2162
     26 C         -26.3540    0.5760   25.7770 C.2     1  UNL1        0.1931
     27 F         -25.8600   -0.6810   25.7950 F       1  UNL1       -0.1992
     28 C         -24.2110    0.1802   29.3468 C.3     1  UNL1        0.1826
     29 O         -24.7474   -0.3338   28.0552 O.3     1  UNL1       -0.2085
     30 N         -27.5392    2.6832   29.5903 N.3     1  UNL1       -0.1275
     31 C         -22.1580    2.1923   26.6499 C.3     1  UNL1        0.2484
     32 C         -22.9403    1.6880   29.0931 C.3     1  UNL1        0.0707
     33 C         -25.1209    2.8862   29.1777 C.3     1  UNL1        0.2490
     34 N         -22.6950    2.6256   25.3783 N.3     1  UNL1       -0.0964
     35 C         -26.3760    3.2214   29.9662 C.3     1  UNL1        0.1480
     36 N         -24.4330    1.5833   29.2160 N.3     1  UNL1       -0.2176
     37 C         -22.9092    1.3489   27.6341 C.3     1  UNL1        0.0694
     38 F         -20.3193    1.4325   27.6935 F       1  UNL1       -0.0455
     39 C         -22.6891    0.2220   29.4855 C.3     1  UNL1        0.0628
     40 O         -20.8159    2.2641   26.8381 O.3     1  UNL1       -0.1625
     41 C         -26.2560    4.5214   30.6964 C.3     1  UNL1        0.0259
@<TRIPOS>BOND
     1     1     2    1
     2     2     7    1
     3     3     2    2
     4     4     3    1
     5     4     5    2
     6     5     6    1
     7     6     7    2
     8     8     1    1
     9     8     9    1
    10     8    12    1
    11     9    10    1
    12    10    11    1
    13    12    11    1
    14    14    13    1
    15    14    15    1
    16    15    18    1
    17    16    17    1
    18    16    15    2
    19    19    14    2
    20    20    21    2
    21    20    19    1
    22    21    26    1
    23    22    21    1
    24    23    22    1
    25    24    23    1
    26    24    25    1
    27    26    27    1
    28    26    13    2
    29    28    29    1
    30    28    39    1
    31    28     1    1
    32    30    35    1
    33    31    34    1
    34    31    40    1
    35    31    37    1
    36    32    37    1
    37    32    36    1
    38    32    39    1
    39    33    18    1
    40    33    36    1
    41    33    35    1
    42    35    41    1
    43    36    28    1
    44    40    38    1
