@<TRIPOS>MOLECULE
No_529-gen_results/8p0m/2024-11-27-11-27-31/
 9 9 0 0 0
SMALL
GASTEIGER

@<TRIPOS>ATOM
      1 C         -28.0162   -0.8135   28.8779 C.ar    1  UNL1       -0.0003
      2 C         -27.0636   -0.1190   28.6079 C.ar    1  UNL1       -0.0000
      3 C         -26.9716    0.7139   27.5060 C.ar    1  UNL1       -0.0003
      4 C         -28.1053    0.7744   26.6421 C.ar    1  UNL1       -0.0029
      5 C         -29.2008    0.1044   27.0527 C.ar    1  UNL1       -0.0049
      6 C         -29.2096   -0.6029   28.1853 C.ar    1  UNL1       -0.0029
      7 C         -30.2851    0.2916   26.0027 C.3     1  UNL1        0.1140
      8 N         -31.2663   -0.4302   26.1439 N.3     1  UNL1       -0.1281
      9 C         -29.7644    0.2874   24.6029 C.3     1  UNL1        0.0253
@<TRIPOS>BOND
     1     5     7    1
     2     7     8    1
     3     7     9    1
     4     1     2   ar
     5     2     3   ar
     6     3     4   ar
     7     4     5   ar
     8     5     6   ar
     9     6     1   ar
