@<TRIPOS>MOLECULE
outputs/IAG933/test6/raw/output_5294_IAG933_linker_design_.xyz
 44 48 0 0 0
SMALL
GASTEIGER

@<TRIPOS>ATOM
      1 C         -24.8550   -1.0120   30.1430 C.3     1  UNL1        0.0631
      2 C         -24.9730   -2.5050   29.7880 C.2     1  UNL1       -0.0191
      3 C         -23.9060   -3.1730   29.1460 C.2     1  UNL1       -0.0042
      4 C         -23.9890   -4.5490   28.8530 C.2     1  UNL1       -0.0003
      5 C         -25.1370   -5.2800   29.2050 C.2     1  UNL1       -0.0000
      6 C         -26.2320   -4.6110   29.7840 C.2     1  UNL1       -0.0003
      7 C         -26.1550   -3.2320   30.0650 C.2     1  UNL1       -0.0042
      8 C         -25.3870   -0.6790   31.5710 C.3     1  UNL1        0.0788
      9 C         -25.1890    0.7730   32.0280 C.3     1  UNL1        0.0193
     10 C         -25.3360    0.6840   33.5440 C.3     1  UNL1        0.0202
     11 C         -24.8290   -0.7150   33.9050 C.3     1  UNL1        0.0887
     12 N         -24.7580   -1.4810   32.6460 N.3     1  UNL1       -0.2191
     13 C         -25.6880    1.6140   26.4610 C.3     1  UNL1        0.0927
     14 C         -26.2500    2.9200   26.3950 C.2     1  UNL1        0.0589
     15 C         -25.6420    4.0930   27.1230 C.2     1  UNL1        0.2628
     16 N         -25.6140    5.2520   26.4490 N.am    1  UNL1       -0.2000
     17 C         -25.0260    6.4790   26.9630 C.3     1  UNL1        0.1388
     18 O         -25.1430    3.9660   28.2430 O.2     1  UNL1       -0.2686
     19 C         -27.4380    3.0910   25.6450 C.2     1  UNL1        0.1025
     20 N         -28.0750    2.0890   25.0030 N.2     1  UNL1       -0.2118
     21 C         -27.5430    0.8490   25.0790 C.2     1  UNL1        0.2344
     22 O         -28.1930   -0.2080   24.4770 O.2     1  UNL1       -0.4585
     23 C         -29.4600    0.0050   23.8660 C.3     1  UNL1        0.2423
     24 C         -30.0650   -1.3770   23.5730 C.3     1  UNL1        0.2292
     25 O         -30.7290   -1.8780   24.7210 O.3     1  UNL1       -0.2162
     26 C         -26.3540    0.5760   25.7770 C.3     1  UNL1        0.2440
     27 F         -25.8600   -0.6810   25.7950 F       1  UNL1       -0.2265
     28 C         -25.2877    0.6075   28.4993 C.2     1  UNL1       -0.0261
     29 C         -24.3199   -0.0768   29.3063 C.3     1  UNL1        0.1313
     30 C         -24.7930    1.1925   27.3553 C.2     1  UNL1       -0.0072
     31 C         -22.5488    1.0124   27.9969 C.2     1  UNL1        0.2286
     32 C         -30.8838    1.4588   27.8243 C.3     1  UNL1        0.0645
     33 CL        -22.7538    2.3751   25.6305 Cl      1  UNL1       -0.0788
     34 C         -28.1083    0.9307   28.2616 C.3     1  UNL1        0.0114
     35 C         -26.8248    0.6276   28.8085 C.3     1  UNL1        0.0239
     36 O         -31.0595   -0.7452   27.0025 O.2     1  UNL1       -0.2961
     37 F         -22.0412   -0.1220   30.0731 F       1  UNL1       -0.1058
     38 C         -29.0327   -0.3069   27.9017 C.3     1  UNL1        0.0648
     39 C         -30.3992    0.1618   27.5247 C.2     1  UNL1        0.1507
     40 F         -21.2004    1.1263   27.7535 F       1  UNL1       -0.1847
     41 C         -28.7462    1.9467   29.0718 C.3     1  UNL1        0.0012
     42 C         -23.4474    1.5715   27.0623 C.2     1  UNL1        0.0973
     43 N         -22.9441    0.2788   29.1411 N.pl3   1  UNL1       -0.1295
     44 C         -29.9175    2.4486   28.4656 C.3     1  UNL1        0.0078
@<TRIPOS>BOND
     1     1     2    1
     2     2     7    1
     3     3     2    2
     4     4     3    1
     5     4     5    2
     6     5     6    1
     7     6     7    2
     8     8     1    1
     9     8     9    1
    10     8    12    1
    11     9    10    1
    12    10    11    1
    13    12    11    1
    14    13    30    1
    15    14    13    1
    16    14    15    1
    17    15    18    2
    18    16    17    1
    19    16    15    1
    20    19    14    2
    21    20    21    2
    22    20    19    1
    23    21    26    1
    24    22    21    1
    25    23    22    1
    26    24    23    1
    27    24    25    1
    28    26    27    1
    29    26    13    1
    30    28    35    1
    31    28    29    1
    32    29     1    1
    33    30    28    2
    34    31    43    1
    35    32    44    1
    36    33    42    1
    37    34    35    1
    38    34    41    1
    39    36    39    2
    40    38    34    1
    41    39    32    1
    42    39    38    1
    43    40    31    1
    44    42    30    1
    45    42    31    2
    46    43    29    1
    47    43    37    1
    48    44    41    1
