@<TRIPOS>MOLECULE
outputs/IAG933/test6/raw/output_5295_IAG933_linker_design_.xyz
 40 44 0 0 0
SMALL
GASTEIGER

@<TRIPOS>ATOM
      1 C         -24.8550   -1.0120   30.1430 C.3     1  UNL1        0.0557
      2 C         -24.9730   -2.5050   29.7880 C.2     1  UNL1       -0.0197
      3 C         -23.9060   -3.1730   29.1460 C.2     1  UNL1       -0.0042
      4 C         -23.9890   -4.5490   28.8530 C.2     1  UNL1       -0.0003
      5 C         -25.1370   -5.2800   29.2050 C.2     1  UNL1       -0.0000
      6 C         -26.2320   -4.6110   29.7840 C.2     1  UNL1       -0.0003
      7 C         -26.1550   -3.2320   30.0650 C.2     1  UNL1       -0.0042
      8 C         -25.3870   -0.6790   31.5710 C.3     1  UNL1        0.0782
      9 C         -25.1890    0.7730   32.0280 C.3     1  UNL1        0.0192
     10 C         -25.3360    0.6840   33.5440 C.3     1  UNL1        0.0202
     11 C         -24.8290   -0.7150   33.9050 C.3     1  UNL1        0.0887
     12 N         -24.7580   -1.4810   32.6460 N.3     1  UNL1       -0.2191
     13 C         -25.6880    1.6140   26.4610 C.3     1  UNL1        0.1074
     14 C         -26.2500    2.9200   26.3950 C.2     1  UNL1        0.0601
     15 C         -25.6420    4.0930   27.1230 C.2     1  UNL1        0.2628
     16 N         -25.6140    5.2520   26.4490 N.am    1  UNL1       -0.2000
     17 C         -25.0260    6.4790   26.9630 C.3     1  UNL1        0.1388
     18 O         -25.1430    3.9660   28.2430 O.2     1  UNL1       -0.2686
     19 C         -27.4380    3.0910   25.6450 C.2     1  UNL1        0.1025
     20 N         -28.0750    2.0890   25.0030 N.2     1  UNL1       -0.2118
     21 C         -27.5430    0.8490   25.0790 C.2     1  UNL1        0.2345
     22 O         -28.1930   -0.2080   24.4770 O.2     1  UNL1       -0.4585
     23 C         -29.4600    0.0050   23.8660 C.3     1  UNL1        0.2423
     24 C         -30.0650   -1.3770   23.5730 C.3     1  UNL1        0.2292
     25 O         -30.7290   -1.8780   24.7210 O.3     1  UNL1       -0.2162
     26 C         -26.3540    0.5760   25.7770 C.3     1  UNL1        0.2452
     27 F         -25.8600   -0.6810   25.7950 F       1  UNL1       -0.2265
     28 C         -25.8791   -0.3607   29.2309 C.3     1  UNL1        0.0953
     29 C         -24.0707    0.3720   27.7257 C.3     1  UNL1        0.1651
     30 C         -20.5747    0.1015   28.3447 C.2     1  UNL1        0.0418
     31 C         -24.3103    1.3455   26.8011 C.2     1  UNL1        0.0617
     32 C         -21.1390   -0.8027   29.1845 C.2     1  UNL1        0.1790
     33 C         -21.7498    1.6901   26.9642 C.3     1  UNL1        0.2101
     34 N         -23.4488    1.9385   26.1449 N.2     1  UNL1       -0.2735
     35 O         -22.4415   -0.8539   29.0352 O.2     1  UNL1       -0.4532
     36 C         -22.5071    2.1069   25.7991 C.3     1  UNL1        0.1646
     37 F         -20.4596    2.2743   27.2048 F       1  UNL1       -0.2302
     38 C         -22.8305    0.0793   28.2300 C.2     1  UNL1        0.1427
     39 N         -25.1611   -0.3312   27.9667 N.3     1  UNL1       -0.2060
     40 C         -21.7683    0.7080   27.8316 C.2     1  UNL1        0.0471
@<TRIPOS>BOND
     1     1    28    1
     2     2     7    1
     3     2     1    1
     4     3     2    2
     5     4     3    1
     6     4     5    2
     7     5     6    1
     8     6     7    2
     9     8     1    1
    10     8     9    1
    11     8    12    1
    12     9    10    1
    13    10    11    1
    14    12    11    1
    15    13    31    1
    16    14    13    1
    17    14    15    1
    18    15    18    2
    19    16    17    1
    20    16    15    1
    21    19    14    2
    22    20    21    2
    23    20    19    1
    24    21    26    1
    25    22    21    1
    26    23    22    1
    27    24    23    1
    28    24    25    1
    29    26    27    1
    30    26    13    1
    31    29    39    1
    32    29    38    1
    33    30    32    2
    34    31    29    1
    35    33    37    1
    36    33    40    1
    37    34    31    2
    38    35    32    1
    39    36    34    1
    40    36    33    1
    41    38    35    1
    42    39    28    1
    43    40    38    2
    44    40    30    1
