@<TRIPOS>MOLECULE
outputs/IAG933/test6/raw/output_530_IAG933_linker_design_.xyz
 43 45 0 0 0
SMALL
GASTEIGER

@<TRIPOS>ATOM
      1 C         -24.8550   -1.0120   30.1430 C.3     1  UNL1        0.0567
      2 C         -24.9730   -2.5050   29.7880 C.2     1  UNL1       -0.0195
      3 C         -23.9060   -3.1730   29.1460 C.2     1  UNL1       -0.0042
      4 C         -23.9890   -4.5490   28.8530 C.2     1  UNL1       -0.0003
      5 C         -25.1370   -5.2800   29.2050 C.2     1  UNL1       -0.0000
      6 C         -26.2320   -4.6110   29.7840 C.2     1  UNL1       -0.0003
      7 C         -26.1550   -3.2320   30.0650 C.2     1  UNL1       -0.0042
      8 C         -25.3870   -0.6790   31.5710 C.3     1  UNL1        0.0784
      9 C         -25.1890    0.7730   32.0280 C.3     1  UNL1        0.0192
     10 C         -25.3360    0.6840   33.5440 C.3     1  UNL1        0.0202
     11 C         -24.8290   -0.7150   33.9050 C.3     1  UNL1        0.0887
     12 N         -24.7580   -1.4810   32.6460 N.3     1  UNL1       -0.2191
     13 C         -25.6880    1.6140   26.4610 C.3     1  UNL1        0.0900
     14 C         -26.2500    2.9200   26.3950 C.2     1  UNL1        0.0565
     15 C         -25.6420    4.0930   27.1230 C.2     1  UNL1        0.2625
     16 N         -25.6140    5.2520   26.4490 N.am    1  UNL1       -0.2000
     17 C         -25.0260    6.4790   26.9630 C.3     1  UNL1        0.1388
     18 O         -25.1430    3.9660   28.2430 O.2     1  UNL1       -0.2687
     19 C         -27.4380    3.0910   25.6450 C.2     1  UNL1        0.1022
     20 N         -28.0750    2.0890   25.0030 N.2     1  UNL1       -0.2119
     21 C         -27.5430    0.8490   25.0790 C.2     1  UNL1        0.2341
     22 O         -28.1930   -0.2080   24.4770 O.2     1  UNL1       -0.4585
     23 C         -29.4600    0.0050   23.8660 C.3     1  UNL1        0.2423
     24 C         -30.0650   -1.3770   23.5730 C.3     1  UNL1        0.2292
     25 O         -30.7290   -1.8780   24.7210 O.3     1  UNL1       -0.2162
     26 C         -26.3540    0.5760   25.7770 C.3     1  UNL1        0.2417
     27 F         -25.8600   -0.6810   25.7950 F       1  UNL1       -0.2268
     28 O         -22.2529    1.3765   27.5505 O.3     1  UNL1       -0.4304
     29 C         -29.5303    0.5958   28.2163 C.3     1  UNL1        0.1533
     30 C         -31.1676    1.4585   30.3809 C.3     1  UNL1        0.0145
     31 O         -22.3659    0.1169   29.3631 O.2     1  UNL1       -0.2262
     32 C         -27.6068   -0.7872   28.5794 C.3     1  UNL1        0.1439
     33 O         -30.7388    3.2230   28.1466 O.co2   1  UNL1       -0.2456
     34 C         -20.8456    1.5248   27.2800 C.3     1  UNL1        0.2573
     35 C         -24.2510    1.5304   26.7489 C.3     1  UNL1        0.1044
     36 C         -25.0625    0.0291   28.9667 C.3     1  UNL1        0.0864
     37 C         -29.9303    1.3931   29.4423 C.3     1  UNL1        0.1329
     38 C         -26.5929    0.1019   28.7204 C.3     1  UNL1        0.0523
     39 C         -29.8558    2.9018   28.9215 C.2     1  UNL1        0.3668
     40 O         -28.9373    3.6815   29.3714 O.co2   1  UNL1       -0.2456
     41 N         -24.1393    0.6328   27.9120 N.am    1  UNL1       -0.2468
     42 C         -22.9422    0.6430   28.3584 C.2     1  UNL1        0.4050
     43 O         -28.8828   -0.6231   28.7301 O.3     1  UNL1       -0.3531
@<TRIPOS>BOND
     1     1    36    1
     2     2     7    1
     3     2     1    1
     4     3     2    2
     5     4     3    1
     6     4     5    2
     7     5     6    1
     8     6     7    2
     9     8     1    1
    10     8     9    1
    11     8    12    1
    12     9    10    1
    13    10    11    1
    14    12    11    1
    15    13    35    1
    16    14    13    1
    17    14    15    1
    18    15    18    2
    19    16    17    1
    20    16    15    1
    21    19    14    2
    22    20    21    2
    23    20    19    1
    24    21    26    1
    25    22    21    1
    26    23    22    1
    27    24    23    1
    28    24    25    1
    29    26    27    1
    30    26    13    1
    31    28    42    1
    32    29    43    1
    33    29    37    1
    34    32    38    1
    35    32    43    1
    36    33    39   ar
    37    34    28    1
    38    35    41    1
    39    36    38    1
    40    37    30    1
    41    39    40   ar
    42    39    37    1
    43    41    42   am
    44    41    36    1
    45    42    31    2
