@<TRIPOS>MOLECULE
outputs/IAG933/test6/raw/output_5300_IAG933_linker_design_.xyz
 39 42 0 0 0
SMALL
GASTEIGER

@<TRIPOS>ATOM
      1 C         -24.8550   -1.0120   30.1430 C.3     1  UNL1        0.1120
      2 C         -24.9730   -2.5050   29.7880 C.2     1  UNL1       -0.0030
      3 C         -23.9060   -3.1730   29.1460 C.2     1  UNL1       -0.0026
      4 C         -23.9890   -4.5490   28.8530 C.2     1  UNL1       -0.0003
      5 C         -25.1370   -5.2800   29.2050 C.2     1  UNL1       -0.0000
      6 C         -26.2320   -4.6110   29.7840 C.2     1  UNL1       -0.0003
      7 C         -26.1550   -3.2320   30.0650 C.2     1  UNL1       -0.0026
      8 C         -25.3870   -0.6790   31.5710 C.3     1  UNL1        0.0951
      9 C         -25.1890    0.7730   32.0280 C.3     1  UNL1        0.0209
     10 C         -25.3360    0.6840   33.5440 C.3     1  UNL1        0.0203
     11 C         -24.8290   -0.7150   33.9050 C.3     1  UNL1        0.0888
     12 N         -24.7580   -1.4810   32.6460 N.3     1  UNL1       -0.2174
     13 C         -25.6880    1.6140   26.4610 C.3     1  UNL1        0.1122
     14 C         -26.2500    2.9200   26.3950 C.2     1  UNL1        0.0584
     15 C         -25.6420    4.0930   27.1230 C.2     1  UNL1        0.2626
     16 N         -25.6140    5.2520   26.4490 N.am    1  UNL1       -0.2000
     17 C         -25.0260    6.4790   26.9630 C.3     1  UNL1        0.1388
     18 O         -25.1430    3.9660   28.2430 O.2     1  UNL1       -0.2687
     19 C         -27.4380    3.0910   25.6450 C.2     1  UNL1        0.1023
     20 N         -28.0750    2.0890   25.0030 N.2     1  UNL1       -0.2119
     21 C         -27.5430    0.8490   25.0790 C.2     1  UNL1        0.2342
     22 O         -28.1930   -0.2080   24.4770 O.2     1  UNL1       -0.4585
     23 C         -29.4600    0.0050   23.8660 C.3     1  UNL1        0.2423
     24 C         -30.0650   -1.3770   23.5730 C.3     1  UNL1        0.2292
     25 O         -30.7290   -1.8780   24.7210 O.3     1  UNL1       -0.2162
     26 C         -26.3540    0.5760   25.7770 C.3     1  UNL1        0.2436
     27 F         -25.8600   -0.6810   25.7950 F       1  UNL1       -0.2268
     28 C         -26.7293    0.4833   28.8766 C.1     1  UNL1        0.1454
     29 C         -24.3370    1.3063   26.8486 C.3     1  UNL1        0.1981
     30 N         -24.6285    0.0079   29.0568 N.pl3   1  UNL1       -0.2909
     31 O         -23.4051    1.8618   26.1042 O.2     1  UNL1       -0.4666
     32 C         -24.3048    0.4800   28.0442 C.3     1  UNL1        0.1607
     33 C         -25.5727    0.3025   28.5830 C.2     1  UNL1        0.1234
     34 O         -22.0155    0.1245   29.7615 O.2     1  UNL1       -0.2828
     35 C         -21.6967    1.2309   27.5648 C.1     1  UNL1       -0.0248
     36 O         -27.7557    0.4054   29.2977 O.2     1  UNL1       -0.2301
     37 C         -20.1884    0.4099   28.4318 C.3     1  UNL1        0.0863
     38 C         -21.5072    0.8007   28.7887 C.2     1  UNL1        0.2109
     39 C         -22.1429    1.8455   26.4384 C.2     1  UNL1        0.2182
@<TRIPOS>BOND
     1     1     2    1
     2     2     7    1
     3     3     2    2
     4     4     3    1
     5     4     5    2
     6     5     6    1
     7     6     7    2
     8     8     1    1
     9     8     9    1
    10     8    12    1
    11     9    10    1
    12    10    11    1
    13    12    11    1
    14    13    29    1
    15    14    13    1
    16    14    15    1
    17    15    18    2
    18    16    17    1
    19    16    15    1
    20    19    14    2
    21    20    21    2
    22    20    19    1
    23    21    26    1
    24    22    21    1
    25    23    22    1
    26    24    23    1
    27    24    25    1
    28    26    27    1
    29    26    13    1
    30    28    36    2
    31    29    31    1
    32    30     1    1
    33    31    39    1
    34    32    29    1
    35    32    33    1
    36    32    30    1
    37    33    28    2
    38    33    30    1
    39    35    38    2
    40    37    38    1
    41    38    34    1
    42    39    35    2
