@<TRIPOS>MOLECULE
outputs/IAG933/test6/raw/output_5306_IAG933_linker_design_.xyz
 45 51 0 0 0
SMALL
GASTEIGER

@<TRIPOS>ATOM
      1 C         -24.8550   -1.0120   30.1430 C.3     1  UNL1        0.0691
      2 C         -24.9730   -2.5050   29.7880 C.2     1  UNL1       -0.0187
      3 C         -23.9060   -3.1730   29.1460 C.2     1  UNL1       -0.0042
      4 C         -23.9890   -4.5490   28.8530 C.2     1  UNL1       -0.0003
      5 C         -25.1370   -5.2800   29.2050 C.2     1  UNL1       -0.0000
      6 C         -26.2320   -4.6110   29.7840 C.2     1  UNL1       -0.0003
      7 C         -26.1550   -3.2320   30.0650 C.2     1  UNL1       -0.0042
      8 C         -25.3870   -0.6790   31.5710 C.3     1  UNL1        0.0793
      9 C         -25.1890    0.7730   32.0280 C.3     1  UNL1        0.0193
     10 C         -25.3360    0.6840   33.5440 C.3     1  UNL1        0.0202
     11 C         -24.8290   -0.7150   33.9050 C.3     1  UNL1        0.0887
     12 N         -24.7580   -1.4810   32.6460 N.3     1  UNL1       -0.2190
     13 C         -25.6880    1.6140   26.4610 C.2     1  UNL1        0.0481
     14 C         -26.2500    2.9200   26.3950 C.2     1  UNL1        0.0728
     15 C         -25.6420    4.0930   27.1230 C.2     1  UNL1        0.2216
     16 N         -25.6140    5.2520   26.4490 N.2     1  UNL1       -0.2357
     17 C         -25.0260    6.4790   26.9630 C.3     1  UNL1        0.1550
     18 O         -25.1430    3.9660   28.2430 O.2     1  UNL1       -0.4641
     19 C         -27.4380    3.0910   25.6450 C.2     1  UNL1        0.1066
     20 N         -28.0750    2.0890   25.0030 N.2     1  UNL1       -0.2081
     21 C         -27.5430    0.8490   25.0790 C.2     1  UNL1        0.2530
     22 O         -28.1930   -0.2080   24.4770 O.2     1  UNL1       -0.4558
     23 C         -29.4600    0.0050   23.8660 C.3     1  UNL1        0.2426
     24 C         -30.0650   -1.3770   23.5730 C.3     1  UNL1        0.2292
     25 O         -30.7290   -1.8780   24.7210 O.3     1  UNL1       -0.2162
     26 C         -26.3540    0.5760   25.7770 C.2     1  UNL1        0.1916
     27 F         -25.8600   -0.6810   25.7950 F       1  UNL1       -0.1995
     28 C         -25.3130    3.2307   29.4360 C.3     1  UNL1        0.1702
     29 F         -18.7940    1.4004   28.2406 F       1  UNL1       -0.2042
     30 O         -23.0875    3.2299   26.1688 O.3     1  UNL1       -0.1822
     31 O         -24.2358   -0.3664   27.4349 O.3     1  UNL1       -0.3416
     32 C         -20.9734    1.8534   27.4366 C.2     1  UNL1        0.0302
     33 C         -22.3051    1.4432   27.3859 C.2     1  UNL1        0.0391
     34 C         -25.3935    0.1884   29.2600 C.3     1  UNL1        0.1637
     35 C         -25.8631    1.8339   29.6168 C.3     1  UNL1        0.0771
     36 F         -23.5364    1.4659   25.0604 F       1  UNL1       -0.1990
     37 C         -24.5516    1.2171   27.1707 C.3     1  UNL1        0.2001
     38 C         -21.9346   -0.3499   28.9642 C.2     1  UNL1        0.0003
     39 C         -20.0933    1.0021   28.1385 C.2     1  UNL1        0.1400
     40 C         -24.2765    0.5853   28.3606 C.3     1  UNL1        0.1691
     41 C         -23.3612    1.8406   26.3788 C.3     1  UNL1        0.3035
     42 C         -20.5692   -0.1464   28.7402 C.2     1  UNL1        0.0294
     43 C         -25.6592    4.2637   30.4842 C.3     1  UNL1        0.0474
     44 C         -22.8244    0.4615   28.2843 C.2     1  UNL1        0.0082
     45 O         -26.6432   -0.2477   28.6027 O.3     1  UNL1       -0.2223
@<TRIPOS>BOND
     1     1     2    1
     2     2     7    1
     3     3     2    2
     4     4     3    1
     5     4     5    2
     6     5     6    1
     7     6     7    2
     8     8     1    1
     9     8     9    1
    10     8    12    1
    11     9    10    1
    12    10    11    1
    13    12    11    1
    14    14    13    1
    15    14    15    1
    16    15    18    1
    17    16    17    1
    18    16    15    2
    19    18    28    1
    20    19    14    2
    21    20    21    2
    22    20    19    1
    23    21    26    1
    24    22    21    1
    25    23    22    1
    26    24    23    1
    27    24    25    1
    28    26    27    1
    29    26    13    2
    30    28    35    1
    31    28    43    1
    32    30    41    1
    33    32    39    1
    34    33    32    2
    35    33    44    1
    36    34    45    1
    37    34    35    1
    38    34     1    1
    39    37    13    1
    40    37    31    1
    41    37    40    1
    42    39    29    1
    43    39    42    2
    44    40    31    1
    45    40    34    1
    46    41    36    1
    47    41    37    1
    48    41    33    1
    49    42    38    1
    50    44    40    1
    51    44    38    2
