@<TRIPOS>MOLECULE
outputs/IAG933/test6/raw/output_5308_IAG933_linker_design_.xyz
 42 44 0 0 0
SMALL
GASTEIGER

@<TRIPOS>ATOM
      1 C         -24.8550   -1.0120   30.1430 C.3     1  UNL1        0.0438
      2 C         -24.9730   -2.5050   29.7880 C.2     1  UNL1       -0.0208
      3 C         -23.9060   -3.1730   29.1460 C.2     1  UNL1       -0.0042
      4 C         -23.9890   -4.5490   28.8530 C.2     1  UNL1       -0.0003
      5 C         -25.1370   -5.2800   29.2050 C.2     1  UNL1       -0.0000
      6 C         -26.2320   -4.6110   29.7840 C.2     1  UNL1       -0.0003
      7 C         -26.1550   -3.2320   30.0650 C.2     1  UNL1       -0.0042
      8 C         -25.3870   -0.6790   31.5710 C.3     1  UNL1        0.0788
      9 C         -25.1890    0.7730   32.0280 C.3     1  UNL1        0.0380
     10 C         -25.3360    0.6840   33.5440 C.3     1  UNL1        0.0219
     11 C         -24.8290   -0.7150   33.9050 C.3     1  UNL1        0.0888
     12 N         -24.7580   -1.4810   32.6460 N.3     1  UNL1       -0.2191
     13 C         -25.6880    1.6140   26.4610 C.2     1  UNL1        0.0407
     14 C         -26.2500    2.9200   26.3950 C.2     1  UNL1        0.0745
     15 C         -25.6420    4.0930   27.1230 C.2     1  UNL1        0.2234
     16 N         -25.6140    5.2520   26.4490 N.2     1  UNL1       -0.2356
     17 C         -25.0260    6.4790   26.9630 C.3     1  UNL1        0.1550
     18 O         -25.1430    3.9660   28.2430 O.2     1  UNL1       -0.4430
     19 C         -27.4380    3.0910   25.6450 C.2     1  UNL1        0.1068
     20 N         -28.0750    2.0890   25.0030 N.2     1  UNL1       -0.2081
     21 C         -27.5430    0.8490   25.0790 C.2     1  UNL1        0.2533
     22 O         -28.1930   -0.2080   24.4770 O.2     1  UNL1       -0.4558
     23 C         -29.4600    0.0050   23.8660 C.3     1  UNL1        0.2426
     24 C         -30.0650   -1.3770   23.5730 C.3     1  UNL1        0.2292
     25 O         -30.7290   -1.8780   24.7210 O.3     1  UNL1       -0.2162
     26 C         -26.3540    0.5760   25.7770 C.2     1  UNL1        0.1931
     27 F         -25.8600   -0.6810   25.7950 F       1  UNL1       -0.1992
     28 C         -24.4930    2.8196   28.9159 C.3     1  UNL1        0.2690
     29 O         -26.8554    4.2650   30.5808 O.2     1  UNL1       -0.2732
     30 N         -27.7499    6.5997   34.4219 N.3     1  UNL1       -0.0950
     31 C         -26.2262    4.4396   31.6175 C.2     1  UNL1        0.2458
     32 N         -25.5646    3.3729   32.2811 N.am    1  UNL1       -0.2068
     33 N         -23.3994    2.6283   27.9267 N.am    1  UNL1       -0.1255
     34 C         -24.1790    2.4299   30.4643 C.3     1  UNL1        0.0890
     35 O         -21.5499    1.9003   26.8238 O.co2   1  UNL1       -0.2206
     36 C         -26.4897    6.2458   33.8480 C.3     1  UNL1        0.2362
     37 C         -26.4972    5.7503   32.2810 C.3     1  UNL1        0.1408
     38 N         -25.9460    5.2737   34.7100 N.3     1  UNL1       -0.0950
     39 O         -22.4897    0.7041   28.5922 O.co2   1  UNL1       -0.2206
     40 C         -25.3804    2.1488   31.5137 C.3     1  UNL1        0.1021
     41 N         -25.7509    7.4500   33.8498 N.3     1  UNL1       -0.0950
     42 C         -22.3818    1.7427   27.7376 C.2     1  UNL1        0.4658
@<TRIPOS>BOND
     1     2     7    1
     2     2     1    1
     3     3     2    2
     4     4     3    1
     5     4     5    2
     6     5     6    1
     7     6     7    2
     8     8     1    1
     9     8     9    1
    10     8    12    1
    11     9    40    1
    12     9    10    1
    13    10    11    1
    14    12    11    1
    15    14    13    1
    16    14    15    1
    17    15    18    1
    18    16    17    1
    19    16    15    2
    20    18    28    1
    21    19    14    2
    22    20    21    2
    23    20    19    1
    24    21    26    1
    25    22    21    1
    26    23    22    1
    27    24    23    1
    28    24    25    1
    29    26    27    1
    30    26    13    2
    31    28    34    1
    32    29    31    2
    33    31    37    1
    34    31    32    1
    35    33    28    1
    36    35    42   ar
    37    36    41    1
    38    36    30    1
    39    36    38    1
    40    37    36    1
    41    40    34    1
    42    40    32    1
    43    42    33    1
    44    42    39   ar
