@<TRIPOS>MOLECULE
outputs/IAG933/test6/raw/output_5309_IAG933_linker_design_.xyz
 45 49 0 0 0
SMALL
GASTEIGER

@<TRIPOS>ATOM
      1 C         -24.8550   -1.0120   30.1430 C.3     1  UNL1        0.0965
      2 C         -24.9730   -2.5050   29.7880 C.2     1  UNL1       -0.0064
      3 C         -23.9060   -3.1730   29.1460 C.2     1  UNL1       -0.0029
      4 C         -23.9890   -4.5490   28.8530 C.2     1  UNL1       -0.0003
      5 C         -25.1370   -5.2800   29.2050 C.2     1  UNL1       -0.0000
      6 C         -26.2320   -4.6110   29.7840 C.2     1  UNL1       -0.0003
      7 C         -26.1550   -3.2320   30.0650 C.2     1  UNL1       -0.0029
      8 C         -25.3870   -0.6790   31.5710 C.3     1  UNL1        0.0916
      9 C         -25.1890    0.7730   32.0280 C.3     1  UNL1        0.0206
     10 C         -25.3360    0.6840   33.5440 C.3     1  UNL1        0.0203
     11 C         -24.8290   -0.7150   33.9050 C.3     1  UNL1        0.0888
     12 N         -24.7580   -1.4810   32.6460 N.3     1  UNL1       -0.2178
     13 C         -25.6880    1.6140   26.4610 C.3     1  UNL1        0.0921
     14 C         -26.2500    2.9200   26.3950 C.2     1  UNL1        0.0589
     15 C         -25.6420    4.0930   27.1230 C.2     1  UNL1        0.2628
     16 N         -25.6140    5.2520   26.4490 N.am    1  UNL1       -0.2000
     17 C         -25.0260    6.4790   26.9630 C.3     1  UNL1        0.1388
     18 O         -25.1430    3.9660   28.2430 O.2     1  UNL1       -0.2686
     19 C         -27.4380    3.0910   25.6450 C.2     1  UNL1        0.1025
     20 N         -28.0750    2.0890   25.0030 N.2     1  UNL1       -0.2118
     21 C         -27.5430    0.8490   25.0790 C.2     1  UNL1        0.2344
     22 O         -28.1930   -0.2080   24.4770 O.2     1  UNL1       -0.4585
     23 C         -29.4600    0.0050   23.8660 C.3     1  UNL1        0.2423
     24 C         -30.0650   -1.3770   23.5730 C.3     1  UNL1        0.2292
     25 O         -30.7290   -1.8780   24.7210 O.3     1  UNL1       -0.2162
     26 C         -26.3540    0.5760   25.7770 C.3     1  UNL1        0.2440
     27 F         -25.8600   -0.6810   25.7950 F       1  UNL1       -0.2265
     28 C         -23.2717    1.1431   27.5231 C.2     1  UNL1       -0.0097
     29 C         -26.4864    0.5041   28.8558 C.3     1  UNL1        0.0730
     30 C         -24.1607    1.6128   26.5176 C.2     1  UNL1       -0.0177
     31 C         -22.2602    2.3581   25.2178 C.2     1  UNL1       -0.0003
     32 C         -28.5580    1.9217   30.0198 C.2     1  UNL1       -0.0020
     33 C         -30.0248    2.5668   28.1956 C.2     1  UNL1       -0.0020
     34 C         -30.2328    3.7917   28.8319 C.2     1  UNL1        0.0293
     35 C         -23.6288    2.1850   25.3914 C.2     1  UNL1       -0.0041
     36 C         -28.9484    0.2859   28.0844 C.3     1  UNL1        0.0278
     37 N         -25.1368   -0.1193   28.9747 N.3     1  UNL1       -0.2654
     38 C         -28.7710    3.1703   30.6329 C.2     1  UNL1        0.0293
     39 C         -21.4246    1.9437   26.2480 C.2     1  UNL1       -0.0003
     40 C         -23.7172    0.3922   28.7442 C.3     1  UNL1        0.0991
     41 C         -29.1849    1.6196   28.7905 C.2     1  UNL1       -0.0220
     42 C         -27.5509   -0.3605   28.1478 C.3     1  UNL1        0.0220
     43 C         -29.7257    4.0068   30.1069 C.2     1  UNL1        0.1401
     44 C         -21.9159    1.3583   27.4095 C.2     1  UNL1       -0.0032
     45 F         -30.2429    5.0002   30.9082 F       1  UNL1       -0.2042
@<TRIPOS>BOND
     1     1    37    1
     2     2     7    1
     3     2     1    1
     4     3     2    2
     5     4     3    1
     6     4     5    2
     7     5     6    1
     8     6     7    2
     9     8     1    1
    10     8     9    1
    11     8    12    1
    12     9    10    1
    13    10    11    1
    14    12    11    1
    15    13    30    1
    16    14    13    1
    17    14    15    1
    18    15    18    2
    19    16    17    1
    20    16    15    1
    21    19    14    2
    22    20    21    2
    23    20    19    1
    24    21    26    1
    25    22    21    1
    26    23    22    1
    27    24    23    1
    28    24    25    1
    29    26    27    1
    30    26    13    1
    31    28    40    1
    32    29    37    1
    33    30    28    2
    34    31    35    2
    35    31    39    1
    36    32    38    1
    37    33    41    1
    38    33    34    2
    39    34    43    1
    40    35    30    1
    41    36    42    1
    42    36    41    1
    43    39    44    2
    44    40    37    1
    45    41    32    2
    46    42    29    1
    47    43    38    2
    48    43    45    1
    49    44    28    1
