@<TRIPOS>MOLECULE
outputs/IAG933/test6/raw/output_5311_IAG933_linker_design_.xyz
 40 43 0 0 0
SMALL
GASTEIGER

@<TRIPOS>ATOM
      1 C         -24.8550   -1.0120   30.1430 C.3     1  UNL1        0.1153
      2 C         -24.9730   -2.5050   29.7880 C.2     1  UNL1       -0.0125
      3 C         -23.9060   -3.1730   29.1460 C.2     1  UNL1       -0.0038
      4 C         -23.9890   -4.5490   28.8530 C.2     1  UNL1       -0.0003
      5 C         -25.1370   -5.2800   29.2050 C.2     1  UNL1       -0.0000
      6 C         -26.2320   -4.6110   29.7840 C.2     1  UNL1       -0.0003
      7 C         -26.1550   -3.2320   30.0650 C.2     1  UNL1       -0.0038
      8 C         -25.3870   -0.6790   31.5710 C.3     1  UNL1        0.0855
      9 C         -25.1890    0.7730   32.0280 C.3     1  UNL1        0.0197
     10 C         -25.3360    0.6840   33.5440 C.3     1  UNL1        0.0203
     11 C         -24.8290   -0.7150   33.9050 C.3     1  UNL1        0.0887
     12 N         -24.7580   -1.4810   32.6460 N.3     1  UNL1       -0.2186
     13 C         -25.6880    1.6140   26.4610 C.3     1  UNL1        0.0998
     14 C         -26.2500    2.9200   26.3950 C.2     1  UNL1        0.0573
     15 C         -25.6420    4.0930   27.1230 C.2     1  UNL1        0.2625
     16 N         -25.6140    5.2520   26.4490 N.am    1  UNL1       -0.2000
     17 C         -25.0260    6.4790   26.9630 C.3     1  UNL1        0.1388
     18 O         -25.1430    3.9660   28.2430 O.2     1  UNL1       -0.2687
     19 C         -27.4380    3.0910   25.6450 C.2     1  UNL1        0.1022
     20 N         -28.0750    2.0890   25.0030 N.2     1  UNL1       -0.2119
     21 C         -27.5430    0.8490   25.0790 C.2     1  UNL1        0.2342
     22 O         -28.1930   -0.2080   24.4770 O.2     1  UNL1       -0.4585
     23 C         -29.4600    0.0050   23.8660 C.3     1  UNL1        0.2423
     24 C         -30.0650   -1.3770   23.5730 C.3     1  UNL1        0.2292
     25 O         -30.7290   -1.8780   24.7210 O.3     1  UNL1       -0.2162
     26 C         -26.3540    0.5760   25.7770 C.3     1  UNL1        0.2424
     27 F         -25.8600   -0.6810   25.7950 F       1  UNL1       -0.2268
     28 N         -23.6681    0.2027   28.7209 N.am    1  UNL1       -0.1981
     29 O         -25.9365   -0.2351   28.3665 O.2     1  UNL1       -0.2740
     30 C         -22.4577   -0.5031   28.8901 C.3     1  UNL1        0.2512
     31 C         -21.7126    1.4334   28.1885 C.3     1  UNL1        0.3543
     32 C         -24.9190   -0.2185   28.9013 C.2     1  UNL1        0.2383
     33 C         -23.1974    1.2986   29.0747 C.2     1  UNL1        0.2953
     34 F         -21.3340    2.2207   25.9006 F       1  UNL1       -0.1976
     35 C         -21.9061    1.2145   26.6828 C.3     1  UNL1        0.3443
     36 C         -24.3257    1.3693   26.7897 C.3     1  UNL1        0.1530
     37 O         -23.3067    2.0194   29.9470 O.2     1  UNL1       -0.2686
     38 O         -23.3256    1.7081   26.4354 O.3     1  UNL1       -0.3221
     39 O         -21.2674    0.3770   28.7821 O.3     1  UNL1       -0.2989
     40 F         -20.6114    2.3816   28.0656 F       1  UNL1       -0.1938
@<TRIPOS>BOND
     1     1    32    1
     2     2     7    1
     3     2     1    1
     4     3     2    2
     5     4     3    1
     6     4     5    2
     7     5     6    1
     8     6     7    2
     9     8     1    1
    10     8     9    1
    11     8    12    1
    12     9    10    1
    13    10    11    1
    14    12    11    1
    15    13    36    1
    16    14    13    1
    17    14    15    1
    18    15    18    2
    19    16    17    1
    20    16    15    1
    21    19    14    2
    22    20    21    2
    23    20    19    1
    24    21    26    1
    25    22    21    1
    26    23    22    1
    27    24    23    1
    28    24    25    1
    29    26    27    1
    30    26    13    1
    31    28    30    1
    32    28    32   am
    33    28    33   am
    34    29    32    2
    35    31    40    1
    36    31    39    1
    37    31    33    1
    38    33    37    2
    39    35    34    1
    40    35    31    1
    41    38    35    1
    42    38    36    1
    43    39    30    1
