@<TRIPOS>MOLECULE
outputs/IAG933/test6/raw/output_5314_IAG933_linker_design_.xyz
 46 52 0 0 0
SMALL
GASTEIGER

@<TRIPOS>ATOM
      1 C         -24.8550   -1.0120   30.1430 C.3     1  UNL1        0.0438
      2 C         -24.9730   -2.5050   29.7880 C.2     1  UNL1       -0.0208
      3 C         -23.9060   -3.1730   29.1460 C.2     1  UNL1       -0.0042
      4 C         -23.9890   -4.5490   28.8530 C.2     1  UNL1       -0.0003
      5 C         -25.1370   -5.2800   29.2050 C.2     1  UNL1       -0.0000
      6 C         -26.2320   -4.6110   29.7840 C.2     1  UNL1       -0.0003
      7 C         -26.1550   -3.2320   30.0650 C.2     1  UNL1       -0.0042
      8 C         -25.3870   -0.6790   31.5710 C.3     1  UNL1        0.0801
      9 C         -25.1890    0.7730   32.0280 C.3     1  UNL1        0.0532
     10 C         -25.3360    0.6840   33.5440 C.3     1  UNL1        0.0233
     11 C         -24.8290   -0.7150   33.9050 C.3     1  UNL1        0.0888
     12 N         -24.7580   -1.4810   32.6460 N.3     1  UNL1       -0.2190
     13 C         -25.6880    1.6140   26.4610 C.3     1  UNL1        0.0921
     14 C         -26.2500    2.9200   26.3950 C.2     1  UNL1        0.0589
     15 C         -25.6420    4.0930   27.1230 C.2     1  UNL1        0.2628
     16 N         -25.6140    5.2520   26.4490 N.am    1  UNL1       -0.2000
     17 C         -25.0260    6.4790   26.9630 C.3     1  UNL1        0.1388
     18 O         -25.1430    3.9660   28.2430 O.2     1  UNL1       -0.2686
     19 C         -27.4380    3.0910   25.6450 C.2     1  UNL1        0.1025
     20 N         -28.0750    2.0890   25.0030 N.2     1  UNL1       -0.2118
     21 C         -27.5430    0.8490   25.0790 C.2     1  UNL1        0.2344
     22 O         -28.1930   -0.2080   24.4770 O.2     1  UNL1       -0.4585
     23 C         -29.4600    0.0050   23.8660 C.3     1  UNL1        0.2423
     24 C         -30.0650   -1.3770   23.5730 C.3     1  UNL1        0.2292
     25 O         -30.7290   -1.8780   24.7210 O.3     1  UNL1       -0.2162
     26 C         -26.3540    0.5760   25.7770 C.3     1  UNL1        0.2440
     27 F         -25.8600   -0.6810   25.7950 F       1  UNL1       -0.2265
     28 N         -24.1422    1.9743   30.2842 N.3     1  UNL1       -0.1922
     29 C         -23.3541    1.8816   25.7446 C.2     1  UNL1       -0.0041
     30 C         -23.6173    1.2306   29.2582 C.3     1  UNL1        0.1181
     31 C         -22.0246    2.0866   26.1086 C.2     1  UNL1       -0.0006
     32 C         -29.7621    3.0622   30.3754 C.2     1  UNL1        0.0013
     33 C         -28.8876    5.0312   31.3239 C.2     1  UNL1       -0.0026
     34 C         -29.9766    4.2842   30.9210 C.2     1  UNL1       -0.0002
     35 O         -24.9127    3.4844   32.9510 O.2     1  UNL1       -0.2741
     36 C         -27.4226    3.2222   30.8504 C.2     1  UNL1        0.0515
     37 C         -25.6471    1.7652   30.8676 C.3     1  UNL1        0.1553
     38 C         -24.2673    1.6004   26.7463 C.2     1  UNL1       -0.0177
     39 N         -26.1830    2.8478   31.3019 N.am    1  UNL1       -0.2454
     40 C         -23.6911    1.4766   28.0816 C.2     1  UNL1       -0.0082
     41 C         -21.5437    2.0249   27.4048 C.2     1  UNL1       -0.0029
     42 C         -26.1613    4.9837   31.5496 C.3     1  UNL1        0.1132
     43 C         -25.6119    3.7828   31.9544 C.2     1  UNL1        0.2348
     44 C         -28.4964    2.5871   30.2047 C.2     1  UNL1        0.0146
     45 C         -22.6990    1.7521   28.4902 C.2     1  UNL1       -0.0050
     46 C         -27.5861    4.5197   31.2227 C.2     1  UNL1        0.0007
@<TRIPOS>BOND
     1     2     7    1
     2     2     1    1
     3     3     2    2
     4     4     3    1
     5     4     5    2
     6     5     6    1
     7     6     7    2
     8     8     1    1
     9     8     9    1
    10     8    12    1
    11     9    37    1
    12     9    10    1
    13    10    11    1
    14    12    11    1
    15    13    38    1
    16    14    13    1
    17    14    15    1
    18    15    18    2
    19    16    17    1
    20    16    15    1
    21    19    14    2
    22    20    21    2
    23    20    19    1
    24    21    26    1
    25    22    21    1
    26    23    22    1
    27    24    23    1
    28    24    25    1
    29    26    27    1
    30    26    13    1
    31    29    31    2
    32    29    38    1
    33    30    28    1
    34    31    41    1
    35    32    34    1
    36    34    33    2
    37    36    46    2
    38    36    39    1
    39    37    28    1
    40    37    39    1
    41    38    40    2
    42    39    43   am
    43    40    45    1
    44    40    30    1
    45    41    45    2
    46    42    43    1
    47    43    35    2
    48    44    32    2
    49    44    36    1
    50    45    30    1
    51    46    33    1
    52    46    42    1
