@<TRIPOS>MOLECULE
outputs/IAG933/test6/raw/output_5315_IAG933_linker_design_.xyz
 43 46 0 0 0
SMALL
GASTEIGER

@<TRIPOS>ATOM
      1 C         -24.8550   -1.0120   30.1430 C.3     1  UNL1        0.0657
      2 C         -24.9730   -2.5050   29.7880 C.2     1  UNL1       -0.0190
      3 C         -23.9060   -3.1730   29.1460 C.2     1  UNL1       -0.0042
      4 C         -23.9890   -4.5490   28.8530 C.2     1  UNL1       -0.0003
      5 C         -25.1370   -5.2800   29.2050 C.2     1  UNL1       -0.0000
      6 C         -26.2320   -4.6110   29.7840 C.2     1  UNL1       -0.0003
      7 C         -26.1550   -3.2320   30.0650 C.2     1  UNL1       -0.0042
      8 C         -25.3870   -0.6790   31.5710 C.3     1  UNL1        0.0789
      9 C         -25.1890    0.7730   32.0280 C.3     1  UNL1        0.0193
     10 C         -25.3360    0.6840   33.5440 C.3     1  UNL1        0.0202
     11 C         -24.8290   -0.7150   33.9050 C.3     1  UNL1        0.0887
     12 N         -24.7580   -1.4810   32.6460 N.3     1  UNL1       -0.2191
     13 C         -25.6880    1.6140   26.4610 C.2     1  UNL1        0.0591
     14 C         -26.2500    2.9200   26.3950 C.2     1  UNL1        0.0803
     15 C         -25.6420    4.0930   27.1230 C.2     1  UNL1        0.2667
     16 N         -25.6140    5.2520   26.4490 N.am    1  UNL1       -0.1997
     17 C         -25.0260    6.4790   26.9630 C.3     1  UNL1        0.1388
     18 O         -25.1430    3.9660   28.2430 O.2     1  UNL1       -0.2683
     19 C         -27.4380    3.0910   25.6450 C.2     1  UNL1        0.1067
     20 N         -28.0750    2.0890   25.0030 N.2     1  UNL1       -0.2112
     21 C         -27.5430    0.8490   25.0790 C.2     1  UNL1        0.2389
     22 O         -28.1930   -0.2080   24.4770 O.2     1  UNL1       -0.4583
     23 C         -29.4600    0.0050   23.8660 C.3     1  UNL1        0.2423
     24 C         -30.0650   -1.3770   23.5730 C.3     1  UNL1        0.2292
     25 O         -30.7290   -1.8780   24.7210 O.3     1  UNL1       -0.2162
     26 C         -26.3540    0.5760   25.7770 C.3     1  UNL1        0.2653
     27 F         -25.8600   -0.6810   25.7950 F       1  UNL1       -0.2217
     28 O         -23.3029    3.0604   25.7810 O.2     1  UNL1       -0.1467
     29 C         -28.7106    0.1854   28.1949 C.2     1  UNL1        0.0161
     30 C         -24.5118    1.5187   26.8988 C.1     1  UNL1       -0.1009
     31 C         -27.6108    0.6594   28.8911 C.2     1  UNL1        0.0657
     32 O         -22.8481    0.2978   29.4387 O.2     1  UNL1       -0.2891
     33 N         -22.8028    2.1735   25.8666 N.2     1  UNL1       -0.0363
     34 C         -28.7302    2.7115   29.2198 C.2     1  UNL1        0.0013
     35 C         -29.8433    0.9636   28.0367 C.2     1  UNL1        0.0013
     36 N         -26.4828   -0.1982   28.9504 N.pl3   1  UNL1       -0.2311
     37 C         -27.6256    1.8938   29.4617 C.2     1  UNL1        0.0161
     38 C         -23.6531    1.1817   27.5855 C.2     1  UNL1        0.0892
     39 C         -25.1167   -0.1236   29.1427 C.3     1  UNL1        0.1594
     40 CL        -20.9144    1.6808   27.5042 Cl      1  UNL1       -0.0787
     41 C         -22.5512    1.4664   27.0285 C.3     1  UNL1        0.2569
     42 C         -29.8315    2.2675   28.4955 C.2     1  UNL1        0.0001
     43 C         -23.8933    0.4806   28.7656 C.2     1  UNL1        0.1991
@<TRIPOS>BOND
     1     1    39    1
     2     2     7    1
     3     2     1    1
     4     3     2    2
     5     4     3    1
     6     4     5    2
     7     5     6    1
     8     6     7    2
     9     8     1    1
    10     8     9    1
    11     8    12    1
    12     9    10    1
    13    10    11    1
    14    12    11    1
    15    13    30    2
    16    14    13    1
    17    14    15    1
    18    15    18    2
    19    16    17    1
    20    16    15    1
    21    19    14    2
    22    20    21    2
    23    20    19    1
    24    21    26    1
    25    22    21    1
    26    23    22    1
    27    24    23    1
    28    24    25    1
    29    26    27    1
    30    26    13    1
    31    28    33    2
    32    29    31    1
    33    30    38    2
    34    31    36    1
    35    31    37    2
    36    33    41    1
    37    34    37    1
    38    35    29    2
    39    35    42    1
    40    36    39    1
    41    38    43    1
    42    39    43    1
    43    41    40    1
    44    41    38    1
    45    42    34    2
    46    43    32    2
