@<TRIPOS>MOLECULE
outputs/IAG933/test6/raw/output_5320_IAG933_linker_design_.xyz
 41 45 0 0 0
SMALL
GASTEIGER

@<TRIPOS>ATOM
      1 C         -24.8550   -1.0120   30.1430 C.3     1  UNL1        0.0578
      2 C         -24.9730   -2.5050   29.7880 C.2     1  UNL1       -0.0197
      3 C         -23.9060   -3.1730   29.1460 C.2     1  UNL1       -0.0042
      4 C         -23.9890   -4.5490   28.8530 C.2     1  UNL1       -0.0003
      5 C         -25.1370   -5.2800   29.2050 C.2     1  UNL1       -0.0000
      6 C         -26.2320   -4.6110   29.7840 C.2     1  UNL1       -0.0003
      7 C         -26.1550   -3.2320   30.0650 C.2     1  UNL1       -0.0042
      8 C         -25.3870   -0.6790   31.5710 C.3     1  UNL1        0.1179
      9 C         -25.1890    0.7730   32.0280 C.3     1  UNL1        0.1835
     10 C         -25.3360    0.6840   33.5440 C.3     1  UNL1        0.0638
     11 C         -24.8290   -0.7150   33.9050 C.3     1  UNL1        0.0926
     12 N         -24.7580   -1.4810   32.6460 N.3     1  UNL1       -0.2153
     13 C         -25.6880    1.6140   26.4610 C.3     1  UNL1        0.0848
     14 C         -26.2500    2.9200   26.3950 C.2     1  UNL1        0.0561
     15 C         -25.6420    4.0930   27.1230 C.2     1  UNL1        0.2625
     16 N         -25.6140    5.2520   26.4490 N.am    1  UNL1       -0.2000
     17 C         -25.0260    6.4790   26.9630 C.3     1  UNL1        0.1388
     18 O         -25.1430    3.9660   28.2430 O.2     1  UNL1       -0.2687
     19 C         -27.4380    3.0910   25.6450 C.2     1  UNL1        0.1022
     20 N         -28.0750    2.0890   25.0030 N.2     1  UNL1       -0.2119
     21 C         -27.5430    0.8490   25.0790 C.2     1  UNL1        0.2341
     22 O         -28.1930   -0.2080   24.4770 O.2     1  UNL1       -0.4585
     23 C         -29.4600    0.0050   23.8660 C.3     1  UNL1        0.2423
     24 C         -30.0650   -1.3770   23.5730 C.3     1  UNL1        0.2292
     25 O         -30.7290   -1.8780   24.7210 O.3     1  UNL1       -0.2162
     26 C         -26.3540    0.5760   25.7770 C.3     1  UNL1        0.2413
     27 F         -25.8600   -0.6810   25.7950 F       1  UNL1       -0.2268
     28 O         -20.6859    1.7387   27.7721 O.3     1  UNL1       -0.2216
     29 N         -24.0671    0.4705   28.0512 N.3     1  UNL1       -0.2710
     30 C         -22.8185    1.9681   26.6381 C.3     1  UNL1        0.0507
     31 O         -24.5649    1.6454   31.2515 O.2     1  UNL1       -0.4777
     32 C         -25.5702    5.5281   31.4381 C.2     1  UNL1        0.0002
     33 C         -24.9659    2.8621   31.4805 C.2     1  UNL1        0.1384
     34 C         -25.0729    0.0486   29.0601 C.3     1  UNL1        0.0780
     35 C         -24.4560    3.7022   32.4675 C.2     1  UNL1        0.0369
     36 C         -22.6652    0.4139   28.5646 C.3     1  UNL1        0.1054
     37 C         -24.2588    1.4290   26.9158 C.3     1  UNL1        0.0675
     38 C         -26.1649    4.6897   30.5185 C.2     1  UNL1        0.0031
     39 C         -25.9477    3.3328   30.6303 C.2     1  UNL1        0.0369
     40 C         -24.7375    5.0500   32.4338 C.2     1  UNL1        0.0031
     41 C         -22.1238    1.7912   28.0206 C.3     1  UNL1        0.1692
@<TRIPOS>BOND
     1     1    34    1
     2     2     7    1
     3     2     1    1
     4     3     2    2
     5     4     3    1
     6     4     5    2
     7     5     6    1
     8     6     7    2
     9     8     1    1
    10     8     9    1
    11     8    12    1
    12     9    31    1
    13     9    10    1
    14    10    11    1
    15    12    11    1
    16    13    14    1
    17    13    37    1
    18    14    15    1
    19    15    18    2
    20    16    17    1
    21    16    15    1
    22    19    14    2
    23    20    21    2
    24    20    19    1
    25    21    26    1
    26    22    21    1
    27    23    22    1
    28    24    23    1
    29    24    25    1
    30    26    27    1
    31    26    13    1
    32    29    36    1
    33    29    34    1
    34    30    41    1
    35    31    33    1
    36    32    40    1
    37    33    35    1
    38    37    30    1
    39    37    29    1
    40    38    39    1
    41    38    32    2
    42    39    33    2
    43    40    35    2
    44    41    28    1
    45    41    36    1
