@<TRIPOS>MOLECULE
outputs/IAG933/test6/raw/output_5323_IAG933_linker_design_.xyz
 43 46 0 0 0
SMALL
GASTEIGER

@<TRIPOS>ATOM
      1 C         -24.8550   -1.0120   30.1430 C.3     1  UNL1        0.0511
      2 C         -24.9730   -2.5050   29.7880 C.2     1  UNL1       -0.0204
      3 C         -23.9060   -3.1730   29.1460 C.2     1  UNL1       -0.0042
      4 C         -23.9890   -4.5490   28.8530 C.2     1  UNL1       -0.0003
      5 C         -25.1370   -5.2800   29.2050 C.2     1  UNL1       -0.0000
      6 C         -26.2320   -4.6110   29.7840 C.2     1  UNL1       -0.0003
      7 C         -26.1550   -3.2320   30.0650 C.2     1  UNL1       -0.0042
      8 C         -25.3870   -0.6790   31.5710 C.3     1  UNL1        0.0776
      9 C         -25.1890    0.7730   32.0280 C.3     1  UNL1        0.0192
     10 C         -25.3360    0.6840   33.5440 C.3     1  UNL1        0.0202
     11 C         -24.8290   -0.7150   33.9050 C.3     1  UNL1        0.0887
     12 N         -24.7580   -1.4810   32.6460 N.3     1  UNL1       -0.2191
     13 C         -25.6880    1.6140   26.4610 C.2     1  UNL1        0.0379
     14 C         -26.2500    2.9200   26.3950 C.2     1  UNL1        0.0765
     15 C         -25.6420    4.0930   27.1230 C.2     1  UNL1        0.2664
     16 N         -25.6140    5.2520   26.4490 N.am    1  UNL1       -0.1997
     17 C         -25.0260    6.4790   26.9630 C.3     1  UNL1        0.1388
     18 O         -25.1430    3.9660   28.2430 O.2     1  UNL1       -0.2683
     19 C         -27.4380    3.0910   25.6450 C.2     1  UNL1        0.1067
     20 N         -28.0750    2.0890   25.0030 N.2     1  UNL1       -0.2081
     21 C         -27.5430    0.8490   25.0790 C.2     1  UNL1        0.2533
     22 O         -28.1930   -0.2080   24.4770 O.2     1  UNL1       -0.4558
     23 C         -29.4600    0.0050   23.8660 C.3     1  UNL1        0.2426
     24 C         -30.0650   -1.3770   23.5730 C.3     1  UNL1        0.2292
     25 O         -30.7290   -1.8780   24.7210 O.3     1  UNL1       -0.2162
     26 C         -26.3540    0.5760   25.7770 C.2     1  UNL1        0.1930
     27 F         -25.8600   -0.6810   25.7950 F       1  UNL1       -0.1992
     28 C         -24.3083    0.6062   28.2776 C.2     1  UNL1       -0.0132
     29 C         -28.7306    2.0808   29.6013 C.3     1  UNL1        0.2863
     30 C         -21.9331    1.1327   28.0647 C.2     1  UNL1        0.0293
     31 C         -25.4959   -0.0198   29.0230 C.3     1  UNL1        0.1058
     32 O         -28.3900    2.6364   32.0947 O.2     1  UNL1       -0.1531
     33 C         -22.9894    0.5800   28.7681 C.2     1  UNL1       -0.0015
     34 O         -28.9499    0.4781   31.3030 O.2     1  UNL1       -0.1531
     35 C         -22.1590    1.6887   26.8337 C.2     1  UNL1        0.1401
     36 O         -27.8948   -0.5438   28.4829 O.2     1  UNL1       -0.2729
     37 C         -23.3516    1.6633   26.2797 C.2     1  UNL1        0.0294
     38 N         -27.4605    1.5452   29.2983 N.am    1  UNL1       -0.1778
     39 C         -24.4309    1.2417   27.0226 C.2     1  UNL1        0.0012
     40 F         -21.1537    2.1552   26.0629 F       1  UNL1       -0.2042
     41 S         -29.1584    1.8913   31.1886 S.O2    1  UNL1        0.0950
     42 C         -27.0192    0.2602   28.8770 C.2     1  UNL1        0.2470
     43 N         -30.6879    2.2854   31.4983 N.3     1  UNL1        0.0363
@<TRIPOS>BOND
     1     1    31    1
     2     2     7    1
     3     2     1    1
     4     3     2    2
     5     4     3    1
     6     4     5    2
     7     5     6    1
     8     6     7    2
     9     8     1    1
    10     8     9    1
    11     8    12    1
    12     9    10    1
    13    10    11    1
    14    12    11    1
    15    13    39    1
    16    14    13    1
    17    14    15    1
    18    15    18    2
    19    16    17    1
    20    16    15    1
    21    19    14    2
    22    20    21    2
    23    20    19    1
    24    21    26    1
    25    22    21    1
    26    23    22    1
    27    24    23    1
    28    24    25    1
    29    26    27    1
    30    26    13    2
    31    28    33    1
    32    28    31    1
    33    29    41    1
    34    30    33    2
    35    31    42    1
    36    35    30    1
    37    36    42    2
    38    37    35    2
    39    37    39    1
    40    38    29    1
    41    39    28    2
    42    40    35    1
    43    41    34    2
    44    41    43    1
    45    41    32    2
    46    42    38    1
