@<TRIPOS>MOLECULE
outputs/IAG933/test6/raw/output_5326_IAG933_linker_design_.xyz
 43 46 0 0 0
SMALL
GASTEIGER

@<TRIPOS>ATOM
      1 C         -24.8550   -1.0120   30.1430 C.3     1  UNL1        0.1124
      2 C         -24.9730   -2.5050   29.7880 C.2     1  UNL1       -0.0051
      3 C         -23.9060   -3.1730   29.1460 C.2     1  UNL1       -0.0029
      4 C         -23.9890   -4.5490   28.8530 C.2     1  UNL1       -0.0003
      5 C         -25.1370   -5.2800   29.2050 C.2     1  UNL1       -0.0000
      6 C         -26.2320   -4.6110   29.7840 C.2     1  UNL1       -0.0003
      7 C         -26.1550   -3.2320   30.0650 C.2     1  UNL1       -0.0029
      8 C         -25.3870   -0.6790   31.5710 C.3     1  UNL1        0.0929
      9 C         -25.1890    0.7730   32.0280 C.3     1  UNL1        0.0206
     10 C         -25.3360    0.6840   33.5440 C.3     1  UNL1        0.0203
     11 C         -24.8290   -0.7150   33.9050 C.3     1  UNL1        0.0888
     12 N         -24.7580   -1.4810   32.6460 N.3     1  UNL1       -0.2177
     13 C         -25.6880    1.6140   26.4610 C.3     1  UNL1        0.0968
     14 C         -26.2500    2.9200   26.3950 C.2     1  UNL1        0.0592
     15 C         -25.6420    4.0930   27.1230 C.2     1  UNL1        0.2628
     16 N         -25.6140    5.2520   26.4490 N.am    1  UNL1       -0.2000
     17 C         -25.0260    6.4790   26.9630 C.3     1  UNL1        0.1388
     18 O         -25.1430    3.9660   28.2430 O.2     1  UNL1       -0.2686
     19 C         -27.4380    3.0910   25.6450 C.2     1  UNL1        0.1025
     20 N         -28.0750    2.0890   25.0030 N.2     1  UNL1       -0.2118
     21 C         -27.5430    0.8490   25.0790 C.2     1  UNL1        0.2344
     22 O         -28.1930   -0.2080   24.4770 O.2     1  UNL1       -0.4585
     23 C         -29.4600    0.0050   23.8660 C.3     1  UNL1        0.2423
     24 C         -30.0650   -1.3770   23.5730 C.3     1  UNL1        0.2292
     25 O         -30.7290   -1.8780   24.7210 O.3     1  UNL1       -0.2162
     26 C         -26.3540    0.5760   25.7770 C.3     1  UNL1        0.2443
     27 F         -25.8600   -0.6810   25.7950 F       1  UNL1       -0.2265
     28 C         -26.3507    0.6187   28.7031 C.1     1  UNL1       -0.1046
     29 C         -23.7728    1.1074   27.6376 C.3     1  UNL1        0.0999
     30 O         -28.9511   -1.1484   29.4785 O.2     1  UNL1       -0.3073
     31 C         -23.1299    0.8788   29.6049 C.3     1  UNL1        0.1788
     32 P         -29.5689    0.2815   31.7503 P.3     1  UNL1        0.1669
     33 P         -29.0057    0.2109   29.9496 P.3     1  UNL1        0.1897
     34 N         -23.2857    0.3801   28.7152 N.3     1  UNL1       -0.1964
     35 C         -29.8851    1.8940   32.3123 C.3     1  UNL1        0.0750
     36 C         -22.8617    2.0154   26.8154 C.3     1  UNL1        0.0222
     37 C         -27.5858    0.7630   29.7528 C.2     1  UNL1        0.0793
     38 C         -25.0575    1.1301   27.6923 C.2     1  UNL1        0.0131
     39 C         -30.0484    1.2638   29.0125 C.3     1  UNL1        0.0794
     40 N         -23.8092   -0.3230   29.3822 N.3     1  UNL1       -0.1953
     41 C         -21.4666    1.6316   27.1586 C.3     1  UNL1        0.0018
     42 C         -31.1546   -0.2410   31.7794 C.3     1  UNL1        0.0750
     43 O         -28.5687   -0.3256   32.6284 O.2     1  UNL1       -0.3118
@<TRIPOS>BOND
     1     1     2    1
     2     2     7    1
     3     3     2    2
     4     4     3    1
     5     4     5    2
     6     5     6    1
     7     6     7    2
     8     8     1    1
     9     8     9    1
    10     8    12    1
    11     9    10    1
    12    10    11    1
    13    12    11    1
    14    13    38    1
    15    14    13    1
    16    14    15    1
    17    15    18    2
    18    16    17    1
    19    16    15    1
    20    19    14    2
    21    20    21    2
    22    20    19    1
    23    21    26    1
    24    22    21    1
    25    23    22    1
    26    24    23    1
    27    24    25    1
    28    26    27    1
    29    26    13    1
    30    28    37    2
    31    29    36    1
    32    29    38    1
    33    29    34    1
    34    30    33    2
    35    32    42    1
    36    32    35    1
    37    32    43    2
    38    33    39    1
    39    33    32    1
    40    34    40    1
    41    34    31    1
    42    36    41    1
    43    37    33    1
    44    38    28    2
    45    40    31    1
    46    40     1    1
