@<TRIPOS>MOLECULE
outputs/IAG933/test6/raw/output_5327_IAG933_linker_design_.xyz
 41 44 0 0 0
SMALL
GASTEIGER

@<TRIPOS>ATOM
      1 C         -24.8550   -1.0120   30.1430 C.3     1  UNL1        0.1361
      2 C         -24.9730   -2.5050   29.7880 C.2     1  UNL1       -0.0031
      3 C         -23.9060   -3.1730   29.1460 C.2     1  UNL1       -0.0028
      4 C         -23.9890   -4.5490   28.8530 C.2     1  UNL1       -0.0003
      5 C         -25.1370   -5.2800   29.2050 C.2     1  UNL1       -0.0000
      6 C         -26.2320   -4.6110   29.7840 C.2     1  UNL1       -0.0003
      7 C         -26.1550   -3.2320   30.0650 C.2     1  UNL1       -0.0028
      8 C         -25.3870   -0.6790   31.5710 C.3     1  UNL1        0.0949
      9 C         -25.1890    0.7730   32.0280 C.3     1  UNL1        0.0207
     10 C         -25.3360    0.6840   33.5440 C.3     1  UNL1        0.0203
     11 C         -24.8290   -0.7150   33.9050 C.3     1  UNL1        0.0888
     12 N         -24.7580   -1.4810   32.6460 N.3     1  UNL1       -0.2176
     13 C         -25.6880    1.6140   26.4610 C.2     1  UNL1        0.1054
     14 C         -26.2500    2.9200   26.3950 C.2     1  UNL1        0.0914
     15 C         -25.6420    4.0930   27.1230 C.2     1  UNL1        0.2677
     16 N         -25.6140    5.2520   26.4490 N.am    1  UNL1       -0.1997
     17 C         -25.0260    6.4790   26.9630 C.3     1  UNL1        0.1388
     18 O         -25.1430    3.9660   28.2430 O.2     1  UNL1       -0.2683
     19 C         -27.4380    3.0910   25.6450 C.2     1  UNL1        0.1080
     20 N         -28.0750    2.0890   25.0030 N.2     1  UNL1       -0.2080
     21 C         -27.5430    0.8490   25.0790 C.2     1  UNL1        0.2546
     22 O         -28.1930   -0.2080   24.4770 O.2     1  UNL1       -0.4558
     23 C         -29.4600    0.0050   23.8660 C.3     1  UNL1        0.2426
     24 C         -30.0650   -1.3770   23.5730 C.3     1  UNL1        0.2292
     25 O         -30.7290   -1.8780   24.7210 O.3     1  UNL1       -0.2162
     26 C         -26.3540    0.5760   25.7770 C.2     1  UNL1        0.2078
     27 F         -25.8600   -0.6810   25.7950 F       1  UNL1       -0.1979
     28 O         -22.1709    1.2237   27.7448 O.3     1  UNL1       -0.4422
     29 O         -26.5354   -0.2412   28.6109 O.2     1  UNL1       -0.3990
     30 O         -22.3476    0.3207   29.7137 O.2     1  UNL1       -0.2465
     31 C         -20.7075    1.2062   27.8127 C.3     1  UNL1        0.2557
     32 C         -29.6889    1.6660   28.5071 C.2     1  UNL1        0.0032
     33 C         -24.4346    0.7760   28.5879 C.3     1  UNL1        0.2857
     34 C         -22.9051    0.7412   28.7372 C.2     1  UNL1        0.3561
     35 C         -28.4573    1.1613   28.1747 C.2     1  UNL1        0.0394
     36 C         -30.2809    1.2822   29.6985 C.2     1  UNL1        0.0002
     37 N         -24.6159    1.3677   27.1755 N.pl3   1  UNL1       -0.2072
     38 C         -28.3055    0.0207   30.2346 C.2     1  UNL1        0.0394
     39 C         -27.7693    0.3128   28.9990 C.2     1  UNL1        0.1653
     40 C         -29.5497    0.4780   30.5432 C.2     1  UNL1        0.0032
     41 N         -25.2275   -0.0778   29.0857 N.3     1  UNL1       -0.0870
@<TRIPOS>BOND
     1     1    41    1
     2     2     7    1
     3     2     1    1
     4     3     2    2
     5     4     3    1
     6     4     5    2
     7     5     6    1
     8     6     7    2
     9     8     1    1
    10     8     9    1
    11     8    12    1
    12     9    10    1
    13    10    11    1
    14    12    11    1
    15    13    37    1
    16    14    13    1
    17    14    15    1
    18    15    18    2
    19    16    17    1
    20    16    15    1
    21    19    14    2
    22    20    21    2
    23    20    19    1
    24    21    26    1
    25    22    21    1
    26    23    22    1
    27    24    23    1
    28    24    25    1
    29    26    27    1
    30    26    13    2
    31    28    31    1
    32    28    34    1
    33    29    39    1
    34    29    41    1
    35    32    36    1
    36    33    37    1
    37    33    34    1
    38    33    41    1
    39    34    30    2
    40    35    32    2
    41    35    39    1
    42    36    40    2
    43    38    40    1
    44    39    38    2
