@<TRIPOS>MOLECULE
outputs/IAG933/test6/raw/output_5328_IAG933_linker_design_.xyz
 46 50 0 0 0
SMALL
GASTEIGER

@<TRIPOS>ATOM
      1 C         -24.8550   -1.0120   30.1430 C.3     1  UNL1        0.0438
      2 C         -24.9730   -2.5050   29.7880 C.2     1  UNL1       -0.0208
      3 C         -23.9060   -3.1730   29.1460 C.2     1  UNL1       -0.0042
      4 C         -23.9890   -4.5490   28.8530 C.2     1  UNL1       -0.0003
      5 C         -25.1370   -5.2800   29.2050 C.2     1  UNL1       -0.0000
      6 C         -26.2320   -4.6110   29.7840 C.2     1  UNL1       -0.0003
      7 C         -26.1550   -3.2320   30.0650 C.2     1  UNL1       -0.0042
      8 C         -25.3870   -0.6790   31.5710 C.3     1  UNL1        0.0788
      9 C         -25.1890    0.7730   32.0280 C.3     1  UNL1        0.0377
     10 C         -25.3360    0.6840   33.5440 C.3     1  UNL1        0.0219
     11 C         -24.8290   -0.7150   33.9050 C.3     1  UNL1        0.0888
     12 N         -24.7580   -1.4810   32.6460 N.3     1  UNL1       -0.2191
     13 C         -25.6880    1.6140   26.4610 C.3     1  UNL1        0.0746
     14 C         -26.2500    2.9200   26.3950 C.2     1  UNL1        0.0551
     15 C         -25.6420    4.0930   27.1230 C.2     1  UNL1        0.2624
     16 N         -25.6140    5.2520   26.4490 N.am    1  UNL1       -0.2000
     17 C         -25.0260    6.4790   26.9630 C.3     1  UNL1        0.1388
     18 O         -25.1430    3.9660   28.2430 O.2     1  UNL1       -0.2687
     19 C         -27.4380    3.0910   25.6450 C.2     1  UNL1        0.1021
     20 N         -28.0750    2.0890   25.0030 N.2     1  UNL1       -0.2119
     21 C         -27.5430    0.8490   25.0790 C.2     1  UNL1        0.2341
     22 O         -28.1930   -0.2080   24.4770 O.2     1  UNL1       -0.4585
     23 C         -29.4600    0.0050   23.8660 C.3     1  UNL1        0.2423
     24 C         -30.0650   -1.3770   23.5730 C.3     1  UNL1        0.2292
     25 O         -30.7290   -1.8780   24.7210 O.3     1  UNL1       -0.2162
     26 C         -26.3540    0.5760   25.7770 C.3     1  UNL1        0.2403
     27 F         -25.8600   -0.6810   25.7950 F       1  UNL1       -0.2269
     28 O         -23.1180    2.0512   25.2493 O.2     1  UNL1       -0.3033
     29 O         -23.6233    1.0205   24.4951 O.3     1  UNL1        0.0284
     30 C         -25.4019    3.1713   31.1756 C.3     1  UNL1        0.0233
     31 F         -26.9470    4.9860   34.4025 F       1  UNL1       -0.1856
     32 C         -25.3208    1.8219   30.9893 C.3     1  UNL1        0.0938
     33 C         -23.7728    1.5362   27.5650 C.2     1  UNL1        0.0310
     34 C         -27.1887    3.6146   32.6573 C.3     1  UNL1        0.0864
     35 C         -21.4520    1.6617   26.9119 C.2     1  UNL1        0.0408
     36 C         -23.4671    1.4775   28.9503 C.2     1  UNL1        0.0643
     37 N         -24.6178    1.6222   29.7394 N.pl3   1  UNL1       -0.2395
     38 N         -25.9819    5.5641   32.5428 N.3     1  UNL1       -0.1623
     39 C         -24.8562    1.0219   27.3414 C.3     1  UNL1        0.0387
     40 C         -22.8154    1.8134   26.5670 C.2     1  UNL1        0.1831
     41 F         -28.1525    5.7471   32.8235 F       1  UNL1       -0.1856
     42 C         -25.6973    3.3639   32.6325 C.3     1  UNL1        0.0263
     43 C         -24.9334    4.6516   32.9093 C.3     1  UNL1        0.0943
     44 C         -22.1264    1.2685   29.2357 C.2     1  UNL1        0.0160
     45 C         -21.1311    1.3187   28.2259 C.2     1  UNL1        0.0045
     46 C         -27.0961    5.0237   33.0869 C.3     1  UNL1        0.3266
@<TRIPOS>BOND
     1     2     7    1
     2     2     1    1
     3     3     2    2
     4     4     3    1
     5     4     5    2
     6     5     6    1
     7     6     7    2
     8     8     1    1
     9     8     9    1
    10     8    12    1
    11     9    32    1
    12     9    10    1
    13    10    11    1
    14    12    11    1
    15    13    39    1
    16    14    13    1
    17    14    15    1
    18    15    18    2
    19    16    17    1
    20    16    15    1
    21    19    14    2
    22    20    21    2
    23    20    19    1
    24    21    26    1
    25    22    21    1
    26    23    22    1
    27    24    23    1
    28    24    25    1
    29    26    27    1
    30    26    13    1
    31    28    40    1
    32    29    28    1
    33    32    30    1
    34    33    36    1
    35    34    46    1
    36    35    45    2
    37    36    44    2
    38    36    37    1
    39    37    32    1
    40    38    43    1
    41    38    46    1
    42    39    33    1
    43    40    35    1
    44    40    33    2
    45    41    46    1
    46    42    30    1
    47    42    34    1
    48    42    43    1
    49    45    44    1
    50    46    31    1
