@<TRIPOS>MOLECULE
outputs/IAG933/test6/raw/output_5330_IAG933_linker_design_.xyz
 43 46 0 0 0
SMALL
GASTEIGER

@<TRIPOS>ATOM
      1 C         -24.8550   -1.0120   30.1430 C.3     1  UNL1        0.1532
      2 C         -24.9730   -2.5050   29.7880 C.2     1  UNL1        0.0059
      3 C         -23.9060   -3.1730   29.1460 C.2     1  UNL1       -0.0019
      4 C         -23.9890   -4.5490   28.8530 C.2     1  UNL1       -0.0002
      5 C         -25.1370   -5.2800   29.2050 C.2     1  UNL1       -0.0000
      6 C         -26.2320   -4.6110   29.7840 C.2     1  UNL1       -0.0002
      7 C         -26.1550   -3.2320   30.0650 C.2     1  UNL1       -0.0019
      8 C         -25.3870   -0.6790   31.5710 C.3     1  UNL1        0.1063
      9 C         -25.1890    0.7730   32.0280 C.3     1  UNL1        0.0452
     10 C         -25.3360    0.6840   33.5440 C.3     1  UNL1        0.0226
     11 C         -24.8290   -0.7150   33.9050 C.3     1  UNL1        0.0889
     12 N         -24.7580   -1.4810   32.6460 N.3     1  UNL1       -0.2166
     13 C         -25.6880    1.6140   26.4610 C.3     1  UNL1        0.0727
     14 C         -26.2500    2.9200   26.3950 C.2     1  UNL1        0.0549
     15 C         -25.6420    4.0930   27.1230 C.2     1  UNL1        0.2624
     16 N         -25.6140    5.2520   26.4490 N.am    1  UNL1       -0.2000
     17 C         -25.0260    6.4790   26.9630 C.3     1  UNL1        0.1388
     18 O         -25.1430    3.9660   28.2430 O.2     1  UNL1       -0.2687
     19 C         -27.4380    3.0910   25.6450 C.2     1  UNL1        0.1021
     20 N         -28.0750    2.0890   25.0030 N.2     1  UNL1       -0.2119
     21 C         -27.5430    0.8490   25.0790 C.2     1  UNL1        0.2341
     22 O         -28.1930   -0.2080   24.4770 O.2     1  UNL1       -0.4585
     23 C         -29.4600    0.0050   23.8660 C.3     1  UNL1        0.2423
     24 C         -30.0650   -1.3770   23.5730 C.3     1  UNL1        0.2292
     25 O         -30.7290   -1.8780   24.7210 O.3     1  UNL1       -0.2162
     26 C         -26.3540    0.5760   25.7770 C.3     1  UNL1        0.2401
     27 F         -25.8600   -0.6810   25.7950 F       1  UNL1       -0.2269
     28 C         -21.4295    1.6341   27.4183 C.3     1  UNL1        0.1447
     29 C         -22.2510    0.9398   28.4936 C.3     1  UNL1        0.0617
     30 O         -24.1949   -0.3176   29.0461 O.3     1  UNL1       -0.3527
     31 C         -23.4379    0.9540   29.1375 C.3     1  UNL1        0.1205
     32 C         -26.3266    2.1896   29.9968 C.3     1  UNL1        0.0300
     33 O         -27.9664   -0.6816   29.0720 O.3     1  UNL1       -0.2204
     34 C         -23.3241    1.7112   26.2583 C.3     1  UNL1        0.1426
     35 C         -25.2139    1.9606   31.0634 C.3     1  UNL1        0.0965
     36 C         -27.7152    1.2745   30.1414 C.3     1  UNL1        0.0380
     37 O         -22.0905    2.1322   26.3350 O.3     1  UNL1       -0.3537
     38 O         -25.3172    3.1953   31.8649 O.3     1  UNL1       -0.3584
     39 C         -25.0719    5.1190   33.3046 C.3     1  UNL1        0.0346
     40 C         -24.6761    4.2436   32.2584 C.3     1  UNL1        0.1420
     41 C         -24.3800    1.4291   26.5029 C.3     1  UNL1        0.0399
     42 C         -23.8051    1.9110   30.2161 C.3     1  UNL1        0.0569
     43 C         -27.6535    0.6168   28.7926 C.3     1  UNL1        0.1822
@<TRIPOS>BOND
     1     1     2    1
     2     1     8    1
     3     2     7    1
     4     3     2    2
     5     4     3    1
     6     4     5    2
     7     5     6    1
     8     6     7    2
     9     8     9    1
    10     8    12    1
    11     9    10    1
    12    10    11    1
    13    12    11    1
    14    13    41    1
    15    14    13    1
    16    14    15    1
    17    15    18    2
    18    16    17    1
    19    16    15    1
    20    19    14    2
    21    20    21    2
    22    20    19    1
    23    21    26    1
    24    22    21    1
    25    23    22    1
    26    24    23    1
    27    24    25    1
    28    26    27    1
    29    26    13    1
    30    28    29    1
    31    30    31    1
    32    30     1    1
    33    31    29    1
    34    31    42    1
    35    32    36    1
    36    34    37    1
    37    34    41    1
    38    35    32    1
    39    35    38    1
    40    35     9    1
    41    37    28    1
    42    38    40    1
    43    40    39    1
    44    42    35    1
    45    43    33    1
    46    43    36    1
