@<TRIPOS>MOLECULE
outputs/IAG933/test6/raw/output_5344_IAG933_linker_design_.xyz
 45 49 0 0 0
SMALL
GASTEIGER

@<TRIPOS>ATOM
      1 C         -24.8550   -1.0120   30.1430 C.3     1  UNL1        0.0545
      2 C         -24.9730   -2.5050   29.7880 C.2     1  UNL1       -0.0199
      3 C         -23.9060   -3.1730   29.1460 C.2     1  UNL1       -0.0042
      4 C         -23.9890   -4.5490   28.8530 C.2     1  UNL1       -0.0003
      5 C         -25.1370   -5.2800   29.2050 C.2     1  UNL1       -0.0000
      6 C         -26.2320   -4.6110   29.7840 C.2     1  UNL1       -0.0003
      7 C         -26.1550   -3.2320   30.0650 C.2     1  UNL1       -0.0042
      8 C         -25.3870   -0.6790   31.5710 C.3     1  UNL1        0.0781
      9 C         -25.1890    0.7730   32.0280 C.3     1  UNL1        0.0192
     10 C         -25.3360    0.6840   33.5440 C.3     1  UNL1        0.0202
     11 C         -24.8290   -0.7150   33.9050 C.3     1  UNL1        0.0887
     12 N         -24.7580   -1.4810   32.6460 N.3     1  UNL1       -0.2191
     13 C         -25.6880    1.6140   26.4610 C.2     1  UNL1        0.0379
     14 C         -26.2500    2.9200   26.3950 C.2     1  UNL1        0.0765
     15 C         -25.6420    4.0930   27.1230 C.2     1  UNL1        0.2664
     16 N         -25.6140    5.2520   26.4490 N.am    1  UNL1       -0.1997
     17 C         -25.0260    6.4790   26.9630 C.3     1  UNL1        0.1388
     18 O         -25.1430    3.9660   28.2430 O.2     1  UNL1       -0.2683
     19 C         -27.4380    3.0910   25.6450 C.2     1  UNL1        0.1067
     20 N         -28.0750    2.0890   25.0030 N.2     1  UNL1       -0.2081
     21 C         -27.5430    0.8490   25.0790 C.2     1  UNL1        0.2533
     22 O         -28.1930   -0.2080   24.4770 O.2     1  UNL1       -0.4558
     23 C         -29.4600    0.0050   23.8660 C.3     1  UNL1        0.2426
     24 C         -30.0650   -1.3770   23.5730 C.3     1  UNL1        0.2292
     25 O         -30.7290   -1.8780   24.7210 O.3     1  UNL1       -0.2162
     26 C         -26.3540    0.5760   25.7770 C.2     1  UNL1        0.1930
     27 F         -25.8600   -0.6810   25.7950 F       1  UNL1       -0.1992
     28 C         -26.0005    6.3396   31.1517 C.2     1  UNL1       -0.0002
     29 C         -26.9448    5.8531   30.2404 C.2     1  UNL1       -0.0018
     30 C         -26.5557    0.5851   29.1267 C.1     1  UNL1       -0.0579
     31 C         -21.9606    1.7430   27.4656 C.2     1  UNL1        0.1401
     32 C         -24.3749    1.3434   27.1462 C.2     1  UNL1        0.0017
     33 O         -28.0384    2.5878   29.4861 O.3     1  UNL1       -0.2791
     34 C         -25.6874    5.6501   32.3284 C.2     1  UNL1       -0.0000
     35 C         -27.5886    1.5363   29.2457 C.1     1  UNL1        0.0561
     36 C         -25.4434   -0.2582   28.9257 C.3     1  UNL1        0.0938
     37 C         -24.3278    0.4536   28.2927 C.2     1  UNL1       -0.0098
     38 C         -23.0303    0.2465   28.9046 C.2     1  UNL1       -0.0010
     39 C         -27.3397    3.9960   31.7330 C.2     1  UNL1       -0.0018
     40 C         -28.4755    3.9312   29.5081 C.3     1  UNL1        0.1870
     41 C         -23.1536    1.9719   26.7352 C.2     1  UNL1        0.0294
     42 F         -20.8270    2.3269   27.2709 F       1  UNL1       -0.2042
     43 C         -21.8459    0.8904   28.5422 C.2     1  UNL1        0.0293
     44 C         -26.3627    4.4672   32.6160 C.2     1  UNL1       -0.0002
     45 C         -27.5987    4.6459   30.5250 C.2     1  UNL1        0.0087
@<TRIPOS>BOND
     1     1    36    1
     2     2     7    1
     3     2     1    1
     4     3     2    2
     5     4     3    1
     6     4     5    2
     7     5     6    1
     8     6     7    2
     9     8     1    1
    10     8     9    1
    11     8    12    1
    12     9    10    1
    13    10    11    1
    14    12    11    1
    15    13    32    1
    16    14    13    1
    17    14    15    1
    18    15    18    2
    19    16    17    1
    20    16    15    1
    21    19    14    2
    22    20    21    2
    23    20    19    1
    24    21    26    1
    25    22    21    1
    26    23    22    1
    27    24    23    1
    28    24    25    1
    29    26    27    1
    30    26    13    2
    31    28    34    1
    32    29    45    1
    33    29    28    2
    34    30    35    3
    35    31    43    1
    36    32    37    2
    37    33    40    1
    38    34    44    2
    39    35    33    1
    40    36    30    1
    41    37    38    1
    42    37    36    1
    43    39    44    1
    44    40    45    1
    45    41    32    1
    46    41    31    2
    47    42    31    1
    48    43    38    2
    49    45    39    2
