@<TRIPOS>MOLECULE
outputs/IAG933/test6/raw/output_5345_IAG933_linker_design_.xyz
 39 43 0 0 0
SMALL
GASTEIGER

@<TRIPOS>ATOM
      1 C         -24.8550   -1.0120   30.1430 C.3     1  UNL1        0.0776
      2 C         -24.9730   -2.5050   29.7880 C.2     1  UNL1       -0.0156
      3 C         -23.9060   -3.1730   29.1460 C.2     1  UNL1       -0.0039
      4 C         -23.9890   -4.5490   28.8530 C.2     1  UNL1       -0.0003
      5 C         -25.1370   -5.2800   29.2050 C.2     1  UNL1       -0.0000
      6 C         -26.2320   -4.6110   29.7840 C.2     1  UNL1       -0.0003
      7 C         -26.1550   -3.2320   30.0650 C.2     1  UNL1       -0.0039
      8 C         -25.3870   -0.6790   31.5710 C.3     1  UNL1        0.0823
      9 C         -25.1890    0.7730   32.0280 C.3     1  UNL1        0.0196
     10 C         -25.3360    0.6840   33.5440 C.3     1  UNL1        0.0203
     11 C         -24.8290   -0.7150   33.9050 C.3     1  UNL1        0.0887
     12 N         -24.7580   -1.4810   32.6460 N.3     1  UNL1       -0.2187
     13 C         -25.6880    1.6140   26.4610 C.3     1  UNL1        0.1093
     14 C         -26.2500    2.9200   26.3950 C.2     1  UNL1        0.0604
     15 C         -25.6420    4.0930   27.1230 C.2     1  UNL1        0.2628
     16 N         -25.6140    5.2520   26.4490 N.am    1  UNL1       -0.2000
     17 C         -25.0260    6.4790   26.9630 C.3     1  UNL1        0.1388
     18 O         -25.1430    3.9660   28.2430 O.2     1  UNL1       -0.2686
     19 C         -27.4380    3.0910   25.6450 C.2     1  UNL1        0.1025
     20 N         -28.0750    2.0890   25.0030 N.2     1  UNL1       -0.2118
     21 C         -27.5430    0.8490   25.0790 C.2     1  UNL1        0.2345
     22 O         -28.1930   -0.2080   24.4770 O.2     1  UNL1       -0.4585
     23 C         -29.4600    0.0050   23.8660 C.3     1  UNL1        0.2423
     24 C         -30.0650   -1.3770   23.5730 C.3     1  UNL1        0.2292
     25 O         -30.7290   -1.8780   24.7210 O.3     1  UNL1       -0.2162
     26 C         -26.3540    0.5760   25.7770 C.3     1  UNL1        0.2455
     27 F         -25.8600   -0.6810   25.7950 F       1  UNL1       -0.2265
     28 C         -21.0249    1.0147   28.3593 C.2     1  UNL1        0.0009
     29 C         -22.0210    0.4864   29.1305 C.2     1  UNL1        0.0012
     30 C         -23.3471    0.5739   28.7403 C.ar    1  UNL1        0.0150
     31 C         -26.8170   -0.3592   28.4762 C.1     1  UNL1        0.1885
     32 C         -21.3036    1.6595   27.1639 C.2     1  UNL1        0.0114
     33 C         -24.6063   -0.1453   29.2446 C.ar    1  UNL1        0.0564
     34 C         -22.6222    1.7913   26.7130 C.2     1  UNL1        0.0588
     35 CL        -22.9669    2.3823   25.0956 Cl      1  UNL1       -0.0822
     36 C         -23.6462    1.2419   27.5487 C.ar    1  UNL1        0.0248
     37 N         -27.8916   -0.5978   28.7226 N.1     1  UNL1       -0.1709
     38 N         -25.5415    0.1140   28.3095 N.ar    1  UNL1       -0.2525
     39 C         -24.9614    1.0955   27.3286 C.ar    1  UNL1        0.0592
@<TRIPOS>BOND
     1     1    33    1
     2     2     7    1
     3     2     1    1
     4     3     2    2
     5     4     3    1
     6     4     5    2
     7     5     6    1
     8     6     7    2
     9     8     1    1
    10     8     9    1
    11     8    12    1
    12     9    10    1
    13    10    11    1
    14    12    11    1
    15    13    39    1
    16    14    13    1
    17    14    15    1
    18    15    18    2
    19    16    17    1
    20    16    15    1
    21    19    14    2
    22    20    21    2
    23    20    19    1
    24    21    26    1
    25    22    21    1
    26    23    22    1
    27    24    23    1
    28    24    25    1
    29    26    27    1
    30    26    13    1
    31    28    29    2
    32    30    29    1
    33    30    33   ar
    34    31    37    3
    35    32    28    1
    36    34    32    2
    37    34    36    1
    38    35    34    1
    39    36    30   ar
    40    38    31    1
    41    38    33   ar
    42    39    36   ar
    43    39    38   ar
