@<TRIPOS>MOLECULE
outputs/IAG933/test6/raw/output_5346_IAG933_linker_design_.xyz
 42 46 0 0 0
SMALL
GASTEIGER

@<TRIPOS>ATOM
      1 C         -24.8550   -1.0120   30.1430 C.3     1  UNL1        0.1570
      2 C         -24.9730   -2.5050   29.7880 C.2     1  UNL1        0.0060
      3 C         -23.9060   -3.1730   29.1460 C.2     1  UNL1       -0.0019
      4 C         -23.9890   -4.5490   28.8530 C.2     1  UNL1       -0.0002
      5 C         -25.1370   -5.2800   29.2050 C.2     1  UNL1       -0.0000
      6 C         -26.2320   -4.6110   29.7840 C.2     1  UNL1       -0.0002
      7 C         -26.1550   -3.2320   30.0650 C.2     1  UNL1       -0.0019
      8 C         -25.3870   -0.6790   31.5710 C.3     1  UNL1        0.1042
      9 C         -25.1890    0.7730   32.0280 C.3     1  UNL1        0.0217
     10 C         -25.3360    0.6840   33.5440 C.3     1  UNL1        0.0203
     11 C         -24.8290   -0.7150   33.9050 C.3     1  UNL1        0.0888
     12 N         -24.7580   -1.4810   32.6460 N.3     1  UNL1       -0.2166
     13 C         -25.6880    1.6140   26.4610 C.2     1  UNL1        0.0225
     14 C         -26.2500    2.9200   26.3950 C.2     1  UNL1        0.0707
     15 C         -25.6420    4.0930   27.1230 C.2     1  UNL1        0.2242
     16 N         -25.6140    5.2520   26.4490 N.2     1  UNL1       -0.2356
     17 C         -25.0260    6.4790   26.9630 C.3     1  UNL1        0.1550
     18 O         -25.1430    3.9660   28.2430 O.2     1  UNL1       -0.4280
     19 C         -27.4380    3.0910   25.6450 C.2     1  UNL1        0.1065
     20 N         -28.0750    2.0890   25.0030 N.2     1  UNL1       -0.2081
     21 C         -27.5430    0.8490   25.0790 C.2     1  UNL1        0.2530
     22 O         -28.1930   -0.2080   24.4770 O.2     1  UNL1       -0.4558
     23 C         -29.4600    0.0050   23.8660 C.3     1  UNL1        0.2426
     24 C         -30.0650   -1.3770   23.5730 C.3     1  UNL1        0.2292
     25 O         -30.7290   -1.8780   24.7210 O.3     1  UNL1       -0.2162
     26 C         -26.3540    0.5760   25.7770 C.2     1  UNL1        0.1893
     27 F         -25.8600   -0.6810   25.7950 F       1  UNL1       -0.1996
     28 C         -22.2747    1.3199   27.7974 C.3     1  UNL1        0.2488
     29 C         -25.4246    3.0831   29.2880 C.3     1  UNL1        0.3993
     30 O         -27.3301    3.6346   30.6398 O.co2   1  UNL1       -0.2386
     31 O         -25.4216    4.5926   31.0159 O.co2   1  UNL1       -0.2386
     32 F         -21.1438    1.8280   27.8718 F       1  UNL1       -0.2170
     33 O         -25.1822   -0.1257   29.1000 O.3     1  UNL1       -0.3176
     34 C         -24.5861    1.2803   27.2766 C.3     1  UNL1        0.1077
     35 F         -23.7687    0.8631   24.4690 F       1  UNL1       -0.1635
     36 C         -26.1461    3.8695   30.3690 C.2     1  UNL1        0.4346
     37 C         -24.3982    0.9458   28.7599 C.3     1  UNL1        0.2652
     38 O         -22.1477    2.2281   25.0033 O.2     1  UNL1       -0.2590
     39 N         -22.9428    0.7428   28.8836 N.3     1  UNL1       -0.1372
     40 C         -23.0760    1.5697   25.3586 C.2     1  UNL1        0.3148
     41 C         -23.2578    1.4555   26.7558 C.3     1  UNL1        0.1511
     42 O         -24.6365    2.0700   29.5074 O.3     1  UNL1       -0.2768
@<TRIPOS>BOND
     1     1    33    1
     2     2     7    1
     3     2     1    1
     4     3     2    2
     5     4     3    1
     6     4     5    2
     7     5     6    1
     8     6     7    2
     9     8     1    1
    10     8     9    1
    11     8    12    1
    12     9    10    1
    13    10    11    1
    14    12    11    1
    15    14    13    1
    16    14    15    1
    17    15    18    1
    18    16    17    1
    19    16    15    2
    20    18    29    1
    21    19    14    2
    22    20    21    2
    23    20    19    1
    24    21    26    1
    25    22    21    1
    26    23    22    1
    27    24    23    1
    28    24    25    1
    29    26    27    1
    30    26    13    2
    31    28    32    1
    32    28    39    1
    33    29    42    1
    34    29    36    1
    35    34    13    1
    36    34    37    1
    37    35    40    1
    38    36    30   ar
    39    36    31   ar
    40    37    39    1
    41    37    33    1
    42    37    42    1
    43    38    40    2
    44    41    40    1
    45    41    34    1
    46    41    28    1
