@<TRIPOS>MOLECULE
outputs/IAG933/test6/raw/output_5348_IAG933_linker_design_.xyz
 45 48 0 0 0
SMALL
GASTEIGER

@<TRIPOS>ATOM
      1 C         -24.8550   -1.0120   30.1430 C.3     1  UNL1        0.0438
      2 C         -24.9730   -2.5050   29.7880 C.2     1  UNL1       -0.0208
      3 C         -23.9060   -3.1730   29.1460 C.2     1  UNL1       -0.0042
      4 C         -23.9890   -4.5490   28.8530 C.2     1  UNL1       -0.0003
      5 C         -25.1370   -5.2800   29.2050 C.2     1  UNL1       -0.0000
      6 C         -26.2320   -4.6110   29.7840 C.2     1  UNL1       -0.0003
      7 C         -26.1550   -3.2320   30.0650 C.2     1  UNL1       -0.0042
      8 C         -25.3870   -0.6790   31.5710 C.3     1  UNL1        0.0787
      9 C         -25.1890    0.7730   32.0280 C.3     1  UNL1        0.0363
     10 C         -25.3360    0.6840   33.5440 C.3     1  UNL1        0.0219
     11 C         -24.8290   -0.7150   33.9050 C.3     1  UNL1        0.0888
     12 N         -24.7580   -1.4810   32.6460 N.3     1  UNL1       -0.2191
     13 C         -25.6880    1.6140   26.4610 C.2     1  UNL1        0.0864
     14 C         -26.2500    2.9200   26.3950 C.2     1  UNL1        0.0899
     15 C         -25.6420    4.0930   27.1230 C.2     1  UNL1        0.2676
     16 N         -25.6140    5.2520   26.4490 N.am    1  UNL1       -0.1997
     17 C         -25.0260    6.4790   26.9630 C.3     1  UNL1        0.1388
     18 O         -25.1430    3.9660   28.2430 O.2     1  UNL1       -0.2683
     19 C         -27.4380    3.0910   25.6450 C.2     1  UNL1        0.1080
     20 N         -28.0750    2.0890   25.0030 N.2     1  UNL1       -0.2080
     21 C         -27.5430    0.8490   25.0790 C.2     1  UNL1        0.2546
     22 O         -28.1930   -0.2080   24.4770 O.2     1  UNL1       -0.4558
     23 C         -29.4600    0.0050   23.8660 C.3     1  UNL1        0.2426
     24 C         -30.0650   -1.3770   23.5730 C.3     1  UNL1        0.2292
     25 O         -30.7290   -1.8780   24.7210 O.3     1  UNL1       -0.2162
     26 C         -26.3540    0.5760   25.7770 C.2     1  UNL1        0.2062
     27 F         -25.8600   -0.6810   25.7950 F       1  UNL1       -0.1979
     28 C         -24.7069    5.3755   33.2460 C.3     1  UNL1        0.0868
     29 C         -27.6501    1.1682   30.3060 C.3     1  UNL1        0.0018
     30 C         -25.3805    4.0702   32.8252 C.2     1  UNL1        0.2413
     31 C         -24.6987    1.3298   28.6747 C.3     1  UNL1        0.0927
     32 O         -26.4550    3.7381   33.4972 O.2     1  UNL1       -0.2733
     33 N         -21.8286    0.0299   29.1211 N.2     1  UNL1       -0.1082
     34 C         -23.4927    1.4388   26.5812 C.3     1  UNL1        0.1556
     35 C         -26.7349    2.2622   30.7185 C.3     1  UNL1        0.0201
     36 O         -21.8606    2.3027   25.3302 O.3     1  UNL1       -0.2184
     37 N         -24.9055    3.4293   31.7387 N.am    1  UNL1       -0.2087
     38 C         -21.7798    1.0031   28.3532 C.2     1  UNL1        0.2626
     39 O         -21.0192    1.5262   27.4051 O.2     1  UNL1       -0.4521
     40 N         -24.6333    1.4806   27.1906 N.pl3   1  UNL1       -0.3011
     41 C         -24.1134    2.1282   29.8968 C.3     1  UNL1        0.0415
     42 C         -22.5420    1.9866   27.7465 C.3     1  UNL1        0.2641
     43 C         -25.2159    2.1161   31.1417 C.3     1  UNL1        0.0816
     44 C         -23.2323    2.4317   25.4366 C.3     1  UNL1        0.2059
     45 C         -24.6422    6.3338   32.0603 C.3     1  UNL1        0.0101
@<TRIPOS>BOND
     1     2     7    1
     2     2     1    1
     3     3     2    2
     4     4     3    1
     5     4     5    2
     6     5     6    1
     7     6     7    2
     8     8     1    1
     9     8     9    1
    10     8    12    1
    11     9    43    1
    12     9    10    1
    13    10    11    1
    14    12    11    1
    15    13    40    1
    16    14    13    1
    17    14    15    1
    18    15    18    2
    19    16    17    1
    20    16    15    1
    21    19    14    2
    22    20    21    2
    23    20    19    1
    24    21    26    1
    25    22    21    1
    26    23    22    1
    27    24    23    1
    28    24    25    1
    29    26    27    1
    30    26    13    2
    31    29    35    1
    32    30    28    1
    33    30    32    2
    34    31    41    1
    35    34    44    1
    36    34    40    1
    37    35    43    1
    38    36    44    1
    39    37    30    1
    40    38    33    2
    41    39    42    1
    42    39    38    1
    43    40    31    1
    44    42    34    1
    45    42    38    1
    46    43    41    1
    47    43    37    1
    48    45    28    1
