@<TRIPOS>MOLECULE
outputs/IAG933/test6/raw/output_5349_IAG933_linker_design_.xyz
 42 46 0 0 0
SMALL
GASTEIGER

@<TRIPOS>ATOM
      1 C         -24.8550   -1.0120   30.1430 C.3     1  UNL1        0.0966
      2 C         -24.9730   -2.5050   29.7880 C.2     1  UNL1       -0.0064
      3 C         -23.9060   -3.1730   29.1460 C.2     1  UNL1       -0.0029
      4 C         -23.9890   -4.5490   28.8530 C.2     1  UNL1       -0.0003
      5 C         -25.1370   -5.2800   29.2050 C.2     1  UNL1       -0.0000
      6 C         -26.2320   -4.6110   29.7840 C.2     1  UNL1       -0.0003
      7 C         -26.1550   -3.2320   30.0650 C.2     1  UNL1       -0.0029
      8 C         -25.3870   -0.6790   31.5710 C.3     1  UNL1        0.0916
      9 C         -25.1890    0.7730   32.0280 C.3     1  UNL1        0.0206
     10 C         -25.3360    0.6840   33.5440 C.3     1  UNL1        0.0203
     11 C         -24.8290   -0.7150   33.9050 C.3     1  UNL1        0.0888
     12 N         -24.7580   -1.4810   32.6460 N.3     1  UNL1       -0.2178
     13 C         -25.6880    1.6140   26.4610 C.2     1  UNL1        0.0174
     14 C         -26.2500    2.9200   26.3950 C.2     1  UNL1        0.0726
     15 C         -25.6420    4.0930   27.1230 C.2     1  UNL1        0.2661
     16 N         -25.6140    5.2520   26.4490 N.am    1  UNL1       -0.1997
     17 C         -25.0260    6.4790   26.9630 C.3     1  UNL1        0.1388
     18 O         -25.1430    3.9660   28.2430 O.2     1  UNL1       -0.2683
     19 C         -27.4380    3.0910   25.6450 C.2     1  UNL1        0.1064
     20 N         -28.0750    2.0890   25.0030 N.2     1  UNL1       -0.2081
     21 C         -27.5430    0.8490   25.0790 C.2     1  UNL1        0.2530
     22 O         -28.1930   -0.2080   24.4770 O.2     1  UNL1       -0.4558
     23 C         -29.4600    0.0050   23.8660 C.3     1  UNL1        0.2426
     24 C         -30.0650   -1.3770   23.5730 C.3     1  UNL1        0.2292
     25 O         -30.7290   -1.8780   24.7210 O.3     1  UNL1       -0.2162
     26 C         -26.3540    0.5760   25.7770 C.2     1  UNL1        0.1892
     27 F         -25.8600   -0.6810   25.7950 F       1  UNL1       -0.1996
     28 N         -27.1017    1.8501   29.0763 N.am    1  UNL1       -0.2028
     29 C         -27.4510    4.9014   31.1479 C.3     1  UNL1        0.0897
     30 C         -25.0744    0.6553   28.4388 C.3     1  UNL1        0.1408
     31 C         -28.3597    2.4302   29.4344 C.3     1  UNL1        0.1325
     32 C         -21.3359    1.5410   27.4264 C.3     1  UNL1        0.0018
     33 N         -27.6478    4.8722   29.6634 N.3     1  UNL1       -0.2688
     34 C         -22.7894    0.2274   29.4787 C.3     1  UNL1        0.0727
     35 C         -28.2241    6.1773   29.2367 C.3     1  UNL1        0.0897
     36 C         -24.3623    1.3224   27.1270 C.3     1  UNL1        0.0485
     37 C         -28.4470    3.9009   29.1288 C.3     1  UNL1        0.0959
     38 O         -27.2322   -0.3877   28.5889 O.2     1  UNL1       -0.2719
     39 C         -26.6010    0.6165   28.6888 C.2     1  UNL1        0.2562
     40 C         -22.2587    0.5916   28.2953 C.3     1  UNL1        0.0164
     41 N         -24.1735   -0.1717   29.2646 N.3     1  UNL1       -0.2627
     42 C         -22.8915    1.7911   27.5681 C.3     1  UNL1        0.0073
@<TRIPOS>BOND
     1     1     2    1
     2     2     7    1
     3     3     2    2
     4     4     3    1
     5     4     5    2
     6     5     6    1
     7     6     7    2
     8     8     1    1
     9     8     9    1
    10     8    12    1
    11     9    10    1
    12    10    11    1
    13    12    11    1
    14    14    13    1
    15    14    15    1
    16    15    18    2
    17    16    17    1
    18    16    15    1
    19    19    14    2
    20    20    21    2
    21    20    19    1
    22    21    26    1
    23    22    21    1
    24    23    22    1
    25    24    23    1
    26    24    25    1
    27    26    27    1
    28    26    13    2
    29    28    31    1
    30    30    39    1
    31    30    41    1
    32    33    29    1
    33    35    33    1
    34    36    13    1
    35    36    42    1
    36    36    30    1
    37    37    31    1
    38    37    33    1
    39    38    39    2
    40    39    28    1
    41    40    32    1
    42    40    34    1
    43    41    34    1
    44    41     1    1
    45    42    32    1
    46    42    40    1
