@<TRIPOS>MOLECULE
outputs/IAG933/test6/raw/output_535_IAG933_linker_design_.xyz
 47 52 0 0 0
SMALL
GASTEIGER

@<TRIPOS>ATOM
      1 C         -24.8550   -1.0120   30.1430 C.3     1  UNL1        0.0820
      2 C         -24.9730   -2.5050   29.7880 C.2     1  UNL1       -0.0175
      3 C         -23.9060   -3.1730   29.1460 C.2     1  UNL1       -0.0041
      4 C         -23.9890   -4.5490   28.8530 C.2     1  UNL1       -0.0003
      5 C         -25.1370   -5.2800   29.2050 C.2     1  UNL1       -0.0000
      6 C         -26.2320   -4.6110   29.7840 C.2     1  UNL1       -0.0003
      7 C         -26.1550   -3.2320   30.0650 C.2     1  UNL1       -0.0041
      8 C         -25.3870   -0.6790   31.5710 C.3     1  UNL1        0.0807
      9 C         -25.1890    0.7730   32.0280 C.3     1  UNL1        0.0220
     10 C         -25.3360    0.6840   33.5440 C.3     1  UNL1        0.0205
     11 C         -24.8290   -0.7150   33.9050 C.3     1  UNL1        0.0887
     12 N         -24.7580   -1.4810   32.6460 N.3     1  UNL1       -0.2190
     13 C         -25.6880    1.6140   26.4610 C.3     1  UNL1        0.0953
     14 C         -26.2500    2.9200   26.3950 C.2     1  UNL1        0.0590
     15 C         -25.6420    4.0930   27.1230 C.2     1  UNL1        0.2628
     16 N         -25.6140    5.2520   26.4490 N.am    1  UNL1       -0.2000
     17 C         -25.0260    6.4790   26.9630 C.3     1  UNL1        0.1388
     18 O         -25.1430    3.9660   28.2430 O.2     1  UNL1       -0.2686
     19 C         -27.4380    3.0910   25.6450 C.2     1  UNL1        0.1025
     20 N         -28.0750    2.0890   25.0030 N.2     1  UNL1       -0.2118
     21 C         -27.5430    0.8490   25.0790 C.2     1  UNL1        0.2344
     22 O         -28.1930   -0.2080   24.4770 O.2     1  UNL1       -0.4585
     23 C         -29.4600    0.0050   23.8660 C.3     1  UNL1        0.2423
     24 C         -30.0650   -1.3770   23.5730 C.3     1  UNL1        0.2292
     25 O         -30.7290   -1.8780   24.7210 O.3     1  UNL1       -0.2162
     26 C         -26.3540    0.5760   25.7770 C.3     1  UNL1        0.2441
     27 F         -25.8600   -0.6810   25.7950 F       1  UNL1       -0.2265
     28 C         -25.0272    2.0655   31.1861 C.3     1  UNL1        0.0263
     29 C         -27.5143    4.7415   32.2561 C.2     1  UNL1        0.1272
     30 C         -23.2392    1.8632   26.0819 C.2     1  UNL1       -0.0009
     31 N         -28.8070    5.0989   32.0625 N.pl3   1  UNL1       -0.1247
     32 C         -21.7388    1.5070   27.9060 C.2     1  UNL1        0.0031
     33 C         -24.5265    6.4815   33.2355 C.2     1  UNL1        0.2359
     34 C         -22.8026    1.1400   28.7383 C.2     1  UNL1        0.0366
     35 C         -27.0424    3.5103   31.8436 C.2     1  UNL1        0.0156
     36 C         -24.3335    1.5466   26.9073 C.2     1  UNL1        0.0189
     37 O         -26.8156    7.0305   32.9312 O.2     1  UNL1       -0.2852
     38 O         -23.4522    3.7871   32.5715 O.3     1  UNL1       -0.2135
     39 C         -24.7118    4.1047   32.4119 C.3     1  UNL1        0.1990
     40 C         -24.0807    1.1779   28.2063 C.2     1  UNL1        0.1349
     41 C         -25.6691    3.2376   31.8783 C.2     1  UNL1       -0.0086
     42 C         -25.8955   -0.3332   29.2408 C.3     1  UNL1        0.2110
     43 C         -25.2094    5.3457   32.8118 C.2     1  UNL1        0.0940
     44 C         -21.9498    1.8820   26.5973 C.2     1  UNL1       -0.0001
     45 O         -25.4990    7.4289   33.3718 O.2     1  UNL1       -0.2833
     46 C         -26.6349    5.7213   32.7043 C.2     1  UNL1        0.2141
     47 O         -25.2817    0.8898   28.8145 O.2     1  UNL1       -0.4754
@<TRIPOS>BOND
     1     1    42    1
     2     2     7    1
     3     2     1    1
     4     3     2    2
     5     4     3    1
     6     4     5    2
     7     5     6    1
     8     6     7    2
     9     8     1    1
    10     8     9    1
    11     8    12    1
    12     9    28    1
    13     9    10    1
    14    10    11    1
    15    12    11    1
    16    13    36    1
    17    14    13    1
    18    14    15    1
    19    15    18    2
    20    16    17    1
    21    16    15    1
    22    19    14    2
    23    20    21    2
    24    20    19    1
    25    21    26    1
    26    22    21    1
    27    23    22    1
    28    24    23    1
    29    24    25    1
    30    26    27    1
    31    26    13    1
    32    28    41    1
    33    29    46    2
    34    30    44    2
    35    30    36    1
    36    31    29    1
    37    32    34    2
    38    33    45    1
    39    35    41    2
    40    35    29    1
    41    36    40    2
    42    37    45    1
    43    39    38    1
    44    39    43    1
    45    40    34    1
    46    40    47    1
    47    41    39    1
    48    43    33    2
    49    44    32    1
    50    46    43    1
    51    46    37    1
    52    47    42    1
