@<TRIPOS>MOLECULE
outputs/IAG933/test6/raw/output_5352_IAG933_linker_design_.xyz
 43 47 0 0 0
SMALL
GASTEIGER

@<TRIPOS>ATOM
      1 C         -24.8550   -1.0120   30.1430 C.3     1  UNL1        0.0385
      2 C         -24.9730   -2.5050   29.7880 C.2     1  UNL1       -0.0211
      3 C         -23.9060   -3.1730   29.1460 C.2     1  UNL1       -0.0042
      4 C         -23.9890   -4.5490   28.8530 C.2     1  UNL1       -0.0003
      5 C         -25.1370   -5.2800   29.2050 C.2     1  UNL1       -0.0000
      6 C         -26.2320   -4.6110   29.7840 C.2     1  UNL1       -0.0003
      7 C         -26.1550   -3.2320   30.0650 C.2     1  UNL1       -0.0042
      8 C         -25.3870   -0.6790   31.5710 C.3     1  UNL1        0.0768
      9 C         -25.1890    0.7730   32.0280 C.3     1  UNL1        0.0192
     10 C         -25.3360    0.6840   33.5440 C.3     1  UNL1        0.0202
     11 C         -24.8290   -0.7150   33.9050 C.3     1  UNL1        0.0887
     12 N         -24.7580   -1.4810   32.6460 N.3     1  UNL1       -0.2191
     13 C         -25.6880    1.6140   26.4610 C.2     1  UNL1        0.0544
     14 C         -26.2500    2.9200   26.3950 C.2     1  UNL1        0.0761
     15 C         -25.6420    4.0930   27.1230 C.2     1  UNL1        0.2662
     16 N         -25.6140    5.2520   26.4490 N.am    1  UNL1       -0.1997
     17 C         -25.0260    6.4790   26.9630 C.3     1  UNL1        0.1388
     18 O         -25.1430    3.9660   28.2430 O.2     1  UNL1       -0.2683
     19 C         -27.4380    3.0910   25.6450 C.2     1  UNL1        0.1065
     20 N         -28.0750    2.0890   25.0030 N.2     1  UNL1       -0.2081
     21 C         -27.5430    0.8490   25.0790 C.2     1  UNL1        0.2531
     22 O         -28.1930   -0.2080   24.4770 O.2     1  UNL1       -0.4558
     23 C         -29.4600    0.0050   23.8660 C.3     1  UNL1        0.2426
     24 C         -30.0650   -1.3770   23.5730 C.3     1  UNL1        0.2292
     25 O         -30.7290   -1.8780   24.7210 O.3     1  UNL1       -0.2162
     26 C         -26.3540    0.5760   25.7770 C.2     1  UNL1        0.1926
     27 F         -25.8600   -0.6810   25.7950 F       1  UNL1       -0.1994
     28 C         -27.1536    3.9384   31.3570 C.3     1  UNL1        0.0321
     29 C         -23.1126    2.2177   25.2083 C.3     1  UNL1        0.1759
     30 O         -23.6012    1.0681   25.9080 O.3     1  UNL1       -0.3383
     31 O         -29.2220    2.9527   30.6664 O.3     1  UNL1       -0.3538
     32 C         -24.4072    0.0489   29.1115 C.3     1  UNL1        0.0108
     33 N         -23.1711    2.0138   27.9721 N.3     1  UNL1       -0.2491
     34 C         -26.3332    1.8768   29.9517 C.3     1  UNL1        0.0039
     35 C         -28.8489    1.8666   29.7129 C.3     1  UNL1        0.1422
     36 C         -21.6814    1.6515   27.7115 C.3     1  UNL1        0.0918
     37 C         -28.4650    4.2106   30.6935 C.3     1  UNL1        0.1422
     38 C         -24.2787    1.1874   27.0637 C.3     1  UNL1        0.1625
     39 C         -27.5399    0.9152   29.9736 C.3     1  UNL1        0.0321
     40 C         -24.3826   -0.0224   27.7993 C.3     1  UNL1        0.0480
     41 C         -23.4196    1.9316   29.4161 C.3     1  UNL1        0.0744
     42 C         -26.2794    2.8795   30.7164 C.3     1  UNL1        0.0027
     43 C         -24.9006    1.5622   29.4780 C.3     1  UNL1        0.0166
@<TRIPOS>BOND
     1     1     2    1
     2     2     7    1
     3     3     2    2
     4     4     3    1
     5     4     5    2
     6     5     6    1
     7     6     7    2
     8     8     1    1
     9     8     9    1
    10     8    12    1
    11     9    10    1
    12    10    11    1
    13    12    11    1
    14    13    38    1
    15    14    13    1
    16    14    15    1
    17    15    18    2
    18    16    17    1
    19    16    15    1
    20    19    14    2
    21    20    21    2
    22    20    19    1
    23    21    26    1
    24    22    21    1
    25    23    22    1
    26    24    23    1
    27    24    25    1
    28    26    27    1
    29    26    13    2
    30    29    30    1
    31    31    37    1
    32    32    43    1
    33    32     1    1
    34    33    41    1
    35    34    39    1
    36    34    42    1
    37    35    39    1
    38    35    31    1
    39    36    33    1
    40    37    28    1
    41    38    30    1
    42    38    40    1
    43    38    33    1
    44    40    32    1
    45    42    28    1
    46    43    41    1
    47    43    34    1
