@<TRIPOS>MOLECULE
outputs/IAG933/test6/raw/output_5357_IAG933_linker_design_.xyz
 44 48 0 0 0
SMALL
GASTEIGER

@<TRIPOS>ATOM
      1 C         -24.8550   -1.0120   30.1430 C.3     1  UNL1        0.1983
      2 C         -24.9730   -2.5050   29.7880 C.2     1  UNL1        0.0213
      3 C         -23.9060   -3.1730   29.1460 C.2     1  UNL1       -0.0004
      4 C         -23.9890   -4.5490   28.8530 C.2     1  UNL1       -0.0002
      5 C         -25.1370   -5.2800   29.2050 C.2     1  UNL1       -0.0000
      6 C         -26.2320   -4.6110   29.7840 C.2     1  UNL1       -0.0002
      7 C         -26.1550   -3.2320   30.0650 C.2     1  UNL1       -0.0004
      8 C         -25.3870   -0.6790   31.5710 C.3     1  UNL1        0.1197
      9 C         -25.1890    0.7730   32.0280 C.3     1  UNL1        0.0233
     10 C         -25.3360    0.6840   33.5440 C.3     1  UNL1        0.0204
     11 C         -24.8290   -0.7150   33.9050 C.3     1  UNL1        0.0889
     12 N         -24.7580   -1.4810   32.6460 N.3     1  UNL1       -0.2150
     13 C         -25.6880    1.6140   26.4610 C.2     1  UNL1        0.0461
     14 C         -26.2500    2.9200   26.3950 C.2     1  UNL1        0.0768
     15 C         -25.6420    4.0930   27.1230 C.2     1  UNL1        0.2664
     16 N         -25.6140    5.2520   26.4490 N.am    1  UNL1       -0.1997
     17 C         -25.0260    6.4790   26.9630 C.3     1  UNL1        0.1388
     18 O         -25.1430    3.9660   28.2430 O.2     1  UNL1       -0.2683
     19 C         -27.4380    3.0910   25.6450 C.2     1  UNL1        0.1067
     20 N         -28.0750    2.0890   25.0030 N.2     1  UNL1       -0.2081
     21 C         -27.5430    0.8490   25.0790 C.2     1  UNL1        0.2533
     22 O         -28.1930   -0.2080   24.4770 O.2     1  UNL1       -0.4558
     23 C         -29.4600    0.0050   23.8660 C.3     1  UNL1        0.2426
     24 C         -30.0650   -1.3770   23.5730 C.3     1  UNL1        0.2292
     25 O         -30.7290   -1.8780   24.7210 O.3     1  UNL1       -0.2162
     26 C         -26.3540    0.5760   25.7770 C.2     1  UNL1        0.1933
     27 F         -25.8600   -0.6810   25.7950 F       1  UNL1       -0.1992
     28 O         -30.0044    0.3030   27.6191 O.3     1  UNL1       -0.1890
     29 O         -29.4216    2.3396   30.4010 O.3     1  UNL1       -0.3535
     30 C         -29.4847    0.3137   29.6635 C.3     1  UNL1        0.0692
     31 C         -29.6822   -0.6547   28.5274 C.3     1  UNL1        0.1879
     32 C         -22.2252    1.1387   27.9074 C.2     1  UNL1        0.3860
     33 O         -20.9941    1.2111   27.8734 O.2     1  UNL1       -0.2367
     34 C         -30.3110    1.4286   29.9266 C.3     1  UNL1        0.1449
     35 C         -23.1007    1.5534   26.8346 C.2     1  UNL1        0.1464
     36 CL        -22.6084    2.1972   25.2736 Cl      1  UNL1       -0.0747
     37 C         -26.8976   -0.0377   29.0621 C.3     1  UNL1        0.2049
     38 C         -28.1279    1.9351   30.3454 C.3     1  UNL1        0.1464
     39 O         -31.4069   -0.0844   27.1960 O.3     1  UNL1       -0.0346
     40 C         -24.3539    0.5733   28.5237 C.2     1  UNL1        0.3191
     41 C         -24.4489    1.2654   27.2534 C.2     1  UNL1        0.1002
     42 N         -25.3840   -0.0763   29.1804 N.pl3   1  UNL1       -0.1905
     43 C         -28.0879    0.7399   29.7280 C.3     1  UNL1        0.0814
     44 N         -23.0015    0.5886   28.9446 N.am    1  UNL1        0.0312
@<TRIPOS>BOND
     1     1    42    1
     2     2     7    1
     3     2     1    1
     4     3     2    2
     5     4     3    1
     6     4     5    2
     7     5     6    1
     8     6     7    2
     9     8     1    1
    10     8     9    1
    11     8    12    1
    12     9    10    1
    13    10    11    1
    14    12    11    1
    15    13    41    1
    16    14    13    1
    17    14    15    1
    18    15    18    2
    19    16    17    1
    20    16    15    1
    21    19    14    2
    22    20    21    2
    23    20    19    1
    24    21    26    1
    25    22    21    1
    26    23    22    1
    27    24    23    1
    28    24    25    1
    29    26    27    1
    30    26    13    2
    31    28    31    1
    32    30    31    1
    33    30    43    1
    34    30    34    1
    35    32    44    1
    36    33    32    2
    37    34    29    1
    38    35    41    2
    39    35    32    1
    40    36    35    1
    41    37    42    1
    42    38    29    1
    43    39    28    1
    44    40    44    2
    45    40    42    1
    46    41    40    1
    47    43    37    1
    48    43    38    1
