@<TRIPOS>MOLECULE
outputs/IAG933/test6/raw/output_536_IAG933_linker_design_.xyz
 45 49 0 0 0
SMALL
GASTEIGER

@<TRIPOS>ATOM
      1 C         -24.8550   -1.0120   30.1430 C.3     1  UNL1        0.0543
      2 C         -24.9730   -2.5050   29.7880 C.2     1  UNL1       -0.0198
      3 C         -23.9060   -3.1730   29.1460 C.2     1  UNL1       -0.0042
      4 C         -23.9890   -4.5490   28.8530 C.2     1  UNL1       -0.0003
      5 C         -25.1370   -5.2800   29.2050 C.2     1  UNL1       -0.0000
      6 C         -26.2320   -4.6110   29.7840 C.2     1  UNL1       -0.0003
      7 C         -26.1550   -3.2320   30.0650 C.2     1  UNL1       -0.0042
      8 C         -25.3870   -0.6790   31.5710 C.3     1  UNL1        0.0782
      9 C         -25.1890    0.7730   32.0280 C.3     1  UNL1        0.0192
     10 C         -25.3360    0.6840   33.5440 C.3     1  UNL1        0.0202
     11 C         -24.8290   -0.7150   33.9050 C.3     1  UNL1        0.0887
     12 N         -24.7580   -1.4810   32.6460 N.3     1  UNL1       -0.2191
     13 C         -25.6880    1.6140   26.4610 C.2     1  UNL1        0.0328
     14 C         -26.2500    2.9200   26.3950 C.2     1  UNL1        0.0739
     15 C         -25.6420    4.0930   27.1230 C.2     1  UNL1        0.2662
     16 N         -25.6140    5.2520   26.4490 N.am    1  UNL1       -0.1997
     17 C         -25.0260    6.4790   26.9630 C.3     1  UNL1        0.1388
     18 O         -25.1430    3.9660   28.2430 O.2     1  UNL1       -0.2683
     19 C         -27.4380    3.0910   25.6450 C.2     1  UNL1        0.1065
     20 N         -28.0750    2.0890   25.0030 N.2     1  UNL1       -0.2081
     21 C         -27.5430    0.8490   25.0790 C.2     1  UNL1        0.2530
     22 O         -28.1930   -0.2080   24.4770 O.2     1  UNL1       -0.4558
     23 C         -29.4600    0.0050   23.8660 C.3     1  UNL1        0.2426
     24 C         -30.0650   -1.3770   23.5730 C.3     1  UNL1        0.2292
     25 O         -30.7290   -1.8780   24.7210 O.3     1  UNL1       -0.2162
     26 C         -26.3540    0.5760   25.7770 C.2     1  UNL1        0.1905
     27 F         -25.8600   -0.6810   25.7950 F       1  UNL1       -0.1995
     28 C         -29.1891    0.4765   29.3192 C.3     1  UNL1        0.0070
     29 O         -30.4615   -0.9220   26.9631 O.2     1  UNL1       -0.2961
     30 C         -22.1667    1.2147   27.8720 C.3     1  UNL1        0.0180
     31 N         -24.6951    0.1605   28.0915 N.3     1  UNL1       -0.2148
     32 C         -30.5573    0.6528   28.6522 C.3     1  UNL1        0.0576
     33 C         -25.5415   -0.1957   29.1186 C.3     1  UNL1        0.0784
     34 C         -24.5857    1.2351   27.3965 C.3     1  UNL1        0.1123
     35 C         -30.7707    0.2163   27.2611 C.2     1  UNL1        0.1502
     36 C         -26.9789    0.1542   29.1195 C.3     1  UNL1        0.0164
     37 C         -20.9100    2.0288   27.6954 C.3     1  UNL1        0.0014
     38 C         -31.3680    1.2576   26.3212 C.3     1  UNL1        0.0645
     39 C         -27.1390    1.6206   29.6142 C.3     1  UNL1        0.0014
     40 C         -31.2862    2.0604   28.6601 C.3     1  UNL1        0.0078
     41 C         -28.1776   -0.5214   28.7006 C.3     1  UNL1        0.0018
     42 C         -23.2802    1.5947   26.9928 C.3     1  UNL1        0.1000
     43 C         -28.6173    1.9069   29.6854 C.3     1  UNL1        0.0005
     44 C         -31.3063    2.5278   27.1808 C.3     1  UNL1        0.0082
     45 CL        -22.7809    2.2233   25.4809 Cl      1  UNL1       -0.1132
@<TRIPOS>BOND
     1     1    33    1
     2     2     7    1
     3     2     1    1
     4     3     2    2
     5     4     3    1
     6     4     5    2
     7     5     6    1
     8     6     7    2
     9     8     1    1
    10     8     9    1
    11     8    12    1
    12     9    10    1
    13    10    11    1
    14    12    11    1
    15    13    34    1
    16    14    13    1
    17    14    15    1
    18    15    18    2
    19    16    17    1
    20    16    15    1
    21    19    14    2
    22    20    21    2
    23    20    19    1
    24    21    26    1
    25    22    21    1
    26    23    22    1
    27    24    23    1
    28    24    25    1
    29    26    27    1
    30    26    13    2
    31    28    41    1
    32    28    43    1
    33    29    35    2
    34    32    40    1
    35    32    28    1
    36    33    31    1
    37    34    31    1
    38    35    32    1
    39    36    33    1
    40    36    39    1
    41    37    30    1
    42    38    44    1
    43    38    35    1
    44    39    43    1
    45    41    36    1
    46    42    45    1
    47    42    34    1
    48    42    30    1
    49    44    40    1
