@<TRIPOS>MOLECULE
outputs/IAG933/test6/raw/output_5368_IAG933_linker_design_.xyz
 44 48 0 0 0
SMALL
GASTEIGER

@<TRIPOS>ATOM
      1 C         -24.8550   -1.0120   30.1430 C.3     1  UNL1        0.0859
      2 C         -24.9730   -2.5050   29.7880 C.2     1  UNL1       -0.0170
      3 C         -23.9060   -3.1730   29.1460 C.2     1  UNL1       -0.0041
      4 C         -23.9890   -4.5490   28.8530 C.2     1  UNL1       -0.0003
      5 C         -25.1370   -5.2800   29.2050 C.2     1  UNL1       -0.0000
      6 C         -26.2320   -4.6110   29.7840 C.2     1  UNL1       -0.0003
      7 C         -26.1550   -3.2320   30.0650 C.2     1  UNL1       -0.0041
      8 C         -25.3870   -0.6790   31.5710 C.3     1  UNL1        0.0809
      9 C         -25.1890    0.7730   32.0280 C.3     1  UNL1        0.0193
     10 C         -25.3360    0.6840   33.5440 C.3     1  UNL1        0.0202
     11 C         -24.8290   -0.7150   33.9050 C.3     1  UNL1        0.0887
     12 N         -24.7580   -1.4810   32.6460 N.3     1  UNL1       -0.2190
     13 C         -25.6880    1.6140   26.4610 C.2     1  UNL1        0.0266
     14 C         -26.2500    2.9200   26.3950 C.2     1  UNL1        0.0731
     15 C         -25.6420    4.0930   27.1230 C.2     1  UNL1        0.2661
     16 N         -25.6140    5.2520   26.4490 N.am    1  UNL1       -0.1997
     17 C         -25.0260    6.4790   26.9630 C.3     1  UNL1        0.1388
     18 O         -25.1430    3.9660   28.2430 O.2     1  UNL1       -0.2683
     19 C         -27.4380    3.0910   25.6450 C.2     1  UNL1        0.1064
     20 N         -28.0750    2.0890   25.0030 N.2     1  UNL1       -0.2081
     21 C         -27.5430    0.8490   25.0790 C.2     1  UNL1        0.2530
     22 O         -28.1930   -0.2080   24.4770 O.2     1  UNL1       -0.4558
     23 C         -29.4600    0.0050   23.8660 C.3     1  UNL1        0.2426
     24 C         -30.0650   -1.3770   23.5730 C.3     1  UNL1        0.2292
     25 O         -30.7290   -1.8780   24.7210 O.3     1  UNL1       -0.2162
     26 C         -26.3540    0.5760   25.7770 C.2     1  UNL1        0.1896
     27 F         -25.8600   -0.6810   25.7950 F       1  UNL1       -0.1996
     28 C         -28.4189    2.3757   29.1567 C.3     1  UNL1        0.0965
     29 O         -25.5918   -0.6305   27.8599 O.3     1  UNL1       -0.2028
     30 C         -22.0665   -0.1726   29.2237 C.2     1  UNL1        0.0021
     31 N         -26.3309    1.1808   28.9156 N.am    1  UNL1       -0.1782
     32 O         -20.4990    1.1304   27.2112 O.2     1  UNL1       -0.4369
     33 C         -23.3807    2.2094   26.1689 C.2     1  UNL1        0.3238
     34 C         -24.2220    0.8031   28.2754 C.3     1  UNL1        0.0878
     35 C         -20.7399   -0.2662   28.9296 C.2     1  UNL1        0.0398
     36 C         -27.0063    2.1769   29.5664 C.2     1  UNL1        0.2439
     37 O         -23.6408    2.8381   25.1166 O.2     1  UNL1       -0.2496
     38 C         -25.1999    0.2152   29.0686 C.3     1  UNL1        0.2128
     39 O         -26.4998    2.9243   30.3707 O.2     1  UNL1       -0.2733
     40 C         -24.3137    1.3174   26.9444 C.3     1  UNL1        0.1319
     41 C         -21.7709    1.3992   27.4190 C.3     1  UNL1        0.3642
     42 C         -19.9903    0.2338   28.1499 C.2     1  UNL1        0.1765
     43 O         -22.2300    2.3613   26.6365 O.3     1  UNL1       -0.4102
     44 C         -22.7003    0.7197   28.1925 C.2     1  UNL1        0.0438
@<TRIPOS>BOND
     1     1    38    1
     2     2     7    1
     3     2     1    1
     4     3     2    2
     5     4     3    1
     6     4     5    2
     7     5     6    1
     8     6     7    2
     9     8     1    1
    10     8     9    1
    11     8    12    1
    12     9    10    1
    13    10    11    1
    14    12    11    1
    15    14    13    1
    16    14    15    1
    17    15    18    2
    18    16    17    1
    19    16    15    1
    20    19    14    2
    21    20    21    2
    22    20    19    1
    23    21    26    1
    24    22    21    1
    25    23    22    1
    26    24    23    1
    27    24    25    1
    28    26    27    1
    29    26    13    2
    30    28    36    1
    31    31    38    1
    32    31    36    1
    33    32    41    1
    34    32    42    1
    35    33    43    1
    36    33    40    1
    37    34    38    1
    38    35    30    1
    39    36    39    2
    40    37    33    2
    41    38    29    1
    42    40    13    1
    43    40    34    1
    44    41    43    1
    45    41    44    1
    46    42    35    2
    47    44    34    1
    48    44    30    2
