@<TRIPOS>MOLECULE
outputs/IAG933/test6/raw/output_5372_IAG933_linker_design_.xyz
 45 50 0 0 0
SMALL
GASTEIGER

@<TRIPOS>ATOM
      1 C         -24.8550   -1.0120   30.1430 C.3     1  UNL1        0.0440
      2 C         -24.9730   -2.5050   29.7880 C.2     1  UNL1       -0.0208
      3 C         -23.9060   -3.1730   29.1460 C.2     1  UNL1       -0.0042
      4 C         -23.9890   -4.5490   28.8530 C.2     1  UNL1       -0.0003
      5 C         -25.1370   -5.2800   29.2050 C.2     1  UNL1       -0.0000
      6 C         -26.2320   -4.6110   29.7840 C.2     1  UNL1       -0.0003
      7 C         -26.1550   -3.2320   30.0650 C.2     1  UNL1       -0.0042
      8 C         -25.3870   -0.6790   31.5710 C.3     1  UNL1        0.0772
      9 C         -25.1890    0.7730   32.0280 C.3     1  UNL1        0.0195
     10 C         -25.3360    0.6840   33.5440 C.3     1  UNL1        0.0203
     11 C         -24.8290   -0.7150   33.9050 C.3     1  UNL1        0.0887
     12 N         -24.7580   -1.4810   32.6460 N.3     1  UNL1       -0.2191
     13 C         -25.6880    1.6140   26.4610 C.3     1  UNL1        0.0943
     14 C         -26.2500    2.9200   26.3950 C.2     1  UNL1        0.0588
     15 C         -25.6420    4.0930   27.1230 C.2     1  UNL1        0.2627
     16 N         -25.6140    5.2520   26.4490 N.am    1  UNL1       -0.2000
     17 C         -25.0260    6.4790   26.9630 C.3     1  UNL1        0.1388
     18 O         -25.1430    3.9660   28.2430 O.2     1  UNL1       -0.2686
     19 C         -27.4380    3.0910   25.6450 C.2     1  UNL1        0.1025
     20 N         -28.0750    2.0890   25.0030 N.2     1  UNL1       -0.2118
     21 C         -27.5430    0.8490   25.0790 C.2     1  UNL1        0.2344
     22 O         -28.1930   -0.2080   24.4770 O.2     1  UNL1       -0.4585
     23 C         -29.4600    0.0050   23.8660 C.3     1  UNL1        0.2423
     24 C         -30.0650   -1.3770   23.5730 C.3     1  UNL1        0.2292
     25 O         -30.7290   -1.8780   24.7210 O.3     1  UNL1       -0.2162
     26 C         -26.3540    0.5760   25.7770 C.3     1  UNL1        0.2439
     27 F         -25.8600   -0.6810   25.7950 F       1  UNL1       -0.2265
     28 F         -23.1795    2.0161   24.7378 F       1  UNL1       -0.1836
     29 C         -25.0281    0.2228   29.2012 C.3     1  UNL1        0.0470
     30 C         -29.0856    1.7686   29.3920 C.2     1  UNL1       -0.0059
     31 C         -23.1324    1.6764   26.0300 C.3     1  UNL1        0.3488
     32 N         -22.3928   -0.5863   29.4393 N.pl3   1  UNL1       -0.1227
     33 C         -22.7529    0.2349   28.3456 C.2     1  UNL1        0.1479
     34 F         -20.6255    0.7676   28.0915 F       1  UNL1       -0.1617
     35 O         -27.4438    3.0898   32.2342 O.3     1  UNL1       -0.2003
     36 C         -21.8026    0.9027   27.6156 C.2     1  UNL1        0.3020
     37 N         -26.7755    1.9018   29.9785 N.pl3   1  UNL1       -0.2840
     38 C         -27.7291    1.0527   29.2271 C.2     1  UNL1        0.0585
     39 C         -29.1096    2.9555   30.3802 C.3     1  UNL1        0.0814
     40 C         -24.0943    0.4818   28.0169 C.2     1  UNL1        0.0002
     41 C         -27.5718    3.0508   30.7580 C.3     1  UNL1        0.2325
     42 C         -25.3378    1.6785   29.7900 C.3     1  UNL1        0.0794
     43 C         -24.8492    2.1510   31.3206 C.3     1  UNL1        0.0216
     44 C         -24.2981    1.2952   26.8235 C.2     1  UNL1        0.0345
     45 O         -21.8969    1.7071   26.5102 O.2     1  UNL1       -0.4213
@<TRIPOS>BOND
     1     1     2    1
     2     1     8    1
     3     2     7    1
     4     3     2    2
     5     4     3    1
     6     4     5    2
     7     5     6    1
     8     6     7    2
     9     8     9    1
    10     8    12    1
    11     9    43    1
    12     9    10    1
    13    10    11    1
    14    12    11    1
    15    13    44    1
    16    14    13    1
    17    14    15    1
    18    15    18    2
    19    16    17    1
    20    16    15    1
    21    19    14    2
    22    20    21    2
    23    20    19    1
    24    21    26    1
    25    22    21    1
    26    23    22    1
    27    24    23    1
    28    24    25    1
    29    26    27    1
    30    26    13    1
    31    29    40    1
    32    29    42    1
    33    29     1    1
    34    30    39    1
    35    31    28    1
    36    31    45    1
    37    31    44    1
    38    33    32    1
    39    36    34    1
    40    36    33    2
    41    37    41    1
    42    38    30    2
    43    38    37    1
    44    39    41    1
    45    40    33    1
    46    41    35    1
    47    42    37    1
    48    42    43    1
    49    44    40    2
    50    45    36    1
