@<TRIPOS>MOLECULE
outputs/IAG933/test6/raw/output_5376_IAG933_linker_design_.xyz
 42 44 0 0 0
SMALL
GASTEIGER

@<TRIPOS>ATOM
      1 C         -24.8550   -1.0120   30.1430 C.3     1  UNL1        0.0462
      2 C         -24.9730   -2.5050   29.7880 C.2     1  UNL1       -0.0207
      3 C         -23.9060   -3.1730   29.1460 C.2     1  UNL1       -0.0042
      4 C         -23.9890   -4.5490   28.8530 C.2     1  UNL1       -0.0003
      5 C         -25.1370   -5.2800   29.2050 C.2     1  UNL1       -0.0000
      6 C         -26.2320   -4.6110   29.7840 C.2     1  UNL1       -0.0003
      7 C         -26.1550   -3.2320   30.0650 C.2     1  UNL1       -0.0042
      8 C         -25.3870   -0.6790   31.5710 C.3     1  UNL1        0.1042
      9 C         -25.1890    0.7730   32.0280 C.3     1  UNL1        0.1335
     10 C         -25.3360    0.6840   33.5440 C.3     1  UNL1        0.0498
     11 C         -24.8290   -0.7150   33.9050 C.3     1  UNL1        0.0913
     12 N         -24.7580   -1.4810   32.6460 N.3     1  UNL1       -0.2166
     13 C         -25.6880    1.6140   26.4610 C.3     1  UNL1        0.1345
     14 C         -26.2500    2.9200   26.3950 C.2     1  UNL1        0.0604
     15 C         -25.6420    4.0930   27.1230 C.2     1  UNL1        0.2626
     16 N         -25.6140    5.2520   26.4490 N.am    1  UNL1       -0.2000
     17 C         -25.0260    6.4790   26.9630 C.3     1  UNL1        0.1388
     18 O         -25.1430    3.9660   28.2430 O.2     1  UNL1       -0.2687
     19 C         -27.4380    3.0910   25.6450 C.2     1  UNL1        0.1023
     20 N         -28.0750    2.0890   25.0030 N.2     1  UNL1       -0.2119
     21 C         -27.5430    0.8490   25.0790 C.2     1  UNL1        0.2343
     22 O         -28.1930   -0.2080   24.4770 O.2     1  UNL1       -0.4585
     23 C         -29.4600    0.0050   23.8660 C.3     1  UNL1        0.2423
     24 C         -30.0650   -1.3770   23.5730 C.3     1  UNL1        0.2292
     25 O         -30.7290   -1.8780   24.7210 O.3     1  UNL1       -0.2162
     26 C         -26.3540    0.5760   25.7770 C.3     1  UNL1        0.2455
     27 F         -25.8600   -0.6810   25.7950 F       1  UNL1       -0.2267
     28 F         -20.7916    1.2361   27.9065 F       1  UNL1       -0.1619
     29 C         -21.9882    1.0696   28.1844 C.2     1  UNL1        0.3319
     30 F         -23.5483    1.1820   24.8073 F       1  UNL1       -0.1962
     31 C         -22.7952    1.6748   25.8405 C.3     1  UNL1        0.3442
     32 N         -28.0016    1.4483   29.4926 N.2     1  UNL1        0.1945
     33 C         -26.8208    4.0217   31.3472 C.3     1  UNL1        0.0456
     34 C         -26.6128    2.5566   31.2000 C.3     1  UNL1        0.2288
     35 C         -22.9875    1.1956   27.0698 C.3     1  UNL1        0.2338
     36 O         -22.3235    0.6816   29.3142 O.2     1  UNL1       -0.2574
     37 C         -26.9084    1.8425   29.8917 C.2     1  UNL1        0.4176
     38 N         -24.0560    0.7922   27.6038 N.3     1  UNL1       -0.1593
     39 O         -25.2796    2.1559   31.6839 O.3     1  UNL1       -0.3453
     40 N         -25.9309    1.4162   29.0151 N.pl3   1  UNL1       -0.0143
     41 F         -21.8159    2.3104   25.2993 F       1  UNL1       -0.1962
     42 C         -25.1841    1.1997   27.8406 C.3     1  UNL1        0.2875
@<TRIPOS>BOND
     1     2     7    1
     2     2     1    1
     3     3     2    2
     4     4     3    1
     5     4     5    2
     6     5     6    1
     7     6     7    2
     8     8     1    1
     9     8     9    1
    10     8    12    1
    11     9    39    1
    12     9    10    1
    13    10    11    1
    14    12    11    1
    15    13    42    1
    16    14    13    1
    17    14    15    1
    18    15    18    2
    19    16    17    1
    20    16    15    1
    21    19    14    2
    22    20    21    2
    23    20    19    1
    24    21    26    1
    25    22    21    1
    26    23    22    1
    27    24    23    1
    28    24    25    1
    29    26    27    1
    30    26    13    1
    31    28    29    1
    32    29    36    2
    33    30    31    1
    34    32    37    2
    35    34    33    1
    36    34    39    1
    37    35    31    1
    38    35    38    1
    39    35    29    1
    40    37    34    1
    41    40    37    1
    42    41    31    1
    43    42    38    1
    44    42    40    1
