@<TRIPOS>MOLECULE
outputs/IAG933/test6/raw/output_5378_IAG933_linker_design_.xyz
 41 44 0 0 0
SMALL
GASTEIGER

@<TRIPOS>ATOM
      1 C         -24.8550   -1.0120   30.1430 C.3     1  UNL1        0.2058
      2 C         -24.9730   -2.5050   29.7880 C.2     1  UNL1        0.0218
      3 C         -23.9060   -3.1730   29.1460 C.2     1  UNL1       -0.0004
      4 C         -23.9890   -4.5490   28.8530 C.2     1  UNL1       -0.0002
      5 C         -25.1370   -5.2800   29.2050 C.2     1  UNL1       -0.0000
      6 C         -26.2320   -4.6110   29.7840 C.2     1  UNL1       -0.0002
      7 C         -26.1550   -3.2320   30.0650 C.2     1  UNL1       -0.0004
      8 C         -25.3870   -0.6790   31.5710 C.3     1  UNL1        0.1202
      9 C         -25.1890    0.7730   32.0280 C.3     1  UNL1        0.0233
     10 C         -25.3360    0.6840   33.5440 C.3     1  UNL1        0.0204
     11 C         -24.8290   -0.7150   33.9050 C.3     1  UNL1        0.0889
     12 N         -24.7580   -1.4810   32.6460 N.3     1  UNL1       -0.2150
     13 C         -25.6880    1.6140   26.4610 C.2     1  UNL1        0.0867
     14 C         -26.2500    2.9200   26.3950 C.2     1  UNL1        0.0899
     15 C         -25.6420    4.0930   27.1230 C.2     1  UNL1        0.2676
     16 N         -25.6140    5.2520   26.4490 N.am    1  UNL1       -0.1997
     17 C         -25.0260    6.4790   26.9630 C.3     1  UNL1        0.1388
     18 O         -25.1430    3.9660   28.2430 O.2     1  UNL1       -0.2683
     19 C         -27.4380    3.0910   25.6450 C.2     1  UNL1        0.1080
     20 N         -28.0750    2.0890   25.0030 N.2     1  UNL1       -0.2080
     21 C         -27.5430    0.8490   25.0790 C.2     1  UNL1        0.2546
     22 O         -28.1930   -0.2080   24.4770 O.2     1  UNL1       -0.4558
     23 C         -29.4600    0.0050   23.8660 C.3     1  UNL1        0.2426
     24 C         -30.0650   -1.3770   23.5730 C.3     1  UNL1        0.2292
     25 O         -30.7290   -1.8780   24.7210 O.3     1  UNL1       -0.2162
     26 C         -26.3540    0.5760   25.7770 C.2     1  UNL1        0.2063
     27 F         -25.8600   -0.6810   25.7950 F       1  UNL1       -0.1979
     28 C         -22.9891    1.6969   25.1075 C.3     1  UNL1        0.0238
     29 N         -24.5571    1.3301   27.0641 N.pl3   1  UNL1       -0.2951
     30 N         -22.5831    0.2759   29.6598 N.2     1  UNL1        0.1903
     31 C         -23.5373    0.7528   27.7289 C.3     1  UNL1        0.2029
     32 C         -28.1926    3.0774   29.8954 C.3     1  UNL1        0.1429
     33 C         -29.3506    5.1419   29.8235 C.3     1  UNL1        0.1741
     34 C         -23.4936    1.2441   26.6255 C.3     1  UNL1        0.1036
     35 C         -26.7543    0.1187   28.9560 C.2     1  UNL1        0.3135
     36 C         -28.1191    0.9413   28.5561 C.3     1  UNL1        0.1153
     37 O         -29.0489    3.9368   29.0872 O.3     1  UNL1       -0.3511
     38 N         -25.0451   -0.0696   29.1834 N.am    1  UNL1       -0.1381
     39 C         -28.8289    1.6231   29.7644 C.3     1  UNL1        0.0441
     40 O         -27.1965   -1.1072   28.3138 O.2     1  UNL1       -0.2468
     41 C         -23.5585    0.4061   28.8285 C.2     1  UNL1        0.3785
@<TRIPOS>BOND
     1     1    38    1
     2     2     7    1
     3     2     1    1
     4     3     2    2
     5     4     3    1
     6     4     5    2
     7     5     6    1
     8     6     7    2
     9     8     1    1
    10     8     9    1
    11     8    12    1
    12     9    10    1
    13    10    11    1
    14    12    11    1
    15    13    29    1
    16    14    13    1
    17    14    15    1
    18    15    18    2
    19    16    17    1
    20    16    15    1
    21    19    14    2
    22    20    21    2
    23    20    19    1
    24    21    26    1
    25    22    21    1
    26    23    22    1
    27    24    23    1
    28    24    25    1
    29    26    27    1
    30    26    13    2
    31    29    31    1
    32    31    41    1
    33    34    28    1
    34    34    29    1
    35    34    31    1
    36    35    38   am
    37    36    35    1
    38    36    39    1
    39    37    33    1
    40    37    32    1
    41    39    32    1
    42    40    35    2
    43    41    38    1
    44    41    30    2
