@<TRIPOS>MOLECULE
outputs/IAG933/test6/raw/output_5379_IAG933_linker_design_.xyz
 44 48 0 0 0
SMALL
GASTEIGER

@<TRIPOS>ATOM
      1 C         -24.8550   -1.0120   30.1430 C.3     1  UNL1        0.0561
      2 C         -24.9730   -2.5050   29.7880 C.2     1  UNL1       -0.0197
      3 C         -23.9060   -3.1730   29.1460 C.2     1  UNL1       -0.0042
      4 C         -23.9890   -4.5490   28.8530 C.2     1  UNL1       -0.0003
      5 C         -25.1370   -5.2800   29.2050 C.2     1  UNL1       -0.0000
      6 C         -26.2320   -4.6110   29.7840 C.2     1  UNL1       -0.0003
      7 C         -26.1550   -3.2320   30.0650 C.2     1  UNL1       -0.0042
      8 C         -25.3870   -0.6790   31.5710 C.3     1  UNL1        0.0782
      9 C         -25.1890    0.7730   32.0280 C.3     1  UNL1        0.0192
     10 C         -25.3360    0.6840   33.5440 C.3     1  UNL1        0.0202
     11 C         -24.8290   -0.7150   33.9050 C.3     1  UNL1        0.0887
     12 N         -24.7580   -1.4810   32.6460 N.3     1  UNL1       -0.2191
     13 C         -25.6880    1.6140   26.4610 C.2     1  UNL1        0.0334
     14 C         -26.2500    2.9200   26.3950 C.2     1  UNL1        0.0738
     15 C         -25.6420    4.0930   27.1230 C.2     1  UNL1        0.2662
     16 N         -25.6140    5.2520   26.4490 N.am    1  UNL1       -0.1997
     17 C         -25.0260    6.4790   26.9630 C.3     1  UNL1        0.1388
     18 O         -25.1430    3.9660   28.2430 O.2     1  UNL1       -0.2683
     19 C         -27.4380    3.0910   25.6450 C.2     1  UNL1        0.1065
     20 N         -28.0750    2.0890   25.0030 N.2     1  UNL1       -0.2081
     21 C         -27.5430    0.8490   25.0790 C.2     1  UNL1        0.2530
     22 O         -28.1930   -0.2080   24.4770 O.2     1  UNL1       -0.4558
     23 C         -29.4600    0.0050   23.8660 C.3     1  UNL1        0.2426
     24 C         -30.0650   -1.3770   23.5730 C.3     1  UNL1        0.2292
     25 O         -30.7290   -1.8780   24.7210 O.3     1  UNL1       -0.2162
     26 C         -26.3540    0.5760   25.7770 C.2     1  UNL1        0.1904
     27 F         -25.8600   -0.6810   25.7950 F       1  UNL1       -0.1995
     28 C         -31.3379   -0.9607   28.7032 C.3     1  UNL1        0.1466
     29 O         -31.6641   -1.7970   29.8983 O.3     1  UNL1       -0.3534
     30 C         -28.9155    0.1799   28.5233 C.2     1  UNL1        0.0350
     31 C         -22.8674    1.1483   27.8779 C.3     1  UNL1        0.1711
     32 C         -27.6520   -0.0062   29.1917 C.2     1  UNL1        0.2609
     33 O         -27.7863   -0.8835   29.8220 O.2     1  UNL1       -0.2687
     34 C         -30.3779   -0.0073   30.6540 C.3     1  UNL1        0.0391
     35 CL        -21.1792    1.5876   27.5199 Cl      1  UNL1       -0.0940
     36 C         -29.2713    0.3748   27.4244 C.2     1  UNL1        0.0002
     37 C         -25.2173    0.5803   28.4804 C.3     1  UNL1        0.1321
     38 N         -26.6848    0.6696   28.5576 N.am    1  UNL1       -0.2006
     39 CL        -23.2736    2.0403   25.5364 Cl      1  UNL1       -0.1071
     40 C         -30.3031    0.1424   29.1408 C.3     1  UNL1        0.0589
     41 N         -22.9841    0.3008   29.0237 N.3     1  UNL1       -0.2011
     42 C         -31.4915   -0.9341   31.0644 C.3     1  UNL1        0.1426
     43 C         -24.3832    0.0322   29.2429 C.3     1  UNL1        0.1010
     44 C         -24.1245    1.3645   27.0743 C.3     1  UNL1        0.1367
@<TRIPOS>BOND
     1     1     2    1
     2     2     7    1
     3     3     2    2
     4     4     3    1
     5     4     5    2
     6     5     6    1
     7     6     7    2
     8     8     1    1
     9     8     9    1
    10     8    12    1
    11     9    10    1
    12    10    11    1
    13    12    11    1
    14    13    44    1
    15    14    13    1
    16    14    15    1
    17    15    18    2
    18    16    17    1
    19    16    15    1
    20    19    14    2
    21    20    21    2
    22    20    19    1
    23    21    26    1
    24    22    21    1
    25    23    22    1
    26    24    23    1
    27    24    25    1
    28    26    27    1
    29    26    13    2
    30    28    40    1
    31    28    29    1
    32    29    42    1
    33    30    32    1
    34    31    35    1
    35    31    41    1
    36    32    33    2
    37    34    42    1
    38    36    30    2
    39    37    38    1
    40    37    43    1
    41    38    32    1
    42    40    30    1
    43    40    34    1
    44    41    43    1
    45    43     1    1
    46    44    39    1
    47    44    31    1
    48    44    37    1
