@<TRIPOS>MOLECULE
No_538-gen_results/8p0m/2024-11-27-11-27-31/
 12 13 0 0 0
SMALL
GASTEIGER

@<TRIPOS>ATOM
      1 O         -28.1229   -1.3353   28.4874 O.2     1  UNL1       -0.2733
      2 C         -27.4806   -0.4044   28.7094 C.2     1  UNL1        0.2414
      3 C         -26.3804   -0.0867   27.9394 C.3     1  UNL1        0.0873
      4 N         -27.4232    0.1749   30.0549 N.am    1  UNL1       -0.2050
      5 C         -25.8482    1.0048   27.9942 C.3     1  UNL1        0.0178
      6 C         -25.8111    1.7414   29.2835 C.3     1  UNL1        0.0797
      7 C         -26.7479    1.3152   30.2318 C.3     1  UNL1        0.1224
      8 C         -24.7790    1.5405   27.0578 C.3     1  UNL1        0.0014
      9 C         -23.9987    2.5146   27.2088 C.3     1  UNL1        0.0078
     10 C         -24.1863    3.2560   28.4785 C.3     1  UNL1        0.0646
     11 C         -25.0011    2.9016   29.4327 C.2     1  UNL1        0.1520
     12 O         -25.0526    3.5825   30.5809 O.2     1  UNL1       -0.2960
@<TRIPOS>BOND
     1     1     2    2
     2     2     3    1
     3     2     4   am
     4     3     5    1
     5     6     7    1
     6     5     8    1
     7     9    10    1
     8     6    11    1
     9    10    11    1
    10    11    12    2
    11     5     6    1
    12     7     4    1
    13     8     9    1
