@<TRIPOS>MOLECULE
outputs/IAG933/test6/raw/output_5380_IAG933_linker_design_.xyz
 41 45 0 0 0
SMALL
GASTEIGER

@<TRIPOS>ATOM
      1 C         -24.8550   -1.0120   30.1430 C.3     1  UNL1        0.1117
      2 C         -24.9730   -2.5050   29.7880 C.2     1  UNL1       -0.0030
      3 C         -23.9060   -3.1730   29.1460 C.2     1  UNL1       -0.0026
      4 C         -23.9890   -4.5490   28.8530 C.2     1  UNL1       -0.0003
      5 C         -25.1370   -5.2800   29.2050 C.2     1  UNL1       -0.0000
      6 C         -26.2320   -4.6110   29.7840 C.2     1  UNL1       -0.0003
      7 C         -26.1550   -3.2320   30.0650 C.2     1  UNL1       -0.0026
      8 C         -25.3870   -0.6790   31.5710 C.3     1  UNL1        0.0950
      9 C         -25.1890    0.7730   32.0280 C.3     1  UNL1        0.0209
     10 C         -25.3360    0.6840   33.5440 C.3     1  UNL1        0.0203
     11 C         -24.8290   -0.7150   33.9050 C.3     1  UNL1        0.0888
     12 N         -24.7580   -1.4810   32.6460 N.3     1  UNL1       -0.2174
     13 C         -25.6880    1.6140   26.4610 C.3     1  UNL1        0.1114
     14 C         -26.2500    2.9200   26.3950 C.2     1  UNL1        0.0605
     15 C         -25.6420    4.0930   27.1230 C.2     1  UNL1        0.2628
     16 N         -25.6140    5.2520   26.4490 N.am    1  UNL1       -0.2000
     17 C         -25.0260    6.4790   26.9630 C.3     1  UNL1        0.1388
     18 O         -25.1430    3.9660   28.2430 O.2     1  UNL1       -0.2686
     19 C         -27.4380    3.0910   25.6450 C.2     1  UNL1        0.1025
     20 N         -28.0750    2.0890   25.0030 N.2     1  UNL1       -0.2118
     21 C         -27.5430    0.8490   25.0790 C.2     1  UNL1        0.2345
     22 O         -28.1930   -0.2080   24.4770 O.2     1  UNL1       -0.4585
     23 C         -29.4600    0.0050   23.8660 C.3     1  UNL1        0.2423
     24 C         -30.0650   -1.3770   23.5730 C.3     1  UNL1        0.2292
     25 O         -30.7290   -1.8780   24.7210 O.3     1  UNL1       -0.2162
     26 C         -26.3540    0.5760   25.7770 C.3     1  UNL1        0.2456
     27 F         -25.8600   -0.6810   25.7950 F       1  UNL1       -0.2265
     28 C         -23.0132    2.9538   24.8859 C.3     1  UNL1        0.0347
     29 C         -20.6392   -0.1153   28.6017 C.3     1  UNL1        0.0379
     30 C         -21.3135    1.7384   27.5238 C.3     1  UNL1        0.1525
     31 C         -23.0700    0.3013   29.1199 C.3     1  UNL1        0.1422
     32 O         -22.0550   -1.4508   29.8482 O.3     1  UNL1       -0.2210
     33 N         -24.2823    0.0388   29.2946 N.pl3   1  UNL1       -0.2967
     34 C         -21.7426   -0.2247   29.5632 C.3     1  UNL1        0.1755
     35 C         -25.1659    0.5742   28.6049 C.2     1  UNL1        0.0771
     36 C         -20.2856    0.9070   27.9368 C.3     1  UNL1        0.0381
     37 C         -24.8086    1.3107   27.4896 C.2     1  UNL1        0.0800
     38 N         -23.6029    1.6582   27.4023 N.2     1  UNL1       -0.2525
     39 O         -21.1041    2.1344   26.1889 O.3     1  UNL1       -0.3506
     40 C         -22.0650    1.8149   25.2294 C.3     1  UNL1        0.1426
     41 C         -22.5743    1.2792   28.0419 C.2     1  UNL1        0.0838
@<TRIPOS>BOND
     1     1     2    1
     2     2     7    1
     3     3     2    2
     4     4     3    1
     5     4     5    2
     6     5     6    1
     7     6     7    2
     8     8     1    1
     9     8     9    1
    10     8    12    1
    11     9    10    1
    12    10    11    1
    13    12    11    1
    14    13    37    1
    15    14    13    1
    16    14    15    1
    17    15    18    2
    18    16    17    1
    19    16    15    1
    20    19    14    2
    21    20    21    2
    22    20    19    1
    23    21    26    1
    24    22    21    1
    25    23    22    1
    26    24    23    1
    27    24    25    1
    28    26    27    1
    29    26    13    1
    30    28    40    1
    31    29    34    1
    32    30    39    1
    33    30    36    1
    34    30    41    1
    35    31    41    1
    36    31    33    1
    37    31    34    1
    38    33     1    1
    39    34    32    1
    40    35    33    1
    41    36    29    1
    42    37    35    2
    43    38    37    1
    44    38    41    2
    45    40    39    1
