@<TRIPOS>MOLECULE
outputs/IAG933/test6/raw/output_5382_IAG933_linker_design_.xyz
 46 50 0 0 0
SMALL
GASTEIGER

@<TRIPOS>ATOM
      1 C         -24.8550   -1.0120   30.1430 C.3     1  UNL1        0.1113
      2 C         -24.9730   -2.5050   29.7880 C.2     1  UNL1       -0.0030
      3 C         -23.9060   -3.1730   29.1460 C.2     1  UNL1       -0.0026
      4 C         -23.9890   -4.5490   28.8530 C.2     1  UNL1       -0.0003
      5 C         -25.1370   -5.2800   29.2050 C.2     1  UNL1       -0.0000
      6 C         -26.2320   -4.6110   29.7840 C.2     1  UNL1       -0.0003
      7 C         -26.1550   -3.2320   30.0650 C.2     1  UNL1       -0.0026
      8 C         -25.3870   -0.6790   31.5710 C.3     1  UNL1        0.0950
      9 C         -25.1890    0.7730   32.0280 C.3     1  UNL1        0.0209
     10 C         -25.3360    0.6840   33.5440 C.3     1  UNL1        0.0203
     11 C         -24.8290   -0.7150   33.9050 C.3     1  UNL1        0.0888
     12 N         -24.7580   -1.4810   32.6460 N.3     1  UNL1       -0.2174
     13 C         -25.6880    1.6140   26.4610 C.3     1  UNL1        0.0721
     14 C         -26.2500    2.9200   26.3950 C.2     1  UNL1        0.0549
     15 C         -25.6420    4.0930   27.1230 C.2     1  UNL1        0.2624
     16 N         -25.6140    5.2520   26.4490 N.am    1  UNL1       -0.2000
     17 C         -25.0260    6.4790   26.9630 C.3     1  UNL1        0.1388
     18 O         -25.1430    3.9660   28.2430 O.2     1  UNL1       -0.2687
     19 C         -27.4380    3.0910   25.6450 C.2     1  UNL1        0.1021
     20 N         -28.0750    2.0890   25.0030 N.2     1  UNL1       -0.2119
     21 C         -27.5430    0.8490   25.0790 C.2     1  UNL1        0.2341
     22 O         -28.1930   -0.2080   24.4770 O.2     1  UNL1       -0.4585
     23 C         -29.4600    0.0050   23.8660 C.3     1  UNL1        0.2423
     24 C         -30.0650   -1.3770   23.5730 C.3     1  UNL1        0.2292
     25 O         -30.7290   -1.8780   24.7210 O.3     1  UNL1       -0.2162
     26 C         -26.3540    0.5760   25.7770 C.3     1  UNL1        0.2401
     27 F         -25.8600   -0.6810   25.7950 F       1  UNL1       -0.2269
     28 C         -24.8042    1.2358   27.5234 C.3     1  UNL1        0.0311
     29 N         -27.6303    1.8026   28.5816 N.3     1  UNL1       -0.0760
     30 N         -24.3203   -0.0319   29.2450 N.pl3   1  UNL1       -0.3037
     31 C         -30.1605    2.8054   28.4698 C.2     1  UNL1        0.1235
     32 C         -25.2001    0.7303   28.6693 C.3     1  UNL1        0.0931
     33 C         -31.5702    3.6663   26.6381 C.2     1  UNL1       -0.0029
     34 O         -29.4052    0.2353   28.5036 O.2     1  UNL1       -0.1516
     35 O         -29.3771    1.4874   30.5454 O.2     1  UNL1       -0.1516
     36 C         -31.4705    4.8112   28.8078 C.2     1  UNL1       -0.0029
     37 C         -23.0012    0.1552   28.9606 C.2     1  UNL1        0.0529
     38 C         -22.6147    1.0304   27.9576 C.2     1  UNL1       -0.0293
     39 C         -31.9372    4.6942   27.4914 C.2     1  UNL1       -0.0218
     40 C         -30.5687    3.8955   29.2962 C.2     1  UNL1        0.0196
     41 S         -29.2420    1.6249   29.1218 S.O2    1  UNL1        0.0769
     42 C         -21.2221    1.5211   27.5504 C.3     1  UNL1        0.0277
     43 C         -30.6257    2.7350   27.1170 C.2     1  UNL1        0.0196
     44 C         -23.5463    1.6070   27.1606 C.3     1  UNL1        0.0254
     45 C         -26.4767    1.3017   29.2566 C.3     1  UNL1        0.1351
     46 C         -32.9833    5.6594   26.9965 C.3     1  UNL1        0.0310
@<TRIPOS>BOND
     1     1     2    1
     2     2     7    1
     3     3     2    2
     4     4     3    1
     5     4     5    2
     6     5     6    1
     7     6     7    2
     8     8     1    1
     9     8     9    1
    10     8    12    1
    11     9    10    1
    12    10    11    1
    13    12    11    1
    14    13    14    1
    15    13    28    1
    16    14    15    1
    17    15    18    2
    18    16    17    1
    19    16    15    1
    20    19    14    2
    21    20    21    2
    22    20    19    1
    23    21    26    1
    24    22    21    1
    25    23    22    1
    26    24    23    1
    27    24    25    1
    28    26    27    1
    29    26    13    1
    30    28    44    1
    31    28    32    1
    32    29    41    1
    33    29    45    1
    34    30     1    1
    35    31    41    1
    36    31    40    1
    37    32    30    1
    38    32    45    1
    39    33    43    1
    40    33    39    2
    41    34    41    2
    42    36    40    2
    43    37    30    1
    44    38    37    2
    45    39    36    1
    46    41    35    2
    47    42    38    1
    48    43    31    2
    49    44    38    1
    50    46    39    1
