@<TRIPOS>MOLECULE
outputs/IAG933/test6/raw/output_5383_IAG933_linker_design_.xyz
 44 47 0 0 0
SMALL
GASTEIGER

@<TRIPOS>ATOM
      1 C         -24.8550   -1.0120   30.1430 C.3     1  UNL1        0.1146
      2 C         -24.9730   -2.5050   29.7880 C.2     1  UNL1       -0.0029
      3 C         -23.9060   -3.1730   29.1460 C.2     1  UNL1       -0.0026
      4 C         -23.9890   -4.5490   28.8530 C.2     1  UNL1       -0.0003
      5 C         -25.1370   -5.2800   29.2050 C.2     1  UNL1       -0.0000
      6 C         -26.2320   -4.6110   29.7840 C.2     1  UNL1       -0.0003
      7 C         -26.1550   -3.2320   30.0650 C.2     1  UNL1       -0.0026
      8 C         -25.3870   -0.6790   31.5710 C.3     1  UNL1        0.0951
      9 C         -25.1890    0.7730   32.0280 C.3     1  UNL1        0.0209
     10 C         -25.3360    0.6840   33.5440 C.3     1  UNL1        0.0203
     11 C         -24.8290   -0.7150   33.9050 C.3     1  UNL1        0.0888
     12 N         -24.7580   -1.4810   32.6460 N.3     1  UNL1       -0.2174
     13 C         -25.6880    1.6140   26.4610 C.3     1  UNL1        0.0764
     14 C         -26.2500    2.9200   26.3950 C.2     1  UNL1        0.0552
     15 C         -25.6420    4.0930   27.1230 C.2     1  UNL1        0.2625
     16 N         -25.6140    5.2520   26.4490 N.am    1  UNL1       -0.2000
     17 C         -25.0260    6.4790   26.9630 C.3     1  UNL1        0.1388
     18 O         -25.1430    3.9660   28.2430 O.2     1  UNL1       -0.2687
     19 C         -27.4380    3.0910   25.6450 C.2     1  UNL1        0.1022
     20 N         -28.0750    2.0890   25.0030 N.2     1  UNL1       -0.2119
     21 C         -27.5430    0.8490   25.0790 C.2     1  UNL1        0.2341
     22 O         -28.1930   -0.2080   24.4770 O.2     1  UNL1       -0.4585
     23 C         -29.4600    0.0050   23.8660 C.3     1  UNL1        0.2423
     24 C         -30.0650   -1.3770   23.5730 C.3     1  UNL1        0.2292
     25 O         -30.7290   -1.8780   24.7210 O.3     1  UNL1       -0.2162
     26 C         -26.3540    0.5760   25.7770 C.3     1  UNL1        0.2404
     27 F         -25.8600   -0.6810   25.7950 F       1  UNL1       -0.2269
     28 N         -24.4308    0.0502   29.3038 N.am    1  UNL1       -0.2630
     29 C         -26.6984    4.1955   32.7824 C.3     1  UNL1        0.0001
     30 C         -23.2777    1.6396   27.1429 C.2     1  UNL1        0.0229
     31 C         -26.7710    1.2086   29.5562 C.2     1  UNL1        0.2598
     32 C         -24.6811    1.3711   27.4642 C.3     1  UNL1        0.0600
     33 O         -27.3773    0.1812   29.5022 O.2     1  UNL1       -0.2715
     34 N         -27.4302    2.3791   30.1786 N.am    1  UNL1       -0.2040
     35 C         -28.8454    2.6072   30.5833 C.3     1  UNL1        0.1152
     36 C         -27.8868    4.6767   31.7910 C.3     1  UNL1        0.0017
     37 O         -21.1179    1.4316   27.9263 O.2     1  UNL1       -0.2821
     38 C         -23.0240    0.2826   29.1337 C.2     1  UNL1        0.2884
     39 C         -27.6051    5.0613   30.2857 C.3     1  UNL1        0.0001
     40 C         -22.3340    1.0090   27.9837 C.2     1  UNL1        0.2446
     41 C         -28.9418    3.6407   31.7623 C.3     1  UNL1        0.0234
     42 O         -22.2597    0.0124   29.9171 O.2     1  UNL1       -0.2664
     43 C         -25.2414    1.1232   28.9085 C.3     1  UNL1        0.1585
     44 C         -28.2787    5.9885   32.5252 C.3     1  UNL1        0.0001
@<TRIPOS>BOND
     1     1     2    1
     2     2     7    1
     3     3     2    2
     4     4     3    1
     5     4     5    2
     6     5     6    1
     7     6     7    2
     8     8     1    1
     9     8     9    1
    10     8    12    1
    11     9    10    1
    12    10    11    1
    13    12    11    1
    14    13    14    1
    15    13    32    1
    16    14    15    1
    17    15    18    2
    18    16    17    1
    19    16    15    1
    20    19    14    2
    21    20    21    2
    22    20    19    1
    23    21    26    1
    24    22    21    1
    25    23    22    1
    26    24    23    1
    27    24    25    1
    28    26    27    1
    29    26    13    1
    30    28     1    1
    31    30    40    2
    32    31    34    1
    33    32    30    1
    34    32    43    1
    35    33    31    2
    36    34    35    1
    37    35    41    1
    38    36    44    1
    39    36    29    1
    40    37    40    1
    41    38    28   am
    42    38    42    2
    43    39    36    1
    44    40    38    1
    45    41    36    1
    46    43    28    1
    47    43    31    1
