@<TRIPOS>MOLECULE
outputs/IAG933/test6/raw/output_5384_IAG933_linker_design_.xyz
 47 51 0 0 0
SMALL
GASTEIGER

@<TRIPOS>ATOM
      1 C         -24.8550   -1.0120   30.1430 C.3     1  UNL1        0.1110
      2 C         -24.9730   -2.5050   29.7880 C.2     1  UNL1       -0.0030
      3 C         -23.9060   -3.1730   29.1460 C.2     1  UNL1       -0.0026
      4 C         -23.9890   -4.5490   28.8530 C.2     1  UNL1       -0.0003
      5 C         -25.1370   -5.2800   29.2050 C.2     1  UNL1       -0.0000
      6 C         -26.2320   -4.6110   29.7840 C.2     1  UNL1       -0.0003
      7 C         -26.1550   -3.2320   30.0650 C.2     1  UNL1       -0.0026
      8 C         -25.3870   -0.6790   31.5710 C.3     1  UNL1        0.0950
      9 C         -25.1890    0.7730   32.0280 C.3     1  UNL1        0.0209
     10 C         -25.3360    0.6840   33.5440 C.3     1  UNL1        0.0203
     11 C         -24.8290   -0.7150   33.9050 C.3     1  UNL1        0.0888
     12 N         -24.7580   -1.4810   32.6460 N.3     1  UNL1       -0.2174
     13 C         -25.6880    1.6140   26.4610 C.3     1  UNL1        0.1052
     14 C         -26.2500    2.9200   26.3950 C.2     1  UNL1        0.0601
     15 C         -25.6420    4.0930   27.1230 C.2     1  UNL1        0.2628
     16 N         -25.6140    5.2520   26.4490 N.am    1  UNL1       -0.2000
     17 C         -25.0260    6.4790   26.9630 C.3     1  UNL1        0.1388
     18 O         -25.1430    3.9660   28.2430 O.2     1  UNL1       -0.2686
     19 C         -27.4380    3.0910   25.6450 C.2     1  UNL1        0.1025
     20 N         -28.0750    2.0890   25.0030 N.2     1  UNL1       -0.2118
     21 C         -27.5430    0.8490   25.0790 C.2     1  UNL1        0.2345
     22 O         -28.1930   -0.2080   24.4770 O.2     1  UNL1       -0.4585
     23 C         -29.4600    0.0050   23.8660 C.3     1  UNL1        0.2423
     24 C         -30.0650   -1.3770   23.5730 C.3     1  UNL1        0.2292
     25 O         -30.7290   -1.8780   24.7210 O.3     1  UNL1       -0.2162
     26 C         -26.3540    0.5760   25.7770 C.3     1  UNL1        0.2452
     27 F         -25.8600   -0.6810   25.7950 F       1  UNL1       -0.2265
     28 N         -25.4537    0.0193   29.0635 N.pl3   1  UNL1       -0.3074
     29 C         -21.2958    1.4254   27.7644 C.3     1  UNL1        0.0401
     30 O         -31.1876   -0.6409   27.6578 O.3     1  UNL1       -0.3538
     31 C         -31.1338   -2.4839   29.9460 C.3     1  UNL1        0.0330
     32 C         -32.2688   -1.4121   29.8386 C.3     1  UNL1        0.0346
     33 C         -29.8834   -0.0234   29.7251 C.3     1  UNL1        0.0314
     34 C         -26.9660    0.3381   29.2123 C.3     1  UNL1        0.0909
     35 C         -30.6557   -3.5915   30.9730 C.3     1  UNL1        0.1520
     36 C         -23.7046    1.1170   27.3763 C.2     1  UNL1       -0.0045
     37 C         -30.3915    0.4077   28.2609 C.3     1  UNL1        0.1421
     38 O         -22.4995    0.0480   29.2749 O.3     1  UNL1       -0.2186
     39 C         -32.3397   -0.9684   28.3824 C.3     1  UNL1        0.1422
     40 C         -22.5806    0.7148   28.1687 C.3     1  UNL1        0.1713
     41 C         -23.3171    1.7720   26.1371 C.3     1  UNL1        0.0299
     42 O         -31.3539   -4.7572   30.9991 O.3     1  UNL1       -0.2232
     43 C         -28.4617    0.5835   29.9146 C.3     1  UNL1        0.0239
     44 C         -29.1855   -3.6089   30.9322 C.3     1  UNL1        0.0329
     45 C         -29.9579   -1.5368   29.8009 C.3     1  UNL1        0.0051
     46 C         -28.7291   -2.1981   30.5426 C.3     1  UNL1        0.0028
     47 C         -25.0120    1.0161   27.6420 C.2     1  UNL1        0.0266
@<TRIPOS>BOND
     1     1    28    1
     2     2     7    1
     3     2     1    1
     4     3     2    2
     5     4     3    1
     6     4     5    2
     7     5     6    1
     8     6     7    2
     9     8     1    1
    10     8     9    1
    11     8    12    1
    12     9    10    1
    13    10    11    1
    14    12    11    1
    15    13    47    1
    16    14    13    1
    17    14    15    1
    18    15    18    2
    19    16    17    1
    20    16    15    1
    21    19    14    2
    22    20    21    2
    23    20    19    1
    24    21    26    1
    25    22    21    1
    26    23    22    1
    27    24    23    1
    28    24    25    1
    29    26    27    1
    30    26    13    1
    31    28    34    1
    32    30    37    1
    33    30    39    1
    34    31    32    1
    35    31    35    1
    36    33    45    1
    37    33    43    1
    38    34    43    1
    39    35    42    1
    40    36    47    2
    41    36    40    1
    42    37    33    1
    43    39    32    1
    44    40    29    1
    45    40    38    1
    46    41    36    1
    47    44    35    1
    48    45    31    1
    49    45    46    1
    50    46    44    1
    51    47    28    1
