@<TRIPOS>MOLECULE
outputs/IAG933/test6/raw/output_5389_IAG933_linker_design_.xyz
 42 45 0 0 0
SMALL
GASTEIGER

@<TRIPOS>ATOM
      1 C         -24.8550   -1.0120   30.1430 C.3     1  UNL1        0.2054
      2 C         -24.9730   -2.5050   29.7880 C.2     1  UNL1        0.0186
      3 C         -23.9060   -3.1730   29.1460 C.2     1  UNL1       -0.0008
      4 C         -23.9890   -4.5490   28.8530 C.2     1  UNL1       -0.0002
      5 C         -25.1370   -5.2800   29.2050 C.2     1  UNL1       -0.0000
      6 C         -26.2320   -4.6110   29.7840 C.2     1  UNL1       -0.0002
      7 C         -26.1550   -3.2320   30.0650 C.2     1  UNL1       -0.0008
      8 C         -25.3870   -0.6790   31.5710 C.3     1  UNL1        0.1170
      9 C         -25.1890    0.7730   32.0280 C.3     1  UNL1        0.0229
     10 C         -25.3360    0.6840   33.5440 C.3     1  UNL1        0.0204
     11 C         -24.8290   -0.7150   33.9050 C.3     1  UNL1        0.0888
     12 N         -24.7580   -1.4810   32.6460 N.3     1  UNL1       -0.2154
     13 C         -25.6880    1.6140   26.4610 C.2     1  UNL1        0.0453
     14 C         -26.2500    2.9200   26.3950 C.2     1  UNL1        0.0768
     15 C         -25.6420    4.0930   27.1230 C.2     1  UNL1        0.2664
     16 N         -25.6140    5.2520   26.4490 N.am    1  UNL1       -0.1997
     17 C         -25.0260    6.4790   26.9630 C.3     1  UNL1        0.1388
     18 O         -25.1430    3.9660   28.2430 O.2     1  UNL1       -0.2683
     19 C         -27.4380    3.0910   25.6450 C.2     1  UNL1        0.1067
     20 N         -28.0750    2.0890   25.0030 N.2     1  UNL1       -0.2081
     21 C         -27.5430    0.8490   25.0790 C.2     1  UNL1        0.2533
     22 O         -28.1930   -0.2080   24.4770 O.2     1  UNL1       -0.4558
     23 C         -29.4600    0.0050   23.8660 C.3     1  UNL1        0.2426
     24 C         -30.0650   -1.3770   23.5730 C.3     1  UNL1        0.2292
     25 O         -30.7290   -1.8780   24.7210 O.3     1  UNL1       -0.2162
     26 C         -26.3540    0.5760   25.7770 C.2     1  UNL1        0.1933
     27 F         -25.8600   -0.6810   25.7950 F       1  UNL1       -0.1992
     28 C         -23.1913    1.6874   26.6619 C.2     1  UNL1        0.1429
     29 C         -21.9254    1.5696   27.3871 C.2     1  UNL1        0.0665
     30 C         -21.6515    0.7656   28.3224 C.3     1  UNL1        0.1289
     31 O         -23.1380    2.2014   25.4459 O.2     1  UNL1       -0.4715
     32 O         -25.1483   -0.2567   28.9936 O.2     1  UNL1       -0.4595
     33 O         -19.4989    2.2683   28.1092 O.2     1  UNL1       -0.2834
     34 C         -20.4788    0.2162   28.8182 C.2     1  UNL1       -0.0127
     35 C         -19.5363   -0.3118   28.1169 C.2     1  UNL1       -0.0041
     36 O         -22.4065   -0.6458   30.2206 O.2     1  UNL1       -0.2722
     37 N         -23.6216    1.2697   29.4761 N.am    1  UNL1       -0.1442
     38 C         -24.5564    0.8381   28.5605 C.2     1  UNL1        0.2194
     39 C         -23.5838    1.4246   24.2636 C.3     1  UNL1        0.2525
     40 C         -24.4653    1.3542   27.2331 C.2     1  UNL1        0.0869
     41 C         -22.5501    0.3487   29.5610 C.2     1  UNL1        0.2560
     42 C         -20.7443    2.2546   27.2793 C.2     1  UNL1        0.2337
@<TRIPOS>BOND
     1     1    32    1
     2     2     7    1
     3     2     1    1
     4     3     2    2
     5     4     3    1
     6     4     5    2
     7     5     6    1
     8     6     7    2
     9     8     1    1
    10     8     9    1
    11     8    12    1
    12     9    10    1
    13    10    11    1
    14    12    11    1
    15    13    40    1
    16    14    13    1
    17    14    15    1
    18    15    18    2
    19    16    17    1
    20    16    15    1
    21    19    14    2
    22    20    21    2
    23    20    19    1
    24    21    26    1
    25    22    21    1
    26    23    22    1
    27    24    23    1
    28    24    25    1
    29    26    27    1
    30    26    13    2
    31    28    40    2
    32    28    29    1
    33    29    30    1
    34    30    34    1
    35    30    41    1
    36    31    28    1
    37    35    34    2
    38    37    41    1
    39    38    32    1
    40    38    37    2
    41    39    31    1
    42    40    38    1
    43    41    36    2
    44    42    29    2
    45    42    33    1
