@<TRIPOS>MOLECULE
No_539-gen_results/8p0m/2024-11-27-11-27-31/
 13 13 0 0 0
SMALL
GASTEIGER

@<TRIPOS>ATOM
      1 C         -28.0162   -0.8135   28.8779 C.3     1  UNL1        0.1386
      2 C         -27.0636   -0.1189   28.6079 C.ar    1  UNL1       -0.0007
      3 C         -26.9716    0.7139   27.5060 C.ar    1  UNL1       -0.0029
      4 C         -25.8205    1.4910   27.1160 C.ar    1  UNL1       -0.0045
      5 C         -24.6562    1.4242   27.9180 C.ar    1  UNL1       -0.0225
      6 C         -23.4598    2.1165   27.6160 C.3     1  UNL1        0.0224
      7 C         -23.5068    2.7076   26.2939 C.3     1  UNL1        0.0047
      8 C         -25.8932   -0.0648   29.5767 C.ar    1  UNL1       -0.0029
      9 C         -24.7018    0.6377   29.2015 C.ar    1  UNL1       -0.0045
     10 N         -28.6867   -0.5346   30.0846 N.pl3   1  UNL1       -0.2315
     11 C         -29.5727   -1.4058   30.6822 C.2     1  UNL1        0.0805
     12 C         -30.1684   -1.0405   31.9176 C.2     1  UNL1        0.0188
     13 C         -22.2402    1.8793   28.2231 C.3     1  UNL1        0.0047
@<TRIPOS>BOND
     1     6     7    1
     2     1    10    1
     3    10    11    1
     4    11    12    2
     5     6    13    1
     6     6     5    1
     7     1     2    1
     8     2     3   ar
     9     3     4   ar
    10     4     5   ar
    11     5     9   ar
    12     9     8   ar
    13     8     2   ar
