@<TRIPOS>MOLECULE
outputs/IAG933/test6/raw/output_5393_IAG933_linker_design_.xyz
 59 66 0 0 0
SMALL
GASTEIGER

@<TRIPOS>ATOM
      1 C         -24.8550   -1.0120   30.1430 C.3     1  UNL1        0.0703
      2 C         -24.9730   -2.5050   29.7880 C.2     1  UNL1       -0.0184
      3 C         -23.9060   -3.1730   29.1460 C.2     1  UNL1       -0.0041
      4 C         -23.9890   -4.5490   28.8530 C.2     1  UNL1       -0.0003
      5 C         -25.1370   -5.2800   29.2050 C.2     1  UNL1       -0.0000
      6 C         -26.2320   -4.6110   29.7840 C.2     1  UNL1       -0.0003
      7 C         -26.1550   -3.2320   30.0650 C.2     1  UNL1       -0.0041
      8 C         -25.3870   -0.6790   31.5710 C.3     1  UNL1        0.0795
      9 C         -25.1890    0.7730   32.0280 C.3     1  UNL1        0.0193
     10 C         -25.3360    0.6840   33.5440 C.3     1  UNL1        0.0202
     11 C         -24.8290   -0.7150   33.9050 C.3     1  UNL1        0.0887
     12 N         -24.7580   -1.4810   32.6460 N.3     1  UNL1       -0.2190
     13 C         -25.6880    1.6140   26.4610 C.3     1  UNL1        0.0922
     14 C         -26.2500    2.9200   26.3950 C.2     1  UNL1        0.0589
     15 C         -25.6420    4.0930   27.1230 C.2     1  UNL1        0.2628
     16 N         -25.6140    5.2520   26.4490 N.am    1  UNL1       -0.2000
     17 C         -25.0260    6.4790   26.9630 C.3     1  UNL1        0.1388
     18 O         -25.1430    3.9660   28.2430 O.2     1  UNL1       -0.2686
     19 C         -27.4380    3.0910   25.6450 C.2     1  UNL1        0.1025
     20 N         -28.0750    2.0890   25.0030 N.2     1  UNL1       -0.2118
     21 C         -27.5430    0.8490   25.0790 C.2     1  UNL1        0.2344
     22 O         -28.1930   -0.2080   24.4770 O.2     1  UNL1       -0.4585
     23 C         -29.4600    0.0050   23.8660 C.3     1  UNL1        0.2423
     24 C         -30.0650   -1.3770   23.5730 C.3     1  UNL1        0.2292
     25 O         -30.7290   -1.8780   24.7210 O.3     1  UNL1       -0.2162
     26 C         -26.3540    0.5760   25.7770 C.3     1  UNL1        0.2440
     27 F         -25.8600   -0.6810   25.7950 F       1  UNL1       -0.2265
     28 C         -22.1057    0.9300   28.2564 C.3     1  UNL1        0.1645
     29 N         -32.1979    3.5022   32.4091 N.2     1  UNL1       -0.2075
     30 C         -30.7231   -0.2075   28.6413 C.3     1  UNL1        0.0310
     31 C         -28.1813    0.0616   29.1151 C.2     1  UNL1        0.0296
     32 C         -24.1771    0.1441   29.4486 C.3     1  UNL1        0.1498
     33 C         -35.3051    1.0495   30.9701 C.3     1  UNL1        0.2488
     34 C         -28.4147   -0.9589   30.0389 C.2     1  UNL1        0.0011
     35 C         -29.5032    0.4473   28.3782 C.2     1  UNL1       -0.0148
     36 C         -29.7382    1.3669   27.5067 C.2     1  UNL1       -0.0040
     37 C         -23.3144    1.2873   27.2877 C.2     1  UNL1       -0.0178
     38 O         -35.6361    2.1198   31.8987 O.2     1  UNL1       -0.4669
     39 C         -24.7776    1.1986   27.5946 C.2     1  UNL1       -0.0153
     40 C         -29.6794   -1.4041   30.3587 C.2     1  UNL1       -0.0171
     41 C         -25.3233    0.6694   28.6469 C.2     1  UNL1        0.0352
     42 C         -30.8924   -4.4792   31.6409 C.3     1  UNL1        0.1744
     43 C         -30.6410   -1.9311   32.4150 C.3     1  UNL1        0.0338
     44 C         -33.7254    5.1373   32.9000 C.2     1  UNL1        0.0240
     45 C         -22.7924    2.0562   25.9789 C.3     1  UNL1        0.0286
     46 C         -31.9539   -0.8026   30.7797 C.3     1  UNL1        0.0079
     47 C         -33.1552    2.6400   32.1131 C.2     1  UNL1        0.2600
     48 C         -30.8332   -0.7987   29.9119 C.3     1  UNL1        0.0251
     49 O         -23.0054   -0.2294   28.8998 O.3     1  UNL1       -0.3465
     50 C         -26.8179    0.6344   28.9381 C.1     1  UNL1       -0.1044
     51 O         -32.8284    1.4895   31.4403 O.2     1  UNL1       -0.4580
     52 C         -33.8703    0.5935   31.2310 C.3     1  UNL1        0.2110
     53 O         -29.8423   -3.6928   31.0136 O.3     1  UNL1       -0.3495
     54 C         -31.7139   -1.0962   32.1304 C.3     1  UNL1        0.0033
     55 C         -29.9844   -2.3779   31.2897 C.3     1  UNL1        0.1336
     56 C         -32.4173    4.7114   32.7620 C.2     1  UNL1        0.1023
     57 C         -34.7304    4.2375   32.7366 C.2     1  UNL1        0.0433
     58 C         -34.5091    2.9106   32.3870 C.2     1  UNL1        0.1916
     59 C         -33.3918   -0.5811   30.3715 C.3     1  UNL1        0.0479
@<TRIPOS>BOND
     1     1     2    1
     2     2     7    1
     3     3     2    2
     4     4     3    1
     5     4     5    2
     6     5     6    1
     7     6     7    2
     8     8     1    1
     9     8     9    1
    10     8    12    1
    11     9    10    1
    12    10    11    1
    13    12    11    1
    14    13    39    1
    15    14    13    1
    16    14    15    1
    17    15    18    2
    18    16    17    1
    19    16    15    1
    20    19    14    2
    21    20    21    2
    22    20    19    1
    23    21    26    1
    24    22    21    1
    25    23    22    1
    26    24    23    1
    27    24    25    1
    28    26    27    1
    29    26    13    1
    30    28    49    1
    31    29    56    1
    32    31    34    1
    33    32     1    1
    34    33    52    1
    35    33    38    1
    36    34    40    2
    37    35    30    1
    38    35    31    1
    39    36    35    2
    40    37    39    2
    41    37    28    1
    42    38    58    1
    43    39    41    1
    44    40    55    1
    45    41    50    2
    46    41    32    1
    47    45    37    1
    48    46    59    1
    49    46    54    1
    50    47    58    1
    51    47    29    2
    52    48    30    1
    53    48    40    1
    54    48    46    1
    55    49    32    1
    56    50    31    2
    57    51    47    1
    58    52    59    1
    59    52    51    1
    60    53    42    1
    61    54    43    1
    62    55    53    1
    63    55    43    1
    64    56    44    2
    65    57    44    1
    66    58    57    2
