@<TRIPOS>MOLECULE
outputs/IAG933/test6/raw/output_5394_IAG933_linker_design_.xyz
 41 45 0 0 0
SMALL
GASTEIGER

@<TRIPOS>ATOM
      1 C         -24.8550   -1.0120   30.1430 C.3     1  UNL1        0.1150
      2 C         -24.9730   -2.5050   29.7880 C.2     1  UNL1       -0.0029
      3 C         -23.9060   -3.1730   29.1460 C.2     1  UNL1       -0.0026
      4 C         -23.9890   -4.5490   28.8530 C.2     1  UNL1       -0.0003
      5 C         -25.1370   -5.2800   29.2050 C.2     1  UNL1       -0.0000
      6 C         -26.2320   -4.6110   29.7840 C.2     1  UNL1       -0.0003
      7 C         -26.1550   -3.2320   30.0650 C.2     1  UNL1       -0.0026
      8 C         -25.3870   -0.6790   31.5710 C.3     1  UNL1        0.0952
      9 C         -25.1890    0.7730   32.0280 C.3     1  UNL1        0.0209
     10 C         -25.3360    0.6840   33.5440 C.3     1  UNL1        0.0203
     11 C         -24.8290   -0.7150   33.9050 C.3     1  UNL1        0.0888
     12 N         -24.7580   -1.4810   32.6460 N.3     1  UNL1       -0.2174
     13 C         -25.6880    1.6140   26.4610 C.2     1  UNL1        0.0223
     14 C         -26.2500    2.9200   26.3950 C.2     1  UNL1        0.0730
     15 C         -25.6420    4.0930   27.1230 C.2     1  UNL1        0.2661
     16 N         -25.6140    5.2520   26.4490 N.am    1  UNL1       -0.1997
     17 C         -25.0260    6.4790   26.9630 C.3     1  UNL1        0.1388
     18 O         -25.1430    3.9660   28.2430 O.2     1  UNL1       -0.2683
     19 C         -27.4380    3.0910   25.6450 C.2     1  UNL1        0.1064
     20 N         -28.0750    2.0890   25.0030 N.2     1  UNL1       -0.2081
     21 C         -27.5430    0.8490   25.0790 C.2     1  UNL1        0.2530
     22 O         -28.1930   -0.2080   24.4770 O.2     1  UNL1       -0.4558
     23 C         -29.4600    0.0050   23.8660 C.3     1  UNL1        0.2426
     24 C         -30.0650   -1.3770   23.5730 C.3     1  UNL1        0.2292
     25 O         -30.7290   -1.8780   24.7210 O.3     1  UNL1       -0.2162
     26 C         -26.3540    0.5760   25.7770 C.2     1  UNL1        0.1895
     27 F         -25.8600   -0.6810   25.7950 F       1  UNL1       -0.1996
     28 N         -24.2050   -0.2502   29.0745 N.am    1  UNL1       -0.2611
     29 C         -22.8821    0.0554   29.0441 C.2     1  UNL1        0.2480
     30 O         -21.4747    1.9251   25.9178 O.3     1  UNL1       -0.2978
     31 C         -22.9033    1.8933   25.6788 C.3     1  UNL1        0.3835
     32 O         -22.0865   -0.3375   29.8509 O.2     1  UNL1       -0.2702
     33 C         -25.1709    0.0724   28.1207 C.3     1  UNL1        0.1757
     34 C         -26.0506    1.0957   28.9675 C.1     1  UNL1        0.0933
     35 F         -23.3930    1.3249   24.5436 F       1  UNL1       -0.1706
     36 F         -23.3788    3.2295   25.5926 F       1  UNL1       -0.1706
     37 C         -21.2257    1.4987   27.3233 C.3     1  UNL1        0.1785
     38 C         -23.3855    1.2844   26.8816 C.2     1  UNL1        0.0539
     39 C         -24.6044    1.0598   27.0846 C.3     1  UNL1        0.0835
     40 N         -26.6880    1.8933   29.5636 N.1     1  UNL1       -0.1941
     41 C         -22.4173    0.9335   27.8594 C.2     1  UNL1        0.0611
@<TRIPOS>BOND
     1     1     2    1
     2     2     7    1
     3     3     2    2
     4     4     3    1
     5     4     5    2
     6     5     6    1
     7     6     7    2
     8     8     1    1
     9     8     9    1
    10     8    12    1
    11     9    10    1
    12    10    11    1
    13    12    11    1
    14    14    13    1
    15    14    15    1
    16    15    18    2
    17    16    17    1
    18    16    15    1
    19    19    14    2
    20    20    21    2
    21    20    19    1
    22    21    26    1
    23    22    21    1
    24    23    22    1
    25    24    23    1
    26    24    25    1
    27    26    27    1
    28    26    13    2
    29    28     1    1
    30    29    28   am
    31    29    32    2
    32    30    37    1
    33    31    30    1
    34    31    38    1
    35    33    34    1
    36    33    28    1
    37    34    40    3
    38    35    31    1
    39    36    31    1
    40    37    41    1
    41    38    39    1
    42    38    41    2
    43    39    13    1
    44    39    33    1
    45    41    29    1
