@<TRIPOS>MOLECULE
outputs/IAG933/test6/raw/output_540_IAG933_linker_design_.xyz
 42 46 0 0 0
SMALL
GASTEIGER

@<TRIPOS>ATOM
      1 C         -24.8550   -1.0120   30.1430 C.3     1  UNL1        0.1985
      2 C         -24.9730   -2.5050   29.7880 C.2     1  UNL1        0.0213
      3 C         -23.9060   -3.1730   29.1460 C.2     1  UNL1       -0.0004
      4 C         -23.9890   -4.5490   28.8530 C.2     1  UNL1       -0.0002
      5 C         -25.1370   -5.2800   29.2050 C.2     1  UNL1       -0.0000
      6 C         -26.2320   -4.6110   29.7840 C.2     1  UNL1       -0.0002
      7 C         -26.1550   -3.2320   30.0650 C.2     1  UNL1       -0.0004
      8 C         -25.3870   -0.6790   31.5710 C.3     1  UNL1        0.1197
      9 C         -25.1890    0.7730   32.0280 C.3     1  UNL1        0.0233
     10 C         -25.3360    0.6840   33.5440 C.3     1  UNL1        0.0204
     11 C         -24.8290   -0.7150   33.9050 C.3     1  UNL1        0.0889
     12 N         -24.7580   -1.4810   32.6460 N.3     1  UNL1       -0.2150
     13 C         -25.6880    1.6140   26.4610 C.3     1  UNL1        0.0769
     14 C         -26.2500    2.9200   26.3950 C.2     1  UNL1        0.0550
     15 C         -25.6420    4.0930   27.1230 C.2     1  UNL1        0.2624
     16 N         -25.6140    5.2520   26.4490 N.am    1  UNL1       -0.2000
     17 C         -25.0260    6.4790   26.9630 C.3     1  UNL1        0.1388
     18 O         -25.1430    3.9660   28.2430 O.2     1  UNL1       -0.2687
     19 C         -27.4380    3.0910   25.6450 C.2     1  UNL1        0.1021
     20 N         -28.0750    2.0890   25.0030 N.2     1  UNL1       -0.2119
     21 C         -27.5430    0.8490   25.0790 C.2     1  UNL1        0.2341
     22 O         -28.1930   -0.2080   24.4770 O.2     1  UNL1       -0.4585
     23 C         -29.4600    0.0050   23.8660 C.3     1  UNL1        0.2423
     24 C         -30.0650   -1.3770   23.5730 C.3     1  UNL1        0.2292
     25 O         -30.7290   -1.8780   24.7210 O.3     1  UNL1       -0.2162
     26 C         -26.3540    0.5760   25.7770 C.3     1  UNL1        0.2402
     27 F         -25.8600   -0.6810   25.7950 F       1  UNL1       -0.2269
     28 C         -27.4601    1.2909   28.9403 C.3     1  UNL1        0.1509
     29 C         -22.7575    0.7858   28.7223 C.2     1  UNL1        0.1955
     30 C         -26.5532    0.0983   28.7852 C.2     1  UNL1        0.3512
     31 C         -23.4078    1.7651   25.7544 C.3     1  UNL1        0.1470
     32 O         -28.2994   -1.4256   28.9202 O.2     1  UNL1       -0.2518
     33 O         -22.2119    2.1850   25.8485 O.3     1  UNL1       -0.3531
     34 C         -21.4371    1.9736   26.8905 C.3     1  UNL1        0.1501
     35 N         -27.0209   -1.1328   28.4474 N.2     1  UNL1        0.1554
     36 C         -21.5780    1.2360   28.0738 C.3     1  UNL1        0.1007
     37 C         -24.0072    0.7448   28.1231 C.3     1  UNL1        0.2198
     38 C         -29.0968   -0.4374   29.3877 C.2     1  UNL1        0.2381
     39 C         -28.7425    0.9324   29.2816 C.2     1  UNL1        0.0327
     40 N         -25.1258    0.0196   29.0177 N.pl3   1  UNL1       -0.1864
     41 C         -24.2845    1.3847   26.7799 C.3     1  UNL1        0.0871
     42 O         -22.5721    0.4551   29.9002 O.2     1  UNL1       -0.2918
@<TRIPOS>BOND
     1     1    40    1
     2     2     7    1
     3     2     1    1
     4     3     2    2
     5     4     3    1
     6     4     5    2
     7     5     6    1
     8     6     7    2
     9     8     1    1
    10     8     9    1
    11     8    12    1
    12     9    10    1
    13    10    11    1
    14    12    11    1
    15    13    14    1
    16    13    41    1
    17    14    15    1
    18    15    18    2
    19    16    17    1
    20    16    15    1
    21    19    14    2
    22    20    21    2
    23    20    19    1
    24    21    26    1
    25    22    21    1
    26    23    22    1
    27    24    23    1
    28    24    25    1
    29    26    27    1
    30    26    13    1
    31    28    39    1
    32    29    42    2
    33    30    28    1
    34    30    40    1
    35    31    33    1
    36    32    38    1
    37    33    34    1
    38    34    36    1
    39    35    30    2
    40    35    32    1
    41    36    29    1
    42    37    29    1
    43    37    40    1
    44    39    38    2
    45    41    31    1
    46    41    37    1
