@<TRIPOS>MOLECULE
outputs/IAG933/test6/raw/output_5400_IAG933_linker_design_.xyz
 44 49 0 0 0
SMALL
GASTEIGER

@<TRIPOS>ATOM
      1 C         -24.8550   -1.0120   30.1430 C.3     1  UNL1        0.0574
      2 C         -24.9730   -2.5050   29.7880 C.2     1  UNL1       -0.0174
      3 C         -23.9060   -3.1730   29.1460 C.2     1  UNL1       -0.0039
      4 C         -23.9890   -4.5490   28.8530 C.2     1  UNL1       -0.0003
      5 C         -25.1370   -5.2800   29.2050 C.2     1  UNL1       -0.0000
      6 C         -26.2320   -4.6110   29.7840 C.2     1  UNL1       -0.0003
      7 C         -26.1550   -3.2320   30.0650 C.2     1  UNL1       -0.0039
      8 C         -25.3870   -0.6790   31.5710 C.3     1  UNL1        0.0806
      9 C         -25.1890    0.7730   32.0280 C.3     1  UNL1        0.0195
     10 C         -25.3360    0.6840   33.5440 C.3     1  UNL1        0.0203
     11 C         -24.8290   -0.7150   33.9050 C.3     1  UNL1        0.0887
     12 N         -24.7580   -1.4810   32.6460 N.3     1  UNL1       -0.2188
     13 C         -25.6880    1.6140   26.4610 C.2     1  UNL1        0.0221
     14 C         -26.2500    2.9200   26.3950 C.2     1  UNL1        0.0730
     15 C         -25.6420    4.0930   27.1230 C.2     1  UNL1        0.2661
     16 N         -25.6140    5.2520   26.4490 N.am    1  UNL1       -0.1997
     17 C         -25.0260    6.4790   26.9630 C.3     1  UNL1        0.1388
     18 O         -25.1430    3.9660   28.2430 O.2     1  UNL1       -0.2683
     19 C         -27.4380    3.0910   25.6450 C.2     1  UNL1        0.1064
     20 N         -28.0750    2.0890   25.0030 N.2     1  UNL1       -0.2081
     21 C         -27.5430    0.8490   25.0790 C.2     1  UNL1        0.2530
     22 O         -28.1930   -0.2080   24.4770 O.2     1  UNL1       -0.4558
     23 C         -29.4600    0.0050   23.8660 C.3     1  UNL1        0.2426
     24 C         -30.0650   -1.3770   23.5730 C.3     1  UNL1        0.2292
     25 O         -30.7290   -1.8780   24.7210 O.3     1  UNL1       -0.2162
     26 C         -26.3540    0.5760   25.7770 C.2     1  UNL1        0.1895
     27 F         -25.8600   -0.6810   25.7950 F       1  UNL1       -0.1996
     28 C         -28.1237    1.7510   30.0875 C.3     1  UNL1        0.1156
     29 C         -27.3658   -0.2134   28.7076 C.3     1  UNL1        0.0258
     30 CL        -23.0166    2.1511   25.3015 Cl      1  UNL1       -0.1124
     31 C         -28.3744    4.0790   29.8234 C.3     1  UNL1        0.0346
     32 F         -20.9586    2.8194   27.2317 F       1  UNL1       -0.2325
     33 C         -25.8020   -0.2696   29.0810 C.2     1  UNL1       -0.0295
     34 C         -22.4986    0.5786   29.0556 C.3     1  UNL1        0.1127
     35 C         -23.2375    1.5548   26.9296 C.3     1  UNL1        0.1100
     36 C         -28.1571    0.5507   29.3000 C.3     1  UNL1        0.0339
     37 C         -21.0687    1.5124   27.4879 C.3     1  UNL1        0.2140
     38 C         -27.2859    3.0047   29.8591 C.3     1  UNL1        0.0321
     39 C         -22.4450    1.1755   27.8486 C.3     1  UNL1        0.1231
     40 N         -23.8165    0.3113   28.7599 N.pl3   1  UNL1       -0.3071
     41 C         -24.8817    0.3555   28.3977 C.2     1  UNL1        0.0224
     42 O         -29.4851    2.1674   30.0226 O.3     1  UNL1       -0.3562
     43 C         -29.5757    3.3555   29.2434 C.3     1  UNL1        0.1421
     44 C         -24.7777    1.2722   27.2912 C.3     1  UNL1        0.0767
@<TRIPOS>BOND
     1     1    33    1
     2     2     7    1
     3     2     1    1
     4     3     2    2
     5     4     3    1
     6     4     5    2
     7     5     6    1
     8     6     7    2
     9     8     1    1
    10     8     9    1
    11     8    12    1
    12     9    10    1
    13    10    11    1
    14    12    11    1
    15    14    13    1
    16    14    15    1
    17    15    18    2
    18    16    17    1
    19    16    15    1
    20    19    14    2
    21    20    21    2
    22    20    19    1
    23    21    26    1
    24    22    21    1
    25    23    22    1
    26    24    23    1
    27    24    25    1
    28    26    27    1
    29    26    13    2
    30    28    36    1
    31    29    33    1
    32    29    36    1
    33    31    38    1
    34    32    37    1
    35    35    30    1
    36    35    44    1
    37    35    39    1
    38    38    28    1
    39    39    37    1
    40    39    40    1
    41    39    34    1
    42    40    34    1
    43    41    40    1
    44    41    33    2
    45    42    28    1
    46    43    31    1
    47    43    42    1
    48    44    13    1
    49    44    41    1
