@<TRIPOS>MOLECULE
outputs/IAG933/test6/raw/output_5403_IAG933_linker_design_.xyz
 48 50 0 0 0
SMALL
GASTEIGER

@<TRIPOS>ATOM
      1 C         -24.8550   -1.0120   30.1430 C.3     1  UNL1        0.0462
      2 C         -24.9730   -2.5050   29.7880 C.2     1  UNL1       -0.0207
      3 C         -23.9060   -3.1730   29.1460 C.2     1  UNL1       -0.0042
      4 C         -23.9890   -4.5490   28.8530 C.2     1  UNL1       -0.0003
      5 C         -25.1370   -5.2800   29.2050 C.2     1  UNL1       -0.0000
      6 C         -26.2320   -4.6110   29.7840 C.2     1  UNL1       -0.0003
      7 C         -26.1550   -3.2320   30.0650 C.2     1  UNL1       -0.0042
      8 C         -25.3870   -0.6790   31.5710 C.3     1  UNL1        0.1042
      9 C         -25.1890    0.7730   32.0280 C.3     1  UNL1        0.1346
     10 C         -25.3360    0.6840   33.5440 C.3     1  UNL1        0.0498
     11 C         -24.8290   -0.7150   33.9050 C.3     1  UNL1        0.0913
     12 N         -24.7580   -1.4810   32.6460 N.3     1  UNL1       -0.2166
     13 C         -25.6880    1.6140   26.4610 C.2     1  UNL1        0.0407
     14 C         -26.2500    2.9200   26.3950 C.2     1  UNL1        0.0744
     15 C         -25.6420    4.0930   27.1230 C.2     1  UNL1        0.2220
     16 N         -25.6140    5.2520   26.4490 N.2     1  UNL1       -0.2357
     17 C         -25.0260    6.4790   26.9630 C.3     1  UNL1        0.1550
     18 O         -25.1430    3.9660   28.2430 O.2     1  UNL1       -0.4595
     19 C         -27.4380    3.0910   25.6450 C.2     1  UNL1        0.1068
     20 N         -28.0750    2.0890   25.0030 N.2     1  UNL1       -0.2081
     21 C         -27.5430    0.8490   25.0790 C.2     1  UNL1        0.2533
     22 O         -28.1930   -0.2080   24.4770 O.2     1  UNL1       -0.4558
     23 C         -29.4600    0.0050   23.8660 C.3     1  UNL1        0.2426
     24 C         -30.0650   -1.3770   23.5730 C.3     1  UNL1        0.2292
     25 O         -30.7290   -1.8780   24.7210 O.3     1  UNL1       -0.2162
     26 C         -26.3540    0.5760   25.7770 C.2     1  UNL1        0.1931
     27 F         -25.8600   -0.6810   25.7950 F       1  UNL1       -0.1992
     28 C         -25.4503    2.4749   30.1226 C.3     1  UNL1        0.2337
     29 C         -27.6996    4.8565   30.3408 C.2     1  UNL1        0.2534
     30 O         -22.4001    0.7920   28.8367 O.3     1  UNL1       -0.4291
     31 C         -25.8433    6.8161   31.6127 C.1     1  UNL1        0.0738
     32 C         -20.6099    1.3426   27.4459 C.3     1  UNL1        0.1212
     33 N         -24.1712    2.0138   29.7367 N.3     1  UNL1       -0.1452
     34 N         -25.9895    7.8572   31.4726 N.1     1  UNL1       -0.1958
     35 C         -30.2670    5.7795   29.1706 C.3     1  UNL1        0.1166
     36 O         -28.5140    7.9408   31.1907 O.2     1  UNL1       -0.2503
     37 O         -22.6779    2.3972   27.2684 O.2     1  UNL1       -0.2500
     38 C         -28.7703    6.9393   30.5971 C.2     1  UNL1        0.3299
     39 C         -25.7972    5.4708   31.4633 C.3     1  UNL1        0.1183
     40 O         -28.2607    4.1170   29.5294 O.2     1  UNL1       -0.2727
     41 N         -29.4690    6.9694   29.4748 N.am    1  UNL1       -0.2590
     42 C         -23.7565    0.7914   29.2253 C.3     1  UNL1        0.3040
     43 C         -21.9955    1.5792   27.8582 C.2     1  UNL1        0.3188
     44 N         -28.3959    5.7502   31.0914 N.am    1  UNL1       -0.1273
     45 C         -26.3636    4.7566   30.4432 C.3     1  UNL1        0.1376
     46 O         -25.7670    2.0354   31.5263 O.3     1  UNL1       -0.3376
     47 C         -25.6126    3.9197   29.5491 C.3     1  UNL1        0.2210
     48 C         -28.8017    7.7539   28.4126 C.3     1  UNL1        0.1166
@<TRIPOS>BOND
     1     2     7    1
     2     2     1    1
     3     3     2    2
     4     4     3    1
     5     4     5    2
     6     5     6    1
     7     6     7    2
     8     8     1    1
     9     8     9    1
    10     8    12    1
    11     9    46    1
    12     9    10    1
    13    10    11    1
    14    12    11    1
    15    14    13    1
    16    14    15    1
    17    15    18    1
    18    16    17    1
    19    16    15    2
    20    19    14    2
    21    20    21    2
    22    20    19    1
    23    21    26    1
    24    22    21    1
    25    23    22    1
    26    24    23    1
    27    24    25    1
    28    26    27    1
    29    26    13    2
    30    28    33    1
    31    28    46    1
    32    29    45    1
    33    29    44    1
    34    30    42    1
    35    32    43    1
    36    34    31    3
    37    35    41    1
    38    37    43    2
    39    38    44    1
    40    38    36    2
    41    39    31    1
    42    40    29    2
    43    41    38   am
    44    42    33    1
    45    43    30    1
    46    45    39    1
    47    47    18    1
    48    47    28    1
    49    47    45    1
    50    48    41    1
