@<TRIPOS>MOLECULE
outputs/IAG933/test6/raw/output_5404_IAG933_linker_design_.xyz
 47 50 0 0 0
SMALL
GASTEIGER

@<TRIPOS>ATOM
      1 C         -24.8550   -1.0120   30.1430 C.3     1  UNL1        0.0398
      2 C         -24.9730   -2.5050   29.7880 C.2     1  UNL1       -0.0211
      3 C         -23.9060   -3.1730   29.1460 C.2     1  UNL1       -0.0042
      4 C         -23.9890   -4.5490   28.8530 C.2     1  UNL1       -0.0003
      5 C         -25.1370   -5.2800   29.2050 C.2     1  UNL1       -0.0000
      6 C         -26.2320   -4.6110   29.7840 C.2     1  UNL1       -0.0003
      7 C         -26.1550   -3.2320   30.0650 C.2     1  UNL1       -0.0042
      8 C         -25.3870   -0.6790   31.5710 C.3     1  UNL1        0.0768
      9 C         -25.1890    0.7730   32.0280 C.3     1  UNL1        0.0192
     10 C         -25.3360    0.6840   33.5440 C.3     1  UNL1        0.0202
     11 C         -24.8290   -0.7150   33.9050 C.3     1  UNL1        0.0887
     12 N         -24.7580   -1.4810   32.6460 N.3     1  UNL1       -0.2191
     13 C         -25.6880    1.6140   26.4610 C.2     1  UNL1        0.0303
     14 C         -26.2500    2.9200   26.3950 C.2     1  UNL1        0.0738
     15 C         -25.6420    4.0930   27.1230 C.2     1  UNL1        0.2662
     16 N         -25.6140    5.2520   26.4490 N.am    1  UNL1       -0.1997
     17 C         -25.0260    6.4790   26.9630 C.3     1  UNL1        0.1388
     18 O         -25.1430    3.9660   28.2430 O.2     1  UNL1       -0.2683
     19 C         -27.4380    3.0910   25.6450 C.2     1  UNL1        0.1065
     20 N         -28.0750    2.0890   25.0030 N.2     1  UNL1       -0.2081
     21 C         -27.5430    0.8490   25.0790 C.2     1  UNL1        0.2530
     22 O         -28.1930   -0.2080   24.4770 O.2     1  UNL1       -0.4558
     23 C         -29.4600    0.0050   23.8660 C.3     1  UNL1        0.2426
     24 C         -30.0650   -1.3770   23.5730 C.3     1  UNL1        0.2292
     25 O         -30.7290   -1.8780   24.7210 O.3     1  UNL1       -0.2162
     26 C         -26.3540    0.5760   25.7770 C.2     1  UNL1        0.1904
     27 F         -25.8600   -0.6810   25.7950 F       1  UNL1       -0.1995
     28 C         -25.8460    4.7991   31.6876 C.3     1  UNL1        0.1417
     29 C         -25.9061   -0.4079   29.1280 C.3     1  UNL1        0.0243
     30 O         -28.5321    4.3482   31.9273 O.3     1  UNL1       -0.4144
     31 O         -22.5806    6.5270   33.2825 O.3     1  UNL1       -0.1841
     32 N         -24.3838    1.2559   28.5826 N.3     1  UNL1       -0.2693
     33 C         -24.3404    1.3658   27.1149 C.3     1  UNL1        0.0827
     34 C         -27.1230    1.8810   29.6527 C.3     1  UNL1        0.1626
     35 C         -22.4406    2.2631   25.6024 C.3     1  UNL1        0.0018
     36 C         -22.9541    0.7393   28.7654 C.3     1  UNL1        0.0724
     37 C         -22.9634    2.1178   26.9787 C.3     1  UNL1        0.0203
     38 O         -27.4530    3.1620   30.2664 O.3     1  UNL1       -0.3098
     39 C         -23.4886    6.4826   34.3392 C.3     1  UNL1        0.3289
     40 O         -27.0257    4.2355   33.6950 O.2     1  UNL1       -0.2499
     41 C         -22.2118    1.6425   28.1535 C.3     1  UNL1        0.0190
     42 S         -30.0344    3.2866   32.2405 S.3     1  UNL1       -0.0017
     43 C         -25.9022    1.1794   28.9649 C.3     1  UNL1        0.0880
     44 O         -24.7773    5.9028   33.9100 O.3     1  UNL1       -0.3241
     45 C         -27.1256    4.4071   32.5626 C.2     1  UNL1        0.3219
     46 C         -24.6299    5.2361   32.5963 C.3     1  UNL1        0.1567
     47 C         -28.5078    3.2752   31.1637 C.3     1  UNL1        0.3546
@<TRIPOS>BOND
     1     1    29    1
     2     2     7    1
     3     2     1    1
     4     3     2    2
     5     4     3    1
     6     4     5    2
     7     5     6    1
     8     6     7    2
     9     8     1    1
    10     8     9    1
    11     8    12    1
    12     9    10    1
    13    10    11    1
    14    12    11    1
    15    14    13    1
    16    14    15    1
    17    15    18    2
    18    16    17    1
    19    16    15    1
    20    19    14    2
    21    20    21    2
    22    20    19    1
    23    21    26    1
    24    22    21    1
    25    23    22    1
    26    24    23    1
    27    24    25    1
    28    26    27    1
    29    26    13    2
    30    28    45    1
    31    28    46    1
    32    30    45    1
    33    31    39    1
    34    32    36    1
    35    32    43    1
    36    33    13    1
    37    33    32    1
    38    34    38    1
    39    37    35    1
    40    37    33    1
    41    37    41    1
    42    38    47    1
    43    41    36    1
    44    43    29    1
    45    43    34    1
    46    44    39    1
    47    45    40    2
    48    46    44    1
    49    47    30    1
    50    47    42    1
