@<TRIPOS>MOLECULE
outputs/IAG933/test6/raw/output_5405_IAG933_linker_design_.xyz
 41 45 0 0 0
SMALL
GASTEIGER

@<TRIPOS>ATOM
      1 C         -24.8550   -1.0120   30.1430 C.3     1  UNL1        0.0569
      2 C         -24.9730   -2.5050   29.7880 C.2     1  UNL1       -0.0197
      3 C         -23.9060   -3.1730   29.1460 C.2     1  UNL1       -0.0042
      4 C         -23.9890   -4.5490   28.8530 C.2     1  UNL1       -0.0003
      5 C         -25.1370   -5.2800   29.2050 C.2     1  UNL1       -0.0000
      6 C         -26.2320   -4.6110   29.7840 C.2     1  UNL1       -0.0003
      7 C         -26.1550   -3.2320   30.0650 C.2     1  UNL1       -0.0042
      8 C         -25.3870   -0.6790   31.5710 C.3     1  UNL1        0.0782
      9 C         -25.1890    0.7730   32.0280 C.3     1  UNL1        0.0192
     10 C         -25.3360    0.6840   33.5440 C.3     1  UNL1        0.0202
     11 C         -24.8290   -0.7150   33.9050 C.3     1  UNL1        0.0887
     12 N         -24.7580   -1.4810   32.6460 N.3     1  UNL1       -0.2191
     13 C         -25.6880    1.6140   26.4610 C.2     1  UNL1        0.0172
     14 C         -26.2500    2.9200   26.3950 C.2     1  UNL1        0.0726
     15 C         -25.6420    4.0930   27.1230 C.2     1  UNL1        0.2661
     16 N         -25.6140    5.2520   26.4490 N.am    1  UNL1       -0.1997
     17 C         -25.0260    6.4790   26.9630 C.3     1  UNL1        0.1388
     18 O         -25.1430    3.9660   28.2430 O.2     1  UNL1       -0.2683
     19 C         -27.4380    3.0910   25.6450 C.2     1  UNL1        0.1064
     20 N         -28.0750    2.0890   25.0030 N.2     1  UNL1       -0.2081
     21 C         -27.5430    0.8490   25.0790 C.2     1  UNL1        0.2530
     22 O         -28.1930   -0.2080   24.4770 O.2     1  UNL1       -0.4558
     23 C         -29.4600    0.0050   23.8660 C.3     1  UNL1        0.2426
     24 C         -30.0650   -1.3770   23.5730 C.3     1  UNL1        0.2292
     25 O         -30.7290   -1.8780   24.7210 O.3     1  UNL1       -0.2162
     26 C         -26.3540    0.5760   25.7770 C.2     1  UNL1        0.1892
     27 F         -25.8600   -0.6810   25.7950 F       1  UNL1       -0.1996
     28 N         -24.5605    1.0299   28.8807 N.3     1  UNL1       -0.2155
     29 C         -22.1595    1.9423   26.0246 C.3     1  UNL1        0.3308
     30 C         -23.3064    2.2242   26.7325 C.3     1  UNL1        0.0988
     31 CA        -25.2249   -0.1587   28.8990 C.3     1  UNL1        0.1110
     32 C         -26.6159   -0.1521   28.8768 C.3     1  UNL1        0.1997
     33 C         -24.3224    1.3178   27.0187 C.3     1  UNL1        0.0506
     34 O         -22.3602    0.4604   29.8514 O.3     1  UNL1       -0.2096
     35 C         -23.5990    1.3248   27.8655 C.3     1  UNL1        0.1085
     36 O         -27.6604   -0.1518   28.9476 O.3     1  UNL1       -0.2189
     37 F         -22.4324    2.3872   24.8580 F       1  UNL1       -0.1885
     38 C         -21.3204    0.7515   27.7422 C.2     1  UNL1        0.3511
     39 O         -21.1825    1.4121   26.6138 O.3     1  UNL1       -0.4182
     40 O         -20.3008   -0.0580   28.2126 O.2     1  UNL1       -0.2472
     41 C         -22.2910    0.8356   28.5722 C.3     1  UNL1        0.2646
@<TRIPOS>BOND
     1     1    31    1
     2     2     7    1
     3     2     1    1
     4     3     2    2
     5     4     3    1
     6     4     5    2
     7     5     6    1
     8     6     7    2
     9     8     1    1
    10     8     9    1
    11     8    12    1
    12     9    10    1
    13    10    11    1
    14    12    11    1
    15    13    33    1
    16    14    13    1
    17    14    15    1
    18    15    18    2
    19    16    17    1
    20    16    15    1
    21    19    14    2
    22    20    21    2
    23    20    19    1
    24    21    26    1
    25    22    21    1
    26    23    22    1
    27    24    23    1
    28    24    25    1
    29    26    27    1
    30    26    13    2
    31    28    31    1
    32    29    37    1
    33    29    39    1
    34    29    30    1
    35    30    33    1
    36    30    35    1
    37    32    31    1
    38    32    36    1
    39    33    35    1
    40    35    41    1
    41    35    28    1
    42    38    40    2
    43    38    41    1
    44    39    38    1
    45    41    34    1
