@<TRIPOS>MOLECULE
No_541-gen_results/8p0m/2024-11-27-11-27-31/
 8 8 0 0 0
SMALL
GASTEIGER

@<TRIPOS>ATOM
      1 C         -28.0162   -0.8135   28.8779 C.ar    1  UNL1        0.0137
      2 C         -28.4690   -0.7850   29.8287 C.ar    1  UNL1        0.0305
      3 C         -26.5455   -0.8762   28.8500 C.ar    1  UNL1        0.0578
      4 C         -25.8041   -1.0324   30.0571 C.ar    1  UNL1        0.0137
      5 C         -26.5373   -1.0386   31.2171 C.ar    1  UNL1        0.0305
      6 C         -27.8929   -0.9601   31.1743 C.ar    1  UNL1        0.1402
      7 CL        -25.4856   -0.8768   27.4819 Cl      1  UNL1       -0.0822
      8 F         -28.6052   -0.9378   32.3068 F       1  UNL1       -0.2042
@<TRIPOS>BOND
     1     3     7    1
     2     6     8    1
     3     1     2   ar
     4     2     6   ar
     5     6     5   ar
     6     5     4   ar
     7     4     3   ar
     8     3     1   ar
