@<TRIPOS>MOLECULE
outputs/IAG933/test6/raw/output_5417_IAG933_linker_design_.xyz
 45 48 0 0 0
SMALL
GASTEIGER

@<TRIPOS>ATOM
      1 C         -24.8550   -1.0120   30.1430 C.3     1  UNL1        0.0400
      2 C         -24.9730   -2.5050   29.7880 C.2     1  UNL1       -0.0211
      3 C         -23.9060   -3.1730   29.1460 C.2     1  UNL1       -0.0042
      4 C         -23.9890   -4.5490   28.8530 C.2     1  UNL1       -0.0003
      5 C         -25.1370   -5.2800   29.2050 C.2     1  UNL1       -0.0000
      6 C         -26.2320   -4.6110   29.7840 C.2     1  UNL1       -0.0003
      7 C         -26.1550   -3.2320   30.0650 C.2     1  UNL1       -0.0042
      8 C         -25.3870   -0.6790   31.5710 C.3     1  UNL1        0.0769
      9 C         -25.1890    0.7730   32.0280 C.3     1  UNL1        0.0192
     10 C         -25.3360    0.6840   33.5440 C.3     1  UNL1        0.0202
     11 C         -24.8290   -0.7150   33.9050 C.3     1  UNL1        0.0887
     12 N         -24.7580   -1.4810   32.6460 N.3     1  UNL1       -0.2191
     13 C         -25.6880    1.6140   26.4610 C.3     1  UNL1        0.0719
     14 C         -26.2500    2.9200   26.3950 C.2     1  UNL1        0.0549
     15 C         -25.6420    4.0930   27.1230 C.2     1  UNL1        0.2624
     16 N         -25.6140    5.2520   26.4490 N.am    1  UNL1       -0.2000
     17 C         -25.0260    6.4790   26.9630 C.3     1  UNL1        0.1388
     18 O         -25.1430    3.9660   28.2430 O.2     1  UNL1       -0.2687
     19 C         -27.4380    3.0910   25.6450 C.2     1  UNL1        0.1021
     20 N         -28.0750    2.0890   25.0030 N.2     1  UNL1       -0.2119
     21 C         -27.5430    0.8490   25.0790 C.2     1  UNL1        0.2341
     22 O         -28.1930   -0.2080   24.4770 O.2     1  UNL1       -0.4585
     23 C         -29.4600    0.0050   23.8660 C.3     1  UNL1        0.2423
     24 C         -30.0650   -1.3770   23.5730 C.3     1  UNL1        0.2292
     25 O         -30.7290   -1.8780   24.7210 O.3     1  UNL1       -0.2162
     26 C         -26.3540    0.5760   25.7770 C.3     1  UNL1        0.2400
     27 F         -25.8600   -0.6810   25.7950 F       1  UNL1       -0.2269
     28 C         -31.1314    2.2291   26.9029 C.2     1  UNL1        0.0202
     29 O         -32.5000    1.7369   25.0030 O.2     1  UNL1       -0.2869
     30 S         -22.7224    1.0461   28.8794 S.O2    1  UNL1       -0.0099
     31 C         -32.0240   -0.0860   26.5521 C.2     1  UNL1        0.0417
     32 C         -30.5017   -0.3994   28.5148 C.2     1  UNL1       -0.0081
     33 C         -24.2353    1.3445   26.8492 C.3     1  UNL1        0.0314
     34 C         -30.3395    2.0603   28.0389 C.3     1  UNL1        0.0513
     35 C         -21.7566    1.7077   27.6488 C.3     1  UNL1        0.1760
     36 C         -31.9301    1.2774   26.1541 C.2     1  UNL1        0.1918
     37 C         -30.0059    0.8434   28.8116 C.2     1  UNL1       -0.0398
     38 C         -29.0610    0.8558   29.9285 C.3     1  UNL1        0.0224
     39 C         -24.4792    0.9039   28.2506 C.3     1  UNL1        0.1299
     40 C         -25.3637   -0.0995   28.9946 C.3     1  UNL1        0.0273
     41 C         -31.4164   -0.8524   27.5684 C.2     1  UNL1        0.0026
     42 O         -22.2508   -0.3192   29.1668 O.2     1  UNL1       -0.1730
     43 C         -26.7524    0.6286   28.9500 C.3     1  UNL1        0.0024
     44 C         -27.8641   -0.0802   29.6812 C.3     1  UNL1        0.0044
     45 O         -23.0500    1.8517   30.1306 O.2     1  UNL1       -0.1730
@<TRIPOS>BOND
     1     1    40    1
     2     2     7    1
     3     2     1    1
     4     3     2    2
     5     4     3    1
     6     4     5    2
     7     5     6    1
     8     6     7    2
     9     8     1    1
    10     8     9    1
    11     8    12    1
    12     9    10    1
    13    10    11    1
    14    12    11    1
    15    13    33    1
    16    14    13    1
    17    14    15    1
    18    15    18    2
    19    16    17    1
    20    16    15    1
    21    19    14    2
    22    20    21    2
    23    20    19    1
    24    21    26    1
    25    22    21    1
    26    23    22    1
    27    24    23    1
    28    24    25    1
    29    26    27    1
    30    26    13    1
    31    28    34    1
    32    29    36    1
    33    30    42    2
    34    30    45    2
    35    31    41    2
    36    32    37    2
    37    34    37    1
    38    35    30    1
    39    36    31    1
    40    36    28    2
    41    37    38    1
    42    39    33    1
    43    39    30    1
    44    39    40    1
    45    40    43    1
    46    41    32    1
    47    43    44    1
    48    44    38    1
