@<TRIPOS>MOLECULE
outputs/IAG933/test6/raw/output_5422_IAG933_linker_design_.xyz
 47 53 0 0 0
SMALL
GASTEIGER

@<TRIPOS>ATOM
      1 C         -24.8550   -1.0120   30.1430 C.3     1  UNL1        0.0415
      2 C         -24.9730   -2.5050   29.7880 C.2     1  UNL1       -0.0210
      3 C         -23.9060   -3.1730   29.1460 C.2     1  UNL1       -0.0042
      4 C         -23.9890   -4.5490   28.8530 C.2     1  UNL1       -0.0003
      5 C         -25.1370   -5.2800   29.2050 C.2     1  UNL1       -0.0000
      6 C         -26.2320   -4.6110   29.7840 C.2     1  UNL1       -0.0003
      7 C         -26.1550   -3.2320   30.0650 C.2     1  UNL1       -0.0042
      8 C         -25.3870   -0.6790   31.5710 C.3     1  UNL1        0.0837
      9 C         -25.1890    0.7730   32.0280 C.3     1  UNL1        0.0754
     10 C         -25.3360    0.6840   33.5440 C.3     1  UNL1        0.0275
     11 C         -24.8290   -0.7150   33.9050 C.3     1  UNL1        0.0891
     12 N         -24.7580   -1.4810   32.6460 N.3     1  UNL1       -0.2187
     13 C         -25.6880    1.6140   26.4610 C.3     1  UNL1        0.0729
     14 C         -26.2500    2.9200   26.3950 C.2     1  UNL1        0.0549
     15 C         -25.6420    4.0930   27.1230 C.2     1  UNL1        0.2624
     16 N         -25.6140    5.2520   26.4490 N.am    1  UNL1       -0.2000
     17 C         -25.0260    6.4790   26.9630 C.3     1  UNL1        0.1388
     18 O         -25.1430    3.9660   28.2430 O.2     1  UNL1       -0.2687
     19 C         -27.4380    3.0910   25.6450 C.2     1  UNL1        0.1021
     20 N         -28.0750    2.0890   25.0030 N.2     1  UNL1       -0.2119
     21 C         -27.5430    0.8490   25.0790 C.2     1  UNL1        0.2341
     22 O         -28.1930   -0.2080   24.4770 O.2     1  UNL1       -0.4585
     23 C         -29.4600    0.0050   23.8660 C.3     1  UNL1        0.2423
     24 C         -30.0650   -1.3770   23.5730 C.3     1  UNL1        0.2292
     25 O         -30.7290   -1.8780   24.7210 O.3     1  UNL1       -0.2162
     26 C         -26.3540    0.5760   25.7770 C.3     1  UNL1        0.2401
     27 F         -25.8600   -0.6810   25.7950 F       1  UNL1       -0.2269
     28 O         -21.0321    1.8412   25.7841 O.2     1  UNL1       -0.4185
     29 O         -23.4845    2.1215   25.5697 O.3     1  UNL1       -0.3138
     30 C         -25.9298    1.7116   31.3261 C.2     1  UNL1        0.1537
     31 C         -22.8889    1.7032   29.8499 C.3     1  UNL1        0.1735
     32 O         -20.4085    1.3465   27.9499 O.2     1  UNL1       -0.3967
     33 O         -21.6301   -0.7407   28.6065 O.3     1  UNL1       -0.2907
     34 C         -23.5938    1.3453   26.8584 C.3     1  UNL1        0.1461
     35 C         -24.3038    3.4897   31.3832 C.3     1  UNL1        0.1495
     36 C         -24.2571   -0.2546   28.8768 C.3     1  UNL1        0.0400
     37 C         -22.2238    2.1248   24.9347 C.3     1  UNL1        0.3632
     38 O         -26.6283    1.4679   30.3459 O.2     1  UNL1       -0.2960
     39 C         -20.6786   -0.0273   28.2164 C.3     1  UNL1        0.4722
     40 C         -24.8166    1.0694   27.6481 C.3     1  UNL1        0.0420
     41 C         -22.7522    0.4446   28.8030 C.3     1  UNL1        0.1495
     42 C         -25.7434    3.1895   31.8646 C.3     1  UNL1        0.0872
     43 C         -25.6332    4.2933   33.0325 C.3     1  UNL1        0.0104
     44 F         -19.7694   -0.7927   27.5354 F       1  UNL1       -0.1586
     45 O         -23.6483    2.6317   30.3310 O.3     1  UNL1       -0.3505
     46 C         -22.6336    1.1544   27.4095 C.2     1  UNL1        0.0808
     47 C         -21.2498    1.4838   26.9156 C.2     1  UNL1        0.2936
@<TRIPOS>BOND
     1     1     2    1
     2     1     8    1
     3     2     7    1
     4     3     2    2
     5     4     3    1
     6     4     5    2
     7     5     6    1
     8     6     7    2
     9     8     9    1
    10     8    12    1
    11     9    10    1
    12    10    11    1
    13    12    11    1
    14    13    14    1
    15    13    40    1
    16    14    15    1
    17    15    18    2
    18    16    17    1
    19    16    15    1
    20    19    14    2
    21    20    21    2
    22    20    19    1
    23    21    26    1
    24    22    21    1
    25    23    22    1
    26    24    23    1
    27    24    25    1
    28    26    27    1
    29    26    13    1
    30    28    47    1
    31    30    42    1
    32    30     9    1
    33    31    45    1
    34    32    39    1
    35    33    41    1
    36    34    29    1
    37    34    46    1
    38    34    40    1
    39    35    42    1
    40    36     1    1
    41    37    29    1
    42    37    28    1
    43    38    30    2
    44    39    33    1
    45    40    36    1
    46    41    36    1
    47    41    31    1
    48    42    43    1
    49    44    39    1
    50    45    35    1
    51    46    41    1
    52    47    46    2
    53    47    32    1
