@<TRIPOS>MOLECULE
outputs/IAG933/test6/raw/output_5426_IAG933_linker_design_.xyz
 45 48 0 0 0
SMALL
GASTEIGER

@<TRIPOS>ATOM
      1 C         -24.8550   -1.0120   30.1430 C.3     1  UNL1        0.0446
      2 C         -24.9730   -2.5050   29.7880 C.2     1  UNL1       -0.0208
      3 C         -23.9060   -3.1730   29.1460 C.2     1  UNL1       -0.0042
      4 C         -23.9890   -4.5490   28.8530 C.2     1  UNL1       -0.0003
      5 C         -25.1370   -5.2800   29.2050 C.2     1  UNL1       -0.0000
      6 C         -26.2320   -4.6110   29.7840 C.2     1  UNL1       -0.0003
      7 C         -26.1550   -3.2320   30.0650 C.2     1  UNL1       -0.0042
      8 C         -25.3870   -0.6790   31.5710 C.3     1  UNL1        0.0890
      9 C         -25.1890    0.7730   32.0280 C.3     1  UNL1        0.0895
     10 C         -25.3360    0.6840   33.5440 C.3     1  UNL1        0.0330
     11 C         -24.8290   -0.7150   33.9050 C.3     1  UNL1        0.0897
     12 N         -24.7580   -1.4810   32.6460 N.3     1  UNL1       -0.2182
     13 C         -25.6880    1.6140   26.4610 C.2     1  UNL1        0.0568
     14 C         -26.2500    2.9200   26.3950 C.2     1  UNL1        0.0780
     15 C         -25.6420    4.0930   27.1230 C.2     1  UNL1        0.2665
     16 N         -25.6140    5.2520   26.4490 N.am    1  UNL1       -0.1997
     17 C         -25.0260    6.4790   26.9630 C.3     1  UNL1        0.1388
     18 O         -25.1430    3.9660   28.2430 O.2     1  UNL1       -0.2683
     19 C         -27.4380    3.0910   25.6450 C.2     1  UNL1        0.1068
     20 N         -28.0750    2.0890   25.0030 N.2     1  UNL1       -0.2081
     21 C         -27.5430    0.8490   25.0790 C.2     1  UNL1        0.2533
     22 O         -28.1930   -0.2080   24.4770 O.2     1  UNL1       -0.4558
     23 C         -29.4600    0.0050   23.8660 C.3     1  UNL1        0.2426
     24 C         -30.0650   -1.3770   23.5730 C.3     1  UNL1        0.2292
     25 O         -30.7290   -1.8780   24.7210 O.3     1  UNL1       -0.2162
     26 C         -26.3540    0.5760   25.7770 C.2     1  UNL1        0.1945
     27 F         -25.8600   -0.6810   25.7950 F       1  UNL1       -0.1992
     28 O         -21.6499    1.6050   27.3537 O.3     1  UNL1       -0.3334
     29 C         -24.8455    5.2026   32.1582 C.2     1  UNL1       -0.0034
     30 C         -25.4324    7.1861   30.8867 C.2     1  UNL1       -0.0043
     31 S         -25.6121    2.0159   31.0416 S.3     1  UNL1       -0.0041
     32 C         -26.7754    5.1884   30.6150 C.2     1  UNL1       -0.0076
     33 O         -26.8292    1.6760   30.2091 O.3     1  UNL1       -0.1554
     34 N         -24.3364    2.0218   30.0946 N.3     1  UNL1       -0.1500
     35 C         -21.9105    1.6746   26.0096 C.3     1  UNL1        0.1445
     36 C         -25.8946    4.5184   31.5475 C.2     1  UNL1       -0.0097
     37 N         -23.7163    1.6026   27.6438 N.2     1  UNL1       -0.2403
     38 C         -22.7819    1.4988   29.7080 C.3     1  UNL1        0.1576
     39 C         -24.5959    6.5200   31.7707 C.2     1  UNL1       -0.0006
     40 C         -26.5464    6.5407   30.3405 C.2     1  UNL1       -0.0221
     41 C         -22.6834    2.5341   25.0518 C.3     1  UNL1        0.0347
     42 C         -22.6917    1.5640   28.2192 C.3     1  UNL1        0.2382
     43 C         -27.5486    7.3196   29.5490 C.3     1  UNL1        0.0310
     44 C         -24.5427    1.1520   27.2236 C.2     1  UNL1        0.0984
     45 C         -26.0463    3.2344   31.9760 C.3     1  UNL1        0.1094
@<TRIPOS>BOND
     1     2     7    1
     2     2     1    1
     3     3     2    2
     4     4     3    1
     5     4     5    2
     6     5     6    1
     7     6     7    2
     8     8     1    1
     9     8     9    1
    10     8    12    1
    11     9    31    1
    12     9    10    1
    13    10    11    1
    14    12    11    1
    15    13    44    1
    16    14    13    1
    17    14    15    1
    18    15    18    2
    19    16    17    1
    20    16    15    1
    21    19    14    2
    22    20    21    2
    23    20    19    1
    24    21    26    1
    25    22    21    1
    26    23    22    1
    27    24    23    1
    28    24    25    1
    29    26    27    1
    30    26    13    2
    31    28    42    1
    32    30    39    2
    33    31    33    1
    34    31    45    1
    35    32    36    1
    36    34    31    1
    37    35    28    1
    38    36    45    1
    39    36    29    2
    40    37    42    1
    41    38    34    1
    42    39    29    1
    43    40    32    2
    44    40    30    1
    45    41    35    1
    46    42    38    1
    47    43    40    1
    48    44    37    2
