@<TRIPOS>MOLECULE
outputs/IAG933/test6/raw/output_543_IAG933_linker_design_.xyz
 40 43 0 0 0
SMALL
GASTEIGER

@<TRIPOS>ATOM
      1 C         -24.8550   -1.0120   30.1430 C.3     1  UNL1        0.0644
      2 C         -24.9730   -2.5050   29.7880 C.2     1  UNL1       -0.0169
      3 C         -23.9060   -3.1730   29.1460 C.2     1  UNL1       -0.0039
      4 C         -23.9890   -4.5490   28.8530 C.2     1  UNL1       -0.0003
      5 C         -25.1370   -5.2800   29.2050 C.2     1  UNL1       -0.0000
      6 C         -26.2320   -4.6110   29.7840 C.2     1  UNL1       -0.0003
      7 C         -26.1550   -3.2320   30.0650 C.2     1  UNL1       -0.0039
      8 C         -25.3870   -0.6790   31.5710 C.3     1  UNL1        0.0810
      9 C         -25.1890    0.7730   32.0280 C.3     1  UNL1        0.0195
     10 C         -25.3360    0.6840   33.5440 C.3     1  UNL1        0.0203
     11 C         -24.8290   -0.7150   33.9050 C.3     1  UNL1        0.0887
     12 N         -24.7580   -1.4810   32.6460 N.3     1  UNL1       -0.2188
     13 C         -25.6880    1.6140   26.4610 C.3     1  UNL1        0.0933
     14 C         -26.2500    2.9200   26.3950 C.2     1  UNL1        0.0589
     15 C         -25.6420    4.0930   27.1230 C.2     1  UNL1        0.2628
     16 N         -25.6140    5.2520   26.4490 N.am    1  UNL1       -0.2000
     17 C         -25.0260    6.4790   26.9630 C.3     1  UNL1        0.1388
     18 O         -25.1430    3.9660   28.2430 O.2     1  UNL1       -0.2686
     19 C         -27.4380    3.0910   25.6450 C.2     1  UNL1        0.1025
     20 N         -28.0750    2.0890   25.0030 N.2     1  UNL1       -0.2118
     21 C         -27.5430    0.8490   25.0790 C.2     1  UNL1        0.2344
     22 O         -28.1930   -0.2080   24.4770 O.2     1  UNL1       -0.4585
     23 C         -29.4600    0.0050   23.8660 C.3     1  UNL1        0.2423
     24 C         -30.0650   -1.3770   23.5730 C.3     1  UNL1        0.2292
     25 O         -30.7290   -1.8780   24.7210 O.3     1  UNL1       -0.2162
     26 C         -26.3540    0.5760   25.7770 C.3     1  UNL1        0.2440
     27 F         -25.8600   -0.6810   25.7950 F       1  UNL1       -0.2265
     28 C         -24.4114   -0.1454   29.2281 C.ar    1  UNL1        0.0344
     29 C         -26.7952   -0.0367   28.3745 C.1     1  UNL1        0.0999
     30 C         -23.4153    1.4332   27.1335 C.ar    1  UNL1        0.1189
     31 O         -21.1758    1.2714   27.9712 O.3     1  UNL1       -0.2829
     32 C         -23.0177    0.2674   29.0972 C.ar    1  UNL1        0.2314
     33 C         -22.8553    2.0309   25.8511 C.2     1  UNL1        0.3907
     34 N         -27.8981   -0.2579   28.4867 N.1     1  UNL1       -0.1908
     35 C         -22.4821    0.9664   28.0684 C.ar    1  UNL1        0.2400
     36 O         -23.6140    2.2944   24.8898 O.co2   1  UNL1       -0.2404
     37 C         -25.2967    0.3593   28.2673 C.ar    1  UNL1        0.0647
     38 O         -22.1543   -0.1369   30.0176 O.3     1  UNL1       -0.2834
     39 C         -24.8063    1.1874   27.3313 C.ar    1  UNL1        0.0040
     40 O         -21.6142    2.2495   25.7210 O.co2   1  UNL1       -0.2404
@<TRIPOS>BOND
     1     1    28    1
     2     2     7    1
     3     2     1    1
     4     3     2    2
     5     4     3    1
     6     4     5    2
     7     5     6    1
     8     6     7    2
     9     8     1    1
    10     8     9    1
    11     8    12    1
    12     9    10    1
    13    10    11    1
    14    12    11    1
    15    13    39    1
    16    14    13    1
    17    14    15    1
    18    15    18    2
    19    16    17    1
    20    16    15    1
    21    19    14    2
    22    20    21    2
    23    20    19    1
    24    21    26    1
    25    22    21    1
    26    23    22    1
    27    24    23    1
    28    24    25    1
    29    26    27    1
    30    26    13    1
    31    29    34    3
    32    30    39   ar
    33    30    35   ar
    34    31    35    1
    35    32    28   ar
    36    32    38    1
    37    33    30    1
    38    35    32   ar
    39    36    33   ar
    40    37    29    1
    41    37    28   ar
    42    39    37   ar
    43    40    33   ar
