@<TRIPOS>MOLECULE
outputs/IAG933/test6/raw/output_5438_IAG933_linker_design_.xyz
 42 47 0 0 0
SMALL
GASTEIGER

@<TRIPOS>ATOM
      1 C         -24.8550   -1.0120   30.1430 C.3     1  UNL1        0.0984
      2 C         -24.9730   -2.5050   29.7880 C.2     1  UNL1       -0.0064
      3 C         -23.9060   -3.1730   29.1460 C.2     1  UNL1       -0.0029
      4 C         -23.9890   -4.5490   28.8530 C.2     1  UNL1       -0.0003
      5 C         -25.1370   -5.2800   29.2050 C.2     1  UNL1       -0.0000
      6 C         -26.2320   -4.6110   29.7840 C.2     1  UNL1       -0.0003
      7 C         -26.1550   -3.2320   30.0650 C.2     1  UNL1       -0.0029
      8 C         -25.3870   -0.6790   31.5710 C.3     1  UNL1        0.0916
      9 C         -25.1890    0.7730   32.0280 C.3     1  UNL1        0.0206
     10 C         -25.3360    0.6840   33.5440 C.3     1  UNL1        0.0203
     11 C         -24.8290   -0.7150   33.9050 C.3     1  UNL1        0.0888
     12 N         -24.7580   -1.4810   32.6460 N.3     1  UNL1       -0.2178
     13 C         -25.6880    1.6140   26.4610 C.2     1  UNL1        0.0202
     14 C         -26.2500    2.9200   26.3950 C.2     1  UNL1        0.0727
     15 C         -25.6420    4.0930   27.1230 C.2     1  UNL1        0.2661
     16 N         -25.6140    5.2520   26.4490 N.am    1  UNL1       -0.1997
     17 C         -25.0260    6.4790   26.9630 C.3     1  UNL1        0.1388
     18 O         -25.1430    3.9660   28.2430 O.2     1  UNL1       -0.2683
     19 C         -27.4380    3.0910   25.6450 C.2     1  UNL1        0.1064
     20 N         -28.0750    2.0890   25.0030 N.2     1  UNL1       -0.2081
     21 C         -27.5430    0.8490   25.0790 C.2     1  UNL1        0.2530
     22 O         -28.1930   -0.2080   24.4770 O.2     1  UNL1       -0.4558
     23 C         -29.4600    0.0050   23.8660 C.3     1  UNL1        0.2426
     24 C         -30.0650   -1.3770   23.5730 C.3     1  UNL1        0.2292
     25 O         -30.7290   -1.8780   24.7210 O.3     1  UNL1       -0.2162
     26 C         -26.3540    0.5760   25.7770 C.2     1  UNL1        0.1893
     27 F         -25.8600   -0.6810   25.7950 F       1  UNL1       -0.1996
     28 N         -25.4199   -0.1813   28.9885 N.3     1  UNL1       -0.2396
     29 C         -23.3840    1.5105   26.3841 C.3     1  UNL1        0.2294
     30 O         -21.9795    2.5086   25.2054 O.2     1  UNL1       -0.3353
     31 O         -23.5786    2.1028   25.2634 O.3     1  UNL1       -0.1673
     32 N         -22.4418   -0.5436   29.0100 N.pl3   1  UNL1       -0.2174
     33 O         -27.1852    1.3998   30.0482 O.3     1  UNL1       -0.3346
     34 C         -20.9577    1.6848   27.1330 C.2     1  UNL1        0.0190
     35 C         -20.9606    1.0056   28.4465 C.3     1  UNL1        0.0732
     36 C         -26.2863    0.9318   29.1598 C.3     1  UNL1        0.2205
     37 C         -23.0402   -0.0563   28.6004 C.2     1  UNL1        0.0742
     38 C         -24.4364    0.1338   27.9414 C.3     1  UNL1        0.1058
     39 C         -24.4928    1.1514   27.0014 C.3     1  UNL1        0.0841
     40 C         -22.2098    0.2117   28.7010 C.2     1  UNL1        0.0647
     41 C         -22.1308    1.8852   26.3497 C.2     1  UNL1        0.1879
     42 C         -27.1271    2.7392   30.4804 C.3     1  UNL1        0.1759
@<TRIPOS>BOND
     1     1    28    1
     2     2     7    1
     3     2     1    1
     4     3     2    2
     5     4     3    1
     6     4     5    2
     7     5     6    1
     8     6     7    2
     9     8     1    1
    10     8     9    1
    11     8    12    1
    12     9    10    1
    13    10    11    1
    14    12    11    1
    15    14    13    1
    16    14    15    1
    17    15    18    2
    18    16    17    1
    19    16    15    1
    20    19    14    2
    21    20    21    2
    22    20    19    1
    23    21    26    1
    24    22    21    1
    25    23    22    1
    26    24    23    1
    27    24    25    1
    28    26    27    1
    29    26    13    2
    30    28    36    1
    31    29    31    1
    32    29    39    1
    33    30    31    1
    34    30    41    1
    35    33    42    1
    36    34    35    1
    37    35    40    1
    38    36    33    1
    39    37    40    2
    40    37    32    1
    41    38    37    1
    42    38    28    1
    43    39    13    1
    44    39    38    1
    45    40    32    1
    46    41    29    1
    47    41    34    2
