@<TRIPOS>MOLECULE
outputs/IAG933/test6/raw/output_544_IAG933_linker_design_.xyz
 42 45 0 0 0
SMALL
GASTEIGER

@<TRIPOS>ATOM
      1 C         -24.8550   -1.0120   30.1430 C.3     1  UNL1        0.0637
      2 C         -24.9730   -2.5050   29.7880 C.2     1  UNL1       -0.0168
      3 C         -23.9060   -3.1730   29.1460 C.2     1  UNL1       -0.0039
      4 C         -23.9890   -4.5490   28.8530 C.2     1  UNL1       -0.0003
      5 C         -25.1370   -5.2800   29.2050 C.2     1  UNL1       -0.0000
      6 C         -26.2320   -4.6110   29.7840 C.2     1  UNL1       -0.0003
      7 C         -26.1550   -3.2320   30.0650 C.2     1  UNL1       -0.0039
      8 C         -25.3870   -0.6790   31.5710 C.3     1  UNL1        0.0811
      9 C         -25.1890    0.7730   32.0280 C.3     1  UNL1        0.0195
     10 C         -25.3360    0.6840   33.5440 C.3     1  UNL1        0.0203
     11 C         -24.8290   -0.7150   33.9050 C.3     1  UNL1        0.0887
     12 N         -24.7580   -1.4810   32.6460 N.3     1  UNL1       -0.2188
     13 C         -25.6880    1.6140   26.4610 C.2     1  UNL1        0.0159
     14 C         -26.2500    2.9200   26.3950 C.2     1  UNL1        0.0726
     15 C         -25.6420    4.0930   27.1230 C.2     1  UNL1        0.2661
     16 N         -25.6140    5.2520   26.4490 N.am    1  UNL1       -0.1997
     17 C         -25.0260    6.4790   26.9630 C.3     1  UNL1        0.1388
     18 O         -25.1430    3.9660   28.2430 O.2     1  UNL1       -0.2683
     19 C         -27.4380    3.0910   25.6450 C.2     1  UNL1        0.1064
     20 N         -28.0750    2.0890   25.0030 N.2     1  UNL1       -0.2081
     21 C         -27.5430    0.8490   25.0790 C.2     1  UNL1        0.2530
     22 O         -28.1930   -0.2080   24.4770 O.2     1  UNL1       -0.4558
     23 C         -29.4600    0.0050   23.8660 C.3     1  UNL1        0.2426
     24 C         -30.0650   -1.3770   23.5730 C.3     1  UNL1        0.2292
     25 O         -30.7290   -1.8780   24.7210 O.3     1  UNL1       -0.2162
     26 C         -26.3540    0.5760   25.7770 C.2     1  UNL1        0.1891
     27 F         -25.8600   -0.6810   25.7950 F       1  UNL1       -0.1996
     28 O         -25.2319    3.9181   32.0505 O.2     1  UNL1       -0.2242
     29 C         -23.3804    1.7204   25.8342 C.3     1  UNL1        0.0048
     30 C         -22.0819    1.4415   28.7426 C.3     1  UNL1        0.0004
     31 C         -24.3735    0.3648   28.0987 C.3     1  UNL1        0.0299
     32 C         -27.2287    2.0273   29.8728 C.2     1  UNL1        0.1329
     33 C         -22.9806    0.2119   28.8931 C.3     1  UNL1        0.0050
     34 O         -27.4484    4.3022   32.2812 O.3     1  UNL1       -0.4292
     35 C         -24.3514    1.1767   26.8881 C.3     1  UNL1        0.0292
     36 N         -26.4475    2.9219   30.6433 N.am    1  UNL1       -0.1327
     37 C         -21.9137    2.0839   26.1605 C.3     1  UNL1        0.0003
     38 C         -25.5513   -0.0803   29.0456 C.2     1  UNL1       -0.0036
     39 C         -26.2498    3.6358   31.6534 C.2     1  UNL1        0.4261
     40 C         -21.3026    1.5061   27.4653 C.3     1  UNL1        0.0000
     41 C         -27.0705    5.6247   32.7170 C.3     1  UNL1        0.2574
     42 C         -26.6583    1.0237   29.3774 C.1     1  UNL1       -0.0916
@<TRIPOS>BOND
     1     1    38    1
     2     2     7    1
     3     2     1    1
     4     3     2    2
     5     4     3    1
     6     4     5    2
     7     5     6    1
     8     6     7    2
     9     8     1    1
    10     8     9    1
    11     8    12    1
    12     9    10    1
    13    10    11    1
    14    12    11    1
    15    14    13    1
    16    14    15    1
    17    15    18    2
    18    16    17    1
    19    16    15    1
    20    19    14    2
    21    20    21    2
    22    20    19    1
    23    21    26    1
    24    22    21    1
    25    23    22    1
    26    24    23    1
    27    24    25    1
    28    26    27    1
    29    26    13    2
    30    29    37    1
    31    29    35    1
    32    30    33    1
    33    31    33    1
    34    31    38    1
    35    32    36    1
    36    34    41    1
    37    35    13    1
    38    35    31    1
    39    36    39    1
    40    37    40    1
    41    38    42    2
    42    39    28    2
    43    39    34    1
    44    40    30    1
    45    42    32    2
