@<TRIPOS>MOLECULE
outputs/IAG933/test6/raw/output_5440_IAG933_linker_design_.xyz
 47 50 0 0 0
SMALL
GASTEIGER

@<TRIPOS>ATOM
      1 C         -24.8550   -1.0120   30.1430 C.3     1  UNL1        0.0582
      2 C         -24.9730   -2.5050   29.7880 C.2     1  UNL1       -0.0195
      3 C         -23.9060   -3.1730   29.1460 C.2     1  UNL1       -0.0042
      4 C         -23.9890   -4.5490   28.8530 C.2     1  UNL1       -0.0003
      5 C         -25.1370   -5.2800   29.2050 C.2     1  UNL1       -0.0000
      6 C         -26.2320   -4.6110   29.7840 C.2     1  UNL1       -0.0003
      7 C         -26.1550   -3.2320   30.0650 C.2     1  UNL1       -0.0042
      8 C         -25.3870   -0.6790   31.5710 C.3     1  UNL1        0.0785
      9 C         -25.1890    0.7730   32.0280 C.3     1  UNL1        0.0192
     10 C         -25.3360    0.6840   33.5440 C.3     1  UNL1        0.0202
     11 C         -24.8290   -0.7150   33.9050 C.3     1  UNL1        0.0887
     12 N         -24.7580   -1.4810   32.6460 N.3     1  UNL1       -0.2191
     13 C         -25.6880    1.6140   26.4610 C.3     1  UNL1        0.0702
     14 C         -26.2500    2.9200   26.3950 C.2     1  UNL1        0.0548
     15 C         -25.6420    4.0930   27.1230 C.2     1  UNL1        0.2624
     16 N         -25.6140    5.2520   26.4490 N.am    1  UNL1       -0.2000
     17 C         -25.0260    6.4790   26.9630 C.3     1  UNL1        0.1388
     18 O         -25.1430    3.9660   28.2430 O.2     1  UNL1       -0.2687
     19 C         -27.4380    3.0910   25.6450 C.2     1  UNL1        0.1021
     20 N         -28.0750    2.0890   25.0030 N.2     1  UNL1       -0.2119
     21 C         -27.5430    0.8490   25.0790 C.2     1  UNL1        0.2341
     22 O         -28.1930   -0.2080   24.4770 O.2     1  UNL1       -0.4585
     23 C         -29.4600    0.0050   23.8660 C.3     1  UNL1        0.2423
     24 C         -30.0650   -1.3770   23.5730 C.3     1  UNL1        0.2292
     25 O         -30.7290   -1.8780   24.7210 O.3     1  UNL1       -0.2162
     26 C         -26.3540    0.5760   25.7770 C.3     1  UNL1        0.2400
     27 F         -25.8600   -0.6810   25.7950 F       1  UNL1       -0.2269
     28 N         -26.0521    0.8843   29.1332 N.pl3   1  UNL1       -0.2384
     29 C         -29.5558    1.7255   28.6328 C.2     1  UNL1        0.0046
     30 C         -23.8718    6.1274   32.7356 C.3     1  UNL1        0.1521
     31 C         -25.9156    6.5238   31.0575 C.3     1  UNL1        0.0146
     32 C         -27.4499    2.6950   30.1688 C.2     1  UNL1        0.0790
     33 C         -25.2402   -0.3152   28.7929 C.3     1  UNL1        0.0978
     34 O         -29.1038    3.5103   31.6802 O.2     1  UNL1       -0.2860
     35 O         -22.5551    6.4423   32.5171 O.3     1  UNL1       -0.2231
     36 C         -22.7215    0.6411   28.5559 C.3     1  UNL1        0.0017
     37 C         -24.0087    0.1602   27.8784 C.3     1  UNL1        0.0207
     38 C         -27.2182    1.4925   29.2120 C.2     1  UNL1        0.0740
     39 C         -28.7727    2.9678   30.5305 C.2     1  UNL1        0.2025
     40 C         -24.7413    6.6015   31.8955 C.3     1  UNL1        0.0338
     41 S         -26.5531    4.1203   30.8569 S.3     1  UNL1       -0.1093
     42 C         -21.9017    1.5786   27.6742 C.3     1  UNL1        0.0001
     43 C         -24.0146    4.7496   33.3503 C.3     1  UNL1        0.0355
     44 C         -28.3235    1.0995   28.4223 C.2     1  UNL1        0.0168
     45 C         -29.7844    2.5999   29.6853 C.2     1  UNL1        0.0426
     46 C         -24.2495    1.2490   26.7984 C.3     1  UNL1        0.0095
     47 C         -26.8527    5.5224   31.7705 C.3     1  UNL1        0.0624
@<TRIPOS>BOND
     1     1    33    1
     2     2     7    1
     3     2     1    1
     4     3     2    2
     5     4     3    1
     6     4     5    2
     7     5     6    1
     8     6     7    2
     9     8     1    1
    10     8     9    1
    11     8    12    1
    12     9    10    1
    13    10    11    1
    14    12    11    1
    15    13    46    1
    16    14    13    1
    17    14    15    1
    18    15    18    2
    19    16    17    1
    20    16    15    1
    21    19    14    2
    22    20    21    2
    23    20    19    1
    24    21    26    1
    25    22    21    1
    26    23    22    1
    27    24    23    1
    28    24    25    1
    29    26    27    1
    30    26    13    1
    31    28    38    1
    32    29    45    1
    33    30    43    1
    34    31    47    1
    35    31    40    1
    36    32    39    1
    37    32    41    1
    38    33    28    1
    39    35    30    1
    40    37    46    1
    41    37    36    1
    42    37    33    1
    43    38    32    2
    44    39    34    1
    45    40    30    1
    46    41    47    1
    47    42    36    1
    48    44    29    2
    49    44    38    1
    50    45    39    2
