@<TRIPOS>MOLECULE
outputs/IAG933/test6/raw/output_5442_IAG933_linker_design_.xyz
 42 45 0 0 0
SMALL
GASTEIGER

@<TRIPOS>ATOM
      1 C         -24.8550   -1.0120   30.1430 C.3     1  UNL1        0.0481
      2 C         -24.9730   -2.5050   29.7880 C.2     1  UNL1       -0.0206
      3 C         -23.9060   -3.1730   29.1460 C.2     1  UNL1       -0.0042
      4 C         -23.9890   -4.5490   28.8530 C.2     1  UNL1       -0.0003
      5 C         -25.1370   -5.2800   29.2050 C.2     1  UNL1       -0.0000
      6 C         -26.2320   -4.6110   29.7840 C.2     1  UNL1       -0.0003
      7 C         -26.1550   -3.2320   30.0650 C.2     1  UNL1       -0.0042
      8 C         -25.3870   -0.6790   31.5710 C.3     1  UNL1        0.1247
      9 C         -25.1890    0.7730   32.0280 C.3     1  UNL1        0.2212
     10 C         -25.3360    0.6840   33.5440 C.3     1  UNL1        0.0722
     11 C         -24.8290   -0.7150   33.9050 C.3     1  UNL1        0.0933
     12 N         -24.7580   -1.4810   32.6460 N.3     1  UNL1       -0.2146
     13 C         -25.6880    1.6140   26.4610 C.2     1  UNL1        0.1113
     14 C         -26.2500    2.9200   26.3950 C.2     1  UNL1        0.0919
     15 C         -25.6420    4.0930   27.1230 C.2     1  UNL1        0.2677
     16 N         -25.6140    5.2520   26.4490 N.am    1  UNL1       -0.1997
     17 C         -25.0260    6.4790   26.9630 C.3     1  UNL1        0.1388
     18 O         -25.1430    3.9660   28.2430 O.2     1  UNL1       -0.2683
     19 C         -27.4380    3.0910   25.6450 C.2     1  UNL1        0.1080
     20 N         -28.0750    2.0890   25.0030 N.2     1  UNL1       -0.2080
     21 C         -27.5430    0.8490   25.0790 C.2     1  UNL1        0.2546
     22 O         -28.1930   -0.2080   24.4770 O.2     1  UNL1       -0.4558
     23 C         -29.4600    0.0050   23.8660 C.3     1  UNL1        0.2426
     24 C         -30.0650   -1.3770   23.5730 C.3     1  UNL1        0.2292
     25 O         -30.7290   -1.8780   24.7210 O.3     1  UNL1       -0.2162
     26 C         -26.3540    0.5760   25.7770 C.2     1  UNL1        0.2083
     27 F         -25.8600   -0.6810   25.7950 F       1  UNL1       -0.1978
     28 C         -21.0683    1.6252   27.5587 C.3     1  UNL1        0.0239
     29 N         -24.6389    1.2401   27.1450 N.am    1  UNL1       -0.1758
     30 N         -25.8750    2.0406   31.5740 N.3     1  UNL1       -0.0869
     31 C         -23.0381    1.6793   29.3946 C.1     1  UNL1       -0.0491
     32 N         -27.3160    3.6523   32.9349 N.pl3   1  UNL1       -0.1640
     33 C         -28.3064    2.7287   33.5694 C.3     1  UNL1        0.2586
     34 O         -24.9086    2.5601   30.8065 O.3     1  UNL1       -0.1012
     35 O         -23.0707    2.5686   26.0061 O.2     1  UNL1       -0.2719
     36 C         -23.4606    1.8868   26.9910 C.2     1  UNL1        0.2574
     37 C         -25.6876    4.5320   31.7235 C.2     1  UNL1        0.0919
     38 C         -23.8480    2.1240   30.2938 C.1     1  UNL1        0.1094
     39 C         -27.3524    4.9528   33.1928 C.2     1  UNL1        0.1761
     40 C         -26.3923    5.6075   32.4108 C.2     1  UNL1        0.0514
     41 C         -22.4855    1.5927   28.1183 C.3     1  UNL1        0.1445
     42 C         -26.3131    3.3171   32.0749 C.2     1  UNL1        0.3139
@<TRIPOS>BOND
     1     2     7    1
     2     2     1    1
     3     3     2    2
     4     4     3    1
     5     4     5    2
     6     5     6    1
     7     6     7    2
     8     8     1    1
     9     8     9    1
    10     8    12    1
    11     9    30    1
    12     9    10    1
    13    10    11    1
    14    12    11    1
    15    13    29    1
    16    14    13    1
    17    14    15    1
    18    15    18    2
    19    16    17    1
    20    16    15    1
    21    19    14    2
    22    20    21    2
    23    20    19    1
    24    21    26    1
    25    22    21    1
    26    23    22    1
    27    24    23    1
    28    24    25    1
    29    26    27    1
    30    26    13    2
    31    30    42    1
    32    31    38    3
    33    32    39    1
    34    32    33    1
    35    34    30    1
    36    35    36    2
    37    36    29    1
    38    36    41    1
    39    37    42    2
    40    37    40    1
    41    38    34    1
    42    40    39    2
    43    41    28    1
    44    41    31    1
    45    42    32    1
