@<TRIPOS>MOLECULE
outputs/IAG933/test6/raw/output_5447_IAG933_linker_design_.xyz
 46 50 0 0 0
SMALL
GASTEIGER

@<TRIPOS>ATOM
      1 C         -24.8550   -1.0120   30.1430 C.3     1  UNL1        0.0440
      2 C         -24.9730   -2.5050   29.7880 C.2     1  UNL1       -0.0208
      3 C         -23.9060   -3.1730   29.1460 C.2     1  UNL1       -0.0042
      4 C         -23.9890   -4.5490   28.8530 C.2     1  UNL1       -0.0003
      5 C         -25.1370   -5.2800   29.2050 C.2     1  UNL1       -0.0000
      6 C         -26.2320   -4.6110   29.7840 C.2     1  UNL1       -0.0003
      7 C         -26.1550   -3.2320   30.0650 C.2     1  UNL1       -0.0042
      8 C         -25.3870   -0.6790   31.5710 C.3     1  UNL1        0.0812
      9 C         -25.1890    0.7730   32.0280 C.3     1  UNL1        0.0411
     10 C         -25.3360    0.6840   33.5440 C.3     1  UNL1        0.0246
     11 C         -24.8290   -0.7150   33.9050 C.3     1  UNL1        0.0890
     12 N         -24.7580   -1.4810   32.6460 N.3     1  UNL1       -0.2188
     13 C         -25.6880    1.6140   26.4610 C.3     1  UNL1        0.1347
     14 C         -26.2500    2.9200   26.3950 C.2     1  UNL1        0.0606
     15 C         -25.6420    4.0930   27.1230 C.2     1  UNL1        0.2626
     16 N         -25.6140    5.2520   26.4490 N.am    1  UNL1       -0.2000
     17 C         -25.0260    6.4790   26.9630 C.3     1  UNL1        0.1388
     18 O         -25.1430    3.9660   28.2430 O.2     1  UNL1       -0.2687
     19 C         -27.4380    3.0910   25.6450 C.2     1  UNL1        0.1023
     20 N         -28.0750    2.0890   25.0030 N.2     1  UNL1       -0.2119
     21 C         -27.5430    0.8490   25.0790 C.2     1  UNL1        0.2343
     22 O         -28.1930   -0.2080   24.4770 O.2     1  UNL1       -0.4585
     23 C         -29.4600    0.0050   23.8660 C.3     1  UNL1        0.2423
     24 C         -30.0650   -1.3770   23.5730 C.3     1  UNL1        0.2292
     25 O         -30.7290   -1.8780   24.7210 O.3     1  UNL1       -0.2162
     26 C         -26.3540    0.5760   25.7770 C.3     1  UNL1        0.2457
     27 F         -25.8600   -0.6810   25.7950 F       1  UNL1       -0.2267
     28 C         -28.1456    4.0458   32.1782 C.2     1  UNL1       -0.0037
     29 C         -26.8382    1.7595   30.4002 C.2     1  UNL1        0.0650
     30 C         -28.1388    2.2866   30.2912 C.2     1  UNL1        0.0156
     31 C         -26.7231    4.1424   32.4364 C.3     1  UNL1        0.1277
     32 C         -22.4317    1.2129   28.0180 C.2     1  UNL1        0.3544
     33 C         -24.8377    1.2830   27.6170 C.3     1  UNL1        0.2633
     34 N         -22.4009    0.4303   29.1129 N.2     1  UNL1        0.1879
     35 C         -26.5313    5.3222   34.4599 C.3     1  UNL1        0.1043
     36 N         -23.5128    1.6655   27.3199 N.pl3   1  UNL1       -0.1719
     37 O         -25.0874    5.8352   32.8408 O.3     1  UNL1       -0.2817
     38 C         -23.1718    2.3030   25.9885 C.3     1  UNL1        0.2546
     39 C         -28.8211    3.3382   31.0510 C.2     1  UNL1       -0.0015
     40 C         -25.2139    7.0780   33.5592 C.3     1  UNL1        0.1681
     41 C         -21.0602    1.7663   27.5456 C.3     1  UNL1        0.1349
     42 N         -26.1379    5.0689   33.1570 N.3     1  UNL1       -0.1590
     43 N         -25.8396    1.3845   29.1830 N.pl3   1  UNL1       -0.1967
     44 C         -26.3253    6.8602   34.5652 C.3     1  UNL1        0.0541
     45 C         -25.8427    3.0361   32.2852 C.2     1  UNL1       -0.0067
     46 C         -25.9881    1.9411   31.4866 C.2     1  UNL1       -0.0087
@<TRIPOS>BOND
     1     2     7    1
     2     2     1    1
     3     3     2    2
     4     4     3    1
     5     4     5    2
     6     5     6    1
     7     6     7    2
     8     8     1    1
     9     8     9    1
    10     8    12    1
    11     9    46    1
    12     9    10    1
    13    10    11    1
    14    12    11    1
    15    13    33    1
    16    14    13    1
    17    14    15    1
    18    15    18    2
    19    16    17    1
    20    16    15    1
    21    19    14    2
    22    20    21    2
    23    20    19    1
    24    21    26    1
    25    22    21    1
    26    23    22    1
    27    24    23    1
    28    24    25    1
    29    26    27    1
    30    26    13    1
    31    29    46    1
    32    30    29    2
    33    30    39    1
    34    31    28    1
    35    31    42    1
    36    32    34    2
    37    33    43    1
    38    35    44    1
    39    36    33    1
    40    36    32    1
    41    37    42    1
    42    37    40    1
    43    38    36    1
    44    39    28    2
    45    40    44    1
    46    41    32    1
    47    42    35    1
    48    43    29    1
    49    45    31    1
    50    46    45    2
