@<TRIPOS>MOLECULE
No_545-gen_results/8p0m/2024-11-27-11-27-31/
 21 22 0 0 0
SMALL
GASTEIGER

@<TRIPOS>ATOM
      1 C         -28.0162   -0.8135   28.8779 C.ar    1  UNL1       -0.0038
      2 C         -28.4690   -0.7850   29.8287 C.ar    1  UNL1       -0.0006
      3 C         -27.1356    0.2359   28.5352 C.ar    1  UNL1       -0.0141
      4 C         -26.8745    1.2825   29.3982 C.ar    1  UNL1       -0.0061
      5 C         -28.3613    0.1987   30.9244 C.ar    1  UNL1       -0.0024
      6 C         -27.5277    1.2234   30.6356 C.ar    1  UNL1        0.0017
      7 C         -26.3879    0.2914   27.2334 C.3     1  UNL1        0.1008
      8 C         -25.1510    0.3034   27.2565 C.3     1  UNL1        0.0201
      9 C         -24.3395    0.2047   28.4288 C.3     1  UNL1        0.0653
     10 C         -23.4585    1.1453   28.8412 C.2     1  UNL1        0.1507
     11 C         -23.0849    2.2146   27.9375 C.3     1  UNL1        0.0645
     12 C         -23.6337    2.1861   26.6253 C.3     1  UNL1        0.0078
     13 C         -24.6672    1.3826   26.2731 C.3     1  UNL1        0.0017
     14 C         -27.1513    0.0991   26.0470 C.2     1  UNL1        0.2451
     15 N         -28.1563    0.8818   25.7570 N.am    1  UNL1       -0.2033
     16 C         -28.8987    0.6952   24.6687 C.3     1  UNL1        0.1385
     17 O         -26.5805   -0.3496   25.0879 O.2     1  UNL1       -0.2730
     18 O         -22.8253    1.0219   29.9893 O.2     1  UNL1       -0.2961
     19 C         -27.2934    2.3357   31.6398 C.3     1  UNL1        0.1519
     20 N         -26.2663    2.3219   32.3565 N.2     1  UNL1       -0.2625
     21 C         -25.6703    3.3746   32.9205 C.2     1  UNL1        0.1137
@<TRIPOS>BOND
     1     3     7    1
     2     8     9    1
     3     9    10    1
     4    10    11    1
     5     8    13    1
     6    12    13    1
     7     7    14    1
     8    14    15   am
     9    15    16    1
    10    14    17    2
    11    10    18    2
    12     6    19    1
    13    19    20    1
    14    20    21    2
    15     7     8    1
    16    12    11    1
    17     1     2   ar
    18     2     5   ar
    19     5     6   ar
    20     6     4   ar
    21     4     3   ar
    22     3     1   ar
