@<TRIPOS>MOLECULE
outputs/IAG933/test6/raw/output_5452_IAG933_linker_design_.xyz
 42 46 0 0 0
SMALL
GASTEIGER

@<TRIPOS>ATOM
      1 C         -24.8550   -1.0120   30.1430 C.3     1  UNL1        0.0624
      2 C         -24.9730   -2.5050   29.7880 C.2     1  UNL1       -0.0191
      3 C         -23.9060   -3.1730   29.1460 C.2     1  UNL1       -0.0042
      4 C         -23.9890   -4.5490   28.8530 C.2     1  UNL1       -0.0003
      5 C         -25.1370   -5.2800   29.2050 C.2     1  UNL1       -0.0000
      6 C         -26.2320   -4.6110   29.7840 C.2     1  UNL1       -0.0003
      7 C         -26.1550   -3.2320   30.0650 C.2     1  UNL1       -0.0042
      8 C         -25.3870   -0.6790   31.5710 C.3     1  UNL1        0.0788
      9 C         -25.1890    0.7730   32.0280 C.3     1  UNL1        0.0193
     10 C         -25.3360    0.6840   33.5440 C.3     1  UNL1        0.0202
     11 C         -24.8290   -0.7150   33.9050 C.3     1  UNL1        0.0887
     12 N         -24.7580   -1.4810   32.6460 N.3     1  UNL1       -0.2191
     13 C         -25.6880    1.6140   26.4610 C.3     1  UNL1        0.1266
     14 C         -26.2500    2.9200   26.3950 C.2     1  UNL1        0.0620
     15 C         -25.6420    4.0930   27.1230 C.2     1  UNL1        0.2629
     16 N         -25.6140    5.2520   26.4490 N.am    1  UNL1       -0.2000
     17 C         -25.0260    6.4790   26.9630 C.3     1  UNL1        0.1388
     18 O         -25.1430    3.9660   28.2430 O.2     1  UNL1       -0.2686
     19 C         -27.4380    3.0910   25.6450 C.2     1  UNL1        0.1026
     20 N         -28.0750    2.0890   25.0030 N.2     1  UNL1       -0.2118
     21 C         -27.5430    0.8490   25.0790 C.2     1  UNL1        0.2345
     22 O         -28.1930   -0.2080   24.4770 O.2     1  UNL1       -0.4585
     23 C         -29.4600    0.0050   23.8660 C.3     1  UNL1        0.2423
     24 C         -30.0650   -1.3770   23.5730 C.3     1  UNL1        0.2292
     25 O         -30.7290   -1.8780   24.7210 O.3     1  UNL1       -0.2162
     26 C         -26.3540    0.5760   25.7770 C.3     1  UNL1        0.2471
     27 F         -25.8600   -0.6810   25.7950 F       1  UNL1       -0.2264
     28 C         -23.2989    0.1808   28.5300 C.2     1  UNL1       -0.0007
     29 O         -23.6975    1.9161   25.2982 O.2     1  UNL1       -0.4521
     30 N         -25.5932    1.0737   29.0433 N.am    1  UNL1       -0.2023
     31 C         -23.0677    0.9746   27.3671 C.2     1  UNL1        0.0614
     32 O         -20.6437    0.7830   27.8452 O.3     1  UNL1       -0.3221
     33 C         -27.6829    2.1347   29.7497 C.3     1  UNL1        0.0964
     34 C         -21.6670    1.2512   27.1038 C.3     1  UNL1        0.2653
     35 C         -22.3656    2.0157   25.0078 C.3     1  UNL1        0.3627
     36 O         -21.3705    1.9850   26.0171 O.3     1  UNL1       -0.2870
     37 C         -24.7252   -0.1030   28.9277 C.3     1  UNL1        0.1225
     38 O         -27.5794   -0.1140   28.8977 O.2     1  UNL1       -0.2733
     39 C         -20.9242   -0.2455   28.7911 C.3     1  UNL1        0.1711
     40 C         -24.1669    1.4817   26.4974 C.2     1  UNL1        0.1264
     41 C         -22.2287   -0.4878   29.2178 C.2     1  UNL1        0.0031
     42 C         -26.9885    0.9299   29.1561 C.2     1  UNL1        0.2421
@<TRIPOS>BOND
     1     1    37    1
     2     2     7    1
     3     2     1    1
     4     3     2    2
     5     4     3    1
     6     4     5    2
     7     5     6    1
     8     6     7    2
     9     8     1    1
    10     8     9    1
    11     8    12    1
    12     9    10    1
    13    10    11    1
    14    12    11    1
    15    13    40    1
    16    14    13    1
    17    14    15    1
    18    15    18    2
    19    16    17    1
    20    16    15    1
    21    19    14    2
    22    20    21    2
    23    20    19    1
    24    21    26    1
    25    22    21    1
    26    23    22    1
    27    24    23    1
    28    24    25    1
    29    26    27    1
    30    26    13    1
    31    28    37    1
    32    28    41    2
    33    29    40    1
    34    30    42    1
    35    31    28    1
    36    32    39    1
    37    34    36    1
    38    34    31    1
    39    34    32    1
    40    35    29    1
    41    35    36    1
    42    37    30    1
    43    38    42    2
    44    39    41    1
    45    40    31    2
    46    42    33    1
