@<TRIPOS>MOLECULE
outputs/IAG933/test6/raw/output_5456_IAG933_linker_design_.xyz
 42 45 0 0 0
SMALL
GASTEIGER

@<TRIPOS>ATOM
      1 C         -24.8550   -1.0120   30.1430 C.3     1  UNL1        0.0734
      2 C         -24.9730   -2.5050   29.7880 C.2     1  UNL1       -0.0181
      3 C         -23.9060   -3.1730   29.1460 C.2     1  UNL1       -0.0041
      4 C         -23.9890   -4.5490   28.8530 C.2     1  UNL1       -0.0003
      5 C         -25.1370   -5.2800   29.2050 C.2     1  UNL1       -0.0000
      6 C         -26.2320   -4.6110   29.7840 C.2     1  UNL1       -0.0003
      7 C         -26.1550   -3.2320   30.0650 C.2     1  UNL1       -0.0041
      8 C         -25.3870   -0.6790   31.5710 C.3     1  UNL1        0.0798
      9 C         -25.1890    0.7730   32.0280 C.3     1  UNL1        0.0193
     10 C         -25.3360    0.6840   33.5440 C.3     1  UNL1        0.0202
     11 C         -24.8290   -0.7150   33.9050 C.3     1  UNL1        0.0887
     12 N         -24.7580   -1.4810   32.6460 N.3     1  UNL1       -0.2190
     13 C         -25.6880    1.6140   26.4610 C.3     1  UNL1        0.1091
     14 C         -26.2500    2.9200   26.3950 C.2     1  UNL1        0.0603
     15 C         -25.6420    4.0930   27.1230 C.2     1  UNL1        0.2628
     16 N         -25.6140    5.2520   26.4490 N.am    1  UNL1       -0.2000
     17 C         -25.0260    6.4790   26.9630 C.3     1  UNL1        0.1388
     18 O         -25.1430    3.9660   28.2430 O.2     1  UNL1       -0.2686
     19 C         -27.4380    3.0910   25.6450 C.2     1  UNL1        0.1025
     20 N         -28.0750    2.0890   25.0030 N.2     1  UNL1       -0.2118
     21 C         -27.5430    0.8490   25.0790 C.2     1  UNL1        0.2345
     22 O         -28.1930   -0.2080   24.4770 O.2     1  UNL1       -0.4585
     23 C         -29.4600    0.0050   23.8660 C.3     1  UNL1        0.2423
     24 C         -30.0650   -1.3770   23.5730 C.3     1  UNL1        0.2292
     25 O         -30.7290   -1.8780   24.7210 O.3     1  UNL1       -0.2162
     26 C         -26.3540    0.5760   25.7770 C.3     1  UNL1        0.2454
     27 F         -25.8600   -0.6810   25.7950 F       1  UNL1       -0.2265
     28 N         -25.0640    1.0196   28.6273 N.pl3   1  UNL1       -0.2673
     29 N         -23.2377    0.5262   29.8531 N.3     1  UNL1       -0.1670
     30 O         -21.1995    1.9509   28.2766 O.2     1  UNL1       -0.2413
     31 O         -26.6445    3.8333   30.3805 O.3     1  UNL1       -0.0329
     32 O         -22.0392   -0.8093   28.6822 O.3     1  UNL1       -0.1991
     33 C         -21.8599    1.9347   27.2233 C.2     1  UNL1        0.3795
     34 O         -21.2962    2.1153   26.0966 O.3     1  UNL1       -0.4028
     35 C         -23.3705    1.7158   26.9178 C.2     1  UNL1        0.2273
     36 O         -25.7303    2.8223   29.9513 O.3     1  UNL1       -0.1662
     37 O         -23.3890    1.9803   25.5858 O.2     1  UNL1       -0.4301
     38 C         -22.2636    2.3885   25.1885 C.3     1  UNL1        0.4317
     39 C         -22.0720   -0.1466   29.6573 C.3     1  UNL1        0.2746
     40 C         -24.3594    0.1532   29.3797 C.3     1  UNL1        0.1571
     41 C         -24.6561    1.3441   27.5155 C.2     1  UNL1        0.0758
     42 C         -26.2078    1.6495   29.3091 C.3     1  UNL1        0.2822
@<TRIPOS>BOND
     1     1    40    1
     2     2     7    1
     3     2     1    1
     4     3     2    2
     5     4     3    1
     6     4     5    2
     7     5     6    1
     8     6     7    2
     9     8     1    1
    10     8     9    1
    11     8    12    1
    12     9    10    1
    13    10    11    1
    14    12    11    1
    15    13    41    1
    16    14    13    1
    17    14    15    1
    18    15    18    2
    19    16    17    1
    20    16    15    1
    21    19    14    2
    22    20    21    2
    23    20    19    1
    24    21    26    1
    25    22    21    1
    26    23    22    1
    27    24    23    1
    28    24    25    1
    29    26    27    1
    30    26    13    1
    31    28    42    1
    32    28    40    1
    33    32    39    1
    34    33    30    2
    35    34    33    1
    36    35    33    1
    37    35    41    2
    38    36    31    1
    39    37    35    1
    40    38    37    1
    41    38    34    1
    42    39    29    1
    43    40    29    1
    44    41    28    1
    45    42    36    1
