@<TRIPOS>MOLECULE
outputs/IAG933/test6/raw/output_5458_IAG933_linker_design_.xyz
 43 46 0 0 0
SMALL
GASTEIGER

@<TRIPOS>ATOM
      1 C         -24.8550   -1.0120   30.1430 C.3     1  UNL1        0.0438
      2 C         -24.9730   -2.5050   29.7880 C.2     1  UNL1       -0.0208
      3 C         -23.9060   -3.1730   29.1460 C.2     1  UNL1       -0.0042
      4 C         -23.9890   -4.5490   28.8530 C.2     1  UNL1       -0.0003
      5 C         -25.1370   -5.2800   29.2050 C.2     1  UNL1       -0.0000
      6 C         -26.2320   -4.6110   29.7840 C.2     1  UNL1       -0.0003
      7 C         -26.1550   -3.2320   30.0650 C.2     1  UNL1       -0.0042
      8 C         -25.3870   -0.6790   31.5710 C.3     1  UNL1        0.0791
      9 C         -25.1890    0.7730   32.0280 C.3     1  UNL1        0.0433
     10 C         -25.3360    0.6840   33.5440 C.3     1  UNL1        0.0222
     11 C         -24.8290   -0.7150   33.9050 C.3     1  UNL1        0.0888
     12 N         -24.7580   -1.4810   32.6460 N.3     1  UNL1       -0.2191
     13 C         -25.6880    1.6140   26.4610 C.3     1  UNL1        0.0938
     14 C         -26.2500    2.9200   26.3950 C.2     1  UNL1        0.0589
     15 C         -25.6420    4.0930   27.1230 C.2     1  UNL1        0.2628
     16 N         -25.6140    5.2520   26.4490 N.am    1  UNL1       -0.2000
     17 C         -25.0260    6.4790   26.9630 C.3     1  UNL1        0.1388
     18 O         -25.1430    3.9660   28.2430 O.2     1  UNL1       -0.2686
     19 C         -27.4380    3.0910   25.6450 C.2     1  UNL1        0.1025
     20 N         -28.0750    2.0890   25.0030 N.2     1  UNL1       -0.2118
     21 C         -27.5430    0.8490   25.0790 C.2     1  UNL1        0.2344
     22 O         -28.1930   -0.2080   24.4770 O.2     1  UNL1       -0.4585
     23 C         -29.4600    0.0050   23.8660 C.3     1  UNL1        0.2423
     24 C         -30.0650   -1.3770   23.5730 C.3     1  UNL1        0.2292
     25 O         -30.7290   -1.8780   24.7210 O.3     1  UNL1       -0.2162
     26 C         -26.3540    0.5760   25.7770 C.3     1  UNL1        0.2440
     27 F         -25.8600   -0.6810   25.7950 F       1  UNL1       -0.2265
     28 C         -21.7917    1.4569   27.3239 C.2     1  UNL1        0.1416
     29 C         -25.7669    7.1297   32.6510 C.3     1  UNL1        0.0347
     30 C         -24.8241    6.1925   31.9194 C.3     1  UNL1        0.1450
     31 C         -22.1721    1.4365   25.9834 C.2     1  UNL1        0.0294
     32 C         -24.5057    4.1071   32.8699 C.3     1  UNL1        0.2940
     33 F         -20.5148    1.1183   27.5128 F       1  UNL1       -0.2041
     34 C         -22.6588    1.6717   28.4290 C.2     1  UNL1        0.0485
     35 O         -23.8538    5.3643   32.5771 O.3     1  UNL1       -0.3268
     36 C         -23.5740    1.4934   25.7370 C.2     1  UNL1       -0.0001
     37 N         -25.0775    1.5284   29.3437 N.3     1  UNL1       -0.2064
     38 C         -25.9872    3.1678   31.1583 C.3     1  UNL1        0.1697
     39 C         -24.0742    1.6397   28.2632 C.2     1  UNL1        0.0837
     40 C         -24.9744    1.8725   30.8785 C.3     1  UNL1        0.1433
     41 O         -26.3181    1.0051   29.1700 O.3     1  UNL1       -0.0842
     42 O         -25.7865    3.8622   32.3810 O.3     1  UNL1       -0.3247
     43 C         -24.4061    1.5498   26.9039 C.2     1  UNL1        0.0029
@<TRIPOS>BOND
     1     2     7    1
     2     2     1    1
     3     3     2    2
     4     4     3    1
     5     4     5    2
     6     5     6    1
     7     6     7    2
     8     8     1    1
     9     8     9    1
    10     8    12    1
    11     9    40    1
    12     9    10    1
    13    10    11    1
    14    12    11    1
    15    13    43    1
    16    14    13    1
    17    14    15    1
    18    15    18    2
    19    16    17    1
    20    16    15    1
    21    19    14    2
    22    20    21    2
    23    20    19    1
    24    21    26    1
    25    22    21    1
    26    23    22    1
    27    24    23    1
    28    24    25    1
    29    26    27    1
    30    26    13    1
    31    28    33    1
    32    28    34    1
    33    30    35    1
    34    30    29    1
    35    31    28    2
    36    35    32    1
    37    36    31    1
    38    36    43    2
    39    37    40    1
    40    38    42    1
    41    39    34    2
    42    39    37    1
    43    40    38    1
    44    41    37    1
    45    42    32    1
    46    43    39    1
