@<TRIPOS>MOLECULE
No_546-gen_results/8p0m/2024-11-27-11-27-31/
 13 13 0 0 0
SMALL
GASTEIGER

@<TRIPOS>ATOM
      1 F         -28.0727   -1.2542   28.5316 F       1  UNL1       -0.1876
      2 C         -27.3591   -0.3792   28.7224 C.3     1  UNL1        0.3531
      3 F         -26.9761   -0.0935   27.6617 F       1  UNL1       -0.1876
      4 BR        -28.0039    1.0427   29.6533 Br      1  UNL1       -0.0056
      5 C         -26.0991   -0.9234   29.5065 C.3     1  UNL1        0.2937
      6 N         -25.5911   -1.9590   29.3429 N.3     1  UNL1       -0.2403
      7 C         -24.6840   -2.2143   28.3225 C.3     1  UNL1        0.0825
      8 C         -26.5107   -3.1327   29.4337 C.3     1  UNL1        0.0825
      9 F         -25.3713   -0.1557   30.3699 F       1  UNL1       -0.2120
     10 C         -25.7853   -4.4336   29.5997 C.3     1  UNL1        0.0819
     11 C         -24.7627   -4.6984   28.7147 C.2     1  UNL1        0.1535
     12 C         -23.9455   -3.5172   28.3890 C.3     1  UNL1        0.0819
     13 O         -24.2109   -5.7814   28.6334 O.2     1  UNL1       -0.2960
@<TRIPOS>BOND
     1     1     2    1
     2     2     3    1
     3     2     4    1
     4     2     5    1
     5     5     6    1
     6     6     7    1
     7     6     8    1
     8     5     9    1
     9    10    11    1
    10     7    12    1
    11    11    12    1
    12    11    13    2
    13    10     8    1
