@<TRIPOS>MOLECULE
outputs/IAG933/test6/raw/output_5461_IAG933_linker_design_.xyz
 45 49 0 0 0
SMALL
GASTEIGER

@<TRIPOS>ATOM
      1 C         -24.8550   -1.0120   30.1430 C.3     1  UNL1        0.0963
      2 C         -24.9730   -2.5050   29.7880 C.2     1  UNL1       -0.0064
      3 C         -23.9060   -3.1730   29.1460 C.2     1  UNL1       -0.0029
      4 C         -23.9890   -4.5490   28.8530 C.2     1  UNL1       -0.0003
      5 C         -25.1370   -5.2800   29.2050 C.2     1  UNL1       -0.0000
      6 C         -26.2320   -4.6110   29.7840 C.2     1  UNL1       -0.0003
      7 C         -26.1550   -3.2320   30.0650 C.2     1  UNL1       -0.0029
      8 C         -25.3870   -0.6790   31.5710 C.3     1  UNL1        0.0916
      9 C         -25.1890    0.7730   32.0280 C.3     1  UNL1        0.0206
     10 C         -25.3360    0.6840   33.5440 C.3     1  UNL1        0.0203
     11 C         -24.8290   -0.7150   33.9050 C.3     1  UNL1        0.0888
     12 N         -24.7580   -1.4810   32.6460 N.3     1  UNL1       -0.2178
     13 C         -25.6880    1.6140   26.4610 C.3     1  UNL1        0.1175
     14 C         -26.2500    2.9200   26.3950 C.2     1  UNL1        0.0649
     15 C         -25.6420    4.0930   27.1230 C.2     1  UNL1        0.2633
     16 N         -25.6140    5.2520   26.4490 N.am    1  UNL1       -0.2000
     17 C         -25.0260    6.4790   26.9630 C.3     1  UNL1        0.1388
     18 O         -25.1430    3.9660   28.2430 O.2     1  UNL1       -0.2686
     19 C         -27.4380    3.0910   25.6450 C.2     1  UNL1        0.1030
     20 N         -28.0750    2.0890   25.0030 N.2     1  UNL1       -0.2118
     21 C         -27.5430    0.8490   25.0790 C.2     1  UNL1        0.2350
     22 O         -28.1930   -0.2080   24.4770 O.2     1  UNL1       -0.4585
     23 C         -29.4600    0.0050   23.8660 C.3     1  UNL1        0.2423
     24 C         -30.0650   -1.3770   23.5730 C.3     1  UNL1        0.2292
     25 O         -30.7290   -1.8780   24.7210 O.3     1  UNL1       -0.2162
     26 C         -26.3540    0.5760   25.7770 C.3     1  UNL1        0.2499
     27 F         -25.8600   -0.6810   25.7950 F       1  UNL1       -0.2260
     28 C         -26.2681    0.0223   28.6535 C.3     1  UNL1        0.0198
     29 C         -29.7909    2.6697   28.8267 C.2     1  UNL1       -0.0043
     30 C         -28.6879    2.6697   29.7162 C.2     1  UNL1       -0.0221
     31 C         -24.7098    0.4292   28.3766 C.3     1  UNL1        0.0678
     32 N         -23.9529   -0.0544   29.4322 N.3     1  UNL1       -0.2696
     33 C         -30.1432    3.8243   28.1663 C.2     1  UNL1       -0.0003
     34 O         -29.3438    0.1884   27.8156 O.3     1  UNL1       -0.2204
     35 C         -23.6337    0.8966   27.6233 C.3     1  UNL1        0.0639
     36 C         -29.3936    4.9658   28.4003 C.2     1  UNL1       -0.0000
     37 C         -27.6516    0.2436   29.4174 C.3     1  UNL1        0.0387
     38 C         -28.1308    3.8589   30.1056 C.2     1  UNL1       -0.0043
     39 C         -28.6943   -0.5095   28.5939 C.3     1  UNL1        0.1824
     40 C         -28.3911    4.9964   29.3702 C.2     1  UNL1       -0.0003
     41 C         -28.0425    1.4845   30.1836 C.3     1  UNL1        0.0290
     42 C         -22.5520    0.0004   29.4890 C.3     1  UNL1        0.0732
     43 S         -24.0062    1.8675   26.1498 S.3     1  UNL1       -0.1326
     44 C         -21.2193    1.4419   27.7133 C.3     1  UNL1        0.0024
     45 C         -22.4988    1.2479   28.5363 C.3     1  UNL1        0.0273
@<TRIPOS>BOND
     1     1     2    1
     2     2     7    1
     3     3     2    2
     4     4     3    1
     5     4     5    2
     6     5     6    1
     7     6     7    2
     8     8     1    1
     9     8     9    1
    10     8    12    1
    11     9    10    1
    12    10    11    1
    13    12    11    1
    14    13    43    1
    15    14    13    1
    16    14    15    1
    17    15    18    2
    18    16    17    1
    19    16    15    1
    20    19    14    2
    21    20    21    2
    22    20    19    1
    23    21    26    1
    24    22    21    1
    25    23    22    1
    26    24    23    1
    27    24    25    1
    28    26    27    1
    29    26    13    1
    30    28    37    1
    31    29    30    1
    32    30    38    2
    33    30    41    1
    34    31    28    1
    35    31    32    1
    36    32    42    1
    37    32     1    1
    38    33    36    1
    39    33    29    2
    40    34    39    1
    41    35    43    1
    42    35    31    1
    43    35    45    1
    44    36    40    2
    45    37    39    1
    46    37    41    1
    47    40    38    1
    48    45    44    1
    49    45    42    1
