@<TRIPOS>MOLECULE
outputs/IAG933/test6/raw/output_5463_IAG933_linker_design_.xyz
 42 46 0 0 0
SMALL
GASTEIGER

@<TRIPOS>ATOM
      1 C         -24.8550   -1.0120   30.1430 C.3     1  UNL1        0.0616
      2 C         -24.9730   -2.5050   29.7880 C.2     1  UNL1       -0.0194
      3 C         -23.9060   -3.1730   29.1460 C.2     1  UNL1       -0.0042
      4 C         -23.9890   -4.5490   28.8530 C.2     1  UNL1       -0.0003
      5 C         -25.1370   -5.2800   29.2050 C.2     1  UNL1       -0.0000
      6 C         -26.2320   -4.6110   29.7840 C.2     1  UNL1       -0.0003
      7 C         -26.1550   -3.2320   30.0650 C.2     1  UNL1       -0.0042
      8 C         -25.3870   -0.6790   31.5710 C.3     1  UNL1        0.0786
      9 C         -25.1890    0.7730   32.0280 C.3     1  UNL1        0.0193
     10 C         -25.3360    0.6840   33.5440 C.3     1  UNL1        0.0202
     11 C         -24.8290   -0.7150   33.9050 C.3     1  UNL1        0.0887
     12 N         -24.7580   -1.4810   32.6460 N.3     1  UNL1       -0.2191
     13 C         -25.6880    1.6140   26.4610 C.2     1  UNL1        0.0369
     14 C         -26.2500    2.9200   26.3950 C.2     1  UNL1        0.0763
     15 C         -25.6420    4.0930   27.1230 C.2     1  UNL1        0.2664
     16 N         -25.6140    5.2520   26.4490 N.am    1  UNL1       -0.1997
     17 C         -25.0260    6.4790   26.9630 C.3     1  UNL1        0.1388
     18 O         -25.1430    3.9660   28.2430 O.2     1  UNL1       -0.2683
     19 C         -27.4380    3.0910   25.6450 C.2     1  UNL1        0.1067
     20 N         -28.0750    2.0890   25.0030 N.2     1  UNL1       -0.2081
     21 C         -27.5430    0.8490   25.0790 C.2     1  UNL1        0.2533
     22 O         -28.1930   -0.2080   24.4770 O.2     1  UNL1       -0.4558
     23 C         -29.4600    0.0050   23.8660 C.3     1  UNL1        0.2426
     24 C         -30.0650   -1.3770   23.5730 C.3     1  UNL1        0.2292
     25 O         -30.7290   -1.8780   24.7210 O.3     1  UNL1       -0.2162
     26 C         -26.3540    0.5760   25.7770 C.2     1  UNL1        0.1928
     27 F         -25.8600   -0.6810   25.7950 F       1  UNL1       -0.1992
     28 C         -30.1159    1.8891   29.5236 C.2     1  UNL1        0.0417
     29 C         -29.7022    0.0268   27.4570 C.2     1  UNL1        0.0003
     30 C         -27.7004   -0.8456   28.6531 C.3     1  UNL1        0.1186
     31 O         -28.0680    1.3911   30.5306 O.2     1  UNL1       -0.2869
     32 O         -22.8021    0.7374   28.5013 O.2     1  UNL1       -0.4783
     33 C         -25.2297    0.0025   28.9403 C.3     1  UNL1        0.1344
     34 C         -24.4653    1.3904   27.0912 C.2     1  UNL1        0.0152
     35 C         -28.8070    0.1277   28.5225 C.2     1  UNL1        0.0342
     36 C         -22.1779    1.6555   27.5577 C.3     1  UNL1        0.2097
     37 C         -30.7861    0.8783   27.4191 C.2     1  UNL1       -0.0001
     38 N         -26.5629    0.0640   28.7871 N.3     1  UNL1       -0.2066
     39 C         -23.1093    1.7445   26.3959 C.3     1  UNL1        0.0765
     40 C         -24.1785    0.7744   28.2405 C.2     1  UNL1        0.1283
     41 C         -28.9543    1.1193   29.5247 C.2     1  UNL1        0.1931
     42 C         -31.0182    1.7492   28.4948 C.2     1  UNL1        0.0033
@<TRIPOS>BOND
     1     1    33    1
     2     2     7    1
     3     2     1    1
     4     3     2    2
     5     4     3    1
     6     4     5    2
     7     5     6    1
     8     6     7    2
     9     8     1    1
    10     8     9    1
    11     8    12    1
    12     9    10    1
    13    10    11    1
    14    12    11    1
    15    13    34    1
    16    14    13    1
    17    14    15    1
    18    15    18    2
    19    16    17    1
    20    16    15    1
    21    19    14    2
    22    20    21    2
    23    20    19    1
    24    21    26    1
    25    22    21    1
    26    23    22    1
    27    24    23    1
    28    24    25    1
    29    26    27    1
    30    26    13    2
    31    28    41    1
    32    29    35    1
    33    30    38    1
    34    33    38    1
    35    34    40    2
    36    35    30    1
    37    35    41    2
    38    36    32    1
    39    37    29    2
    40    37    42    1
    41    39    34    1
    42    39    36    1
    43    40    32    1
    44    40    33    1
    45    41    31    1
    46    42    28    2
