@<TRIPOS>MOLECULE
outputs/IAG933/test6/raw/output_5464_IAG933_linker_design_.xyz
 47 52 0 0 0
SMALL
GASTEIGER

@<TRIPOS>ATOM
      1 C         -24.8550   -1.0120   30.1430 C.3     1  UNL1        0.1536
      2 C         -24.9730   -2.5050   29.7880 C.2     1  UNL1        0.0059
      3 C         -23.9060   -3.1730   29.1460 C.2     1  UNL1       -0.0019
      4 C         -23.9890   -4.5490   28.8530 C.2     1  UNL1       -0.0002
      5 C         -25.1370   -5.2800   29.2050 C.2     1  UNL1       -0.0000
      6 C         -26.2320   -4.6110   29.7840 C.2     1  UNL1       -0.0002
      7 C         -26.1550   -3.2320   30.0650 C.2     1  UNL1       -0.0019
      8 C         -25.3870   -0.6790   31.5710 C.3     1  UNL1        0.1088
      9 C         -25.1890    0.7730   32.0280 C.3     1  UNL1        0.0746
     10 C         -25.3360    0.6840   33.5440 C.3     1  UNL1        0.0252
     11 C         -24.8290   -0.7150   33.9050 C.3     1  UNL1        0.0890
     12 N         -24.7580   -1.4810   32.6460 N.3     1  UNL1       -0.2165
     13 C         -25.6880    1.6140   26.4610 C.2     1  UNL1        0.0889
     14 C         -26.2500    2.9200   26.3950 C.2     1  UNL1        0.0900
     15 C         -25.6420    4.0930   27.1230 C.2     1  UNL1        0.2676
     16 N         -25.6140    5.2520   26.4490 N.am    1  UNL1       -0.1997
     17 C         -25.0260    6.4790   26.9630 C.3     1  UNL1        0.1388
     18 O         -25.1430    3.9660   28.2430 O.2     1  UNL1       -0.2683
     19 C         -27.4380    3.0910   25.6450 C.2     1  UNL1        0.1080
     20 N         -28.0750    2.0890   25.0030 N.2     1  UNL1       -0.2080
     21 C         -27.5430    0.8490   25.0790 C.2     1  UNL1        0.2546
     22 O         -28.1930   -0.2080   24.4770 O.2     1  UNL1       -0.4558
     23 C         -29.4600    0.0050   23.8660 C.3     1  UNL1        0.2426
     24 C         -30.0650   -1.3770   23.5730 C.3     1  UNL1        0.2292
     25 O         -30.7290   -1.8780   24.7210 O.3     1  UNL1       -0.2162
     26 C         -26.3540    0.5760   25.7770 C.2     1  UNL1        0.2063
     27 F         -25.8600   -0.6810   25.7950 F       1  UNL1       -0.1979
     28 C         -26.8369    4.3049   31.9273 C.3     1  UNL1        0.0783
     29 C         -23.1089    1.0992   28.9664 C.3     1  UNL1        0.1952
     30 C         -30.5536    7.6285   32.5585 C.3     1  UNL1        0.0030
     31 C         -26.2812    3.3201   31.0909 C.3     1  UNL1        0.0718
     32 O         -23.5564   -0.1908   29.7011 O.3     1  UNL1       -0.3459
     33 C         -25.1688    2.1784   31.1521 C.3     1  UNL1        0.2229
     34 O         -24.3778    3.0513   31.9137 O.3     1  UNL1       -0.1951
     35 C         -29.2639    5.4795   31.8371 C.3     1  UNL1        0.1510
     36 C         -22.4330    1.0570   27.7163 C.3     1  UNL1        0.2166
     37 N         -24.4974    1.3201   27.0654 N.pl3   1  UNL1       -0.2679
     38 C         -24.5061    1.7044   28.6781 C.3     1  UNL1        0.2255
     39 O         -21.0699    0.9967   27.4291 O.3     1  UNL1       -0.2172
     40 N         -30.1363    5.4203   30.6231 N.3     1  UNL1       -0.1150
     41 C         -28.3325    3.6879   30.3987 C.3     1  UNL1        0.0735
     42 C         -23.2776    2.0814   26.8341 C.3     1  UNL1        0.1888
     43 CL        -22.6898    2.1941   25.2116 Cl      1  UNL1       -0.0899
     44 C         -29.2173    7.0257   32.0615 C.3     1  UNL1        0.0357
     45 O         -25.1896    1.6551   29.7277 O.3     1  UNL1       -0.3127
     46 C         -27.2550    3.1489   30.0323 C.3     1  UNL1        0.0237
     47 N         -28.1520    4.5227   31.4635 N.3     1  UNL1       -0.2589
@<TRIPOS>BOND
     1     1     2    1
     2     1     8    1
     3     2     7    1
     4     3     2    2
     5     4     3    1
     6     4     5    2
     7     5     6    1
     8     6     7    2
     9     8     9    1
    10     8    12    1
    11     9    10    1
    12    10    11    1
    13    12    11    1
    14    13    37    1
    15    14    13    1
    16    14    15    1
    17    15    18    2
    18    16    17    1
    19    16    15    1
    20    19    14    2
    21    20    21    2
    22    20    19    1
    23    21    26    1
    24    22    21    1
    25    23    22    1
    26    24    23    1
    27    24    25    1
    28    26    27    1
    29    26    13    2
    30    29    32    1
    31    31    46    1
    32    31    33    1
    33    31    28    1
    34    32     1    1
    35    33    34    1
    36    33     9    1
    37    35    40    1
    38    35    44    1
    39    36    39    1
    40    36    29    1
    41    37    38    1
    42    38    29    1
    43    38    45    1
    44    41    47    1
    45    42    43    1
    46    42    37    1
    47    42    36    1
    48    44    30    1
    49    45    33    1
    50    46    41    1
    51    47    35    1
    52    47    28    1
