@<TRIPOS>MOLECULE
outputs/IAG933/test6/raw/output_5472_IAG933_linker_design_.xyz
 44 47 0 0 0
SMALL
GASTEIGER

@<TRIPOS>ATOM
      1 C         -24.8550   -1.0120   30.1430 C.3     1  UNL1        0.0987
      2 C         -24.9730   -2.5050   29.7880 C.2     1  UNL1       -0.0159
      3 C         -23.9060   -3.1730   29.1460 C.2     1  UNL1       -0.0041
      4 C         -23.9890   -4.5490   28.8530 C.2     1  UNL1       -0.0003
      5 C         -25.1370   -5.2800   29.2050 C.2     1  UNL1       -0.0000
      6 C         -26.2320   -4.6110   29.7840 C.2     1  UNL1       -0.0003
      7 C         -26.1550   -3.2320   30.0650 C.2     1  UNL1       -0.0041
      8 C         -25.3870   -0.6790   31.5710 C.3     1  UNL1        0.0821
      9 C         -25.1890    0.7730   32.0280 C.3     1  UNL1        0.0194
     10 C         -25.3360    0.6840   33.5440 C.3     1  UNL1        0.0202
     11 C         -24.8290   -0.7150   33.9050 C.3     1  UNL1        0.0887
     12 N         -24.7580   -1.4810   32.6460 N.3     1  UNL1       -0.2189
     13 C         -25.6880    1.6140   26.4610 C.3     1  UNL1        0.1462
     14 C         -26.2500    2.9200   26.3950 C.2     1  UNL1        0.0731
     15 C         -25.6420    4.0930   27.1230 C.2     1  UNL1        0.2640
     16 N         -25.6140    5.2520   26.4490 N.am    1  UNL1       -0.1999
     17 C         -25.0260    6.4790   26.9630 C.3     1  UNL1        0.1388
     18 O         -25.1430    3.9660   28.2430 O.2     1  UNL1       -0.2686
     19 C         -27.4380    3.0910   25.6450 C.2     1  UNL1        0.1038
     20 N         -28.0750    2.0890   25.0030 N.2     1  UNL1       -0.2118
     21 C         -27.5430    0.8490   25.0790 C.2     1  UNL1        0.2358
     22 O         -28.1930   -0.2080   24.4770 O.2     1  UNL1       -0.4585
     23 C         -29.4600    0.0050   23.8660 C.3     1  UNL1        0.2423
     24 C         -30.0650   -1.3770   23.5730 C.3     1  UNL1        0.2292
     25 O         -30.7290   -1.8780   24.7210 O.3     1  UNL1       -0.2162
     26 C         -26.3540    0.5760   25.7770 C.3     1  UNL1        0.2581
     27 F         -25.8600   -0.6810   25.7950 F       1  UNL1       -0.2251
     28 O         -22.8531    2.5435   26.2913 O.2     1  UNL1       -0.2431
     29 C         -22.0432   -0.3384   29.0622 C.3     1  UNL1        0.1145
     30 C         -23.6980    0.9468   27.7799 C.2     1  UNL1        0.1239
     31 C         -20.9395    0.1522   28.5814 C.2     1  UNL1        0.2325
     32 N         -25.0707    1.0579   27.7064 N.pl3   1  UNL1       -0.2648
     33 O         -28.8436    0.0699   27.5959 O.2     1  UNL1       -0.2455
     34 C         -23.2798    0.1256   28.6485 C.2     1  UNL1        0.0049
     35 C         -28.1876    0.3830   28.5338 C.2     1  UNL1        0.3655
     36 N         -19.8704    0.1066   28.9119 N.2     1  UNL1       -0.1113
     37 C         -29.4462    1.5931   30.2969 C.3     1  UNL1        0.0672
     38 O         -26.8312    0.0132   29.3037 O.3     1  UNL1       -0.4295
     39 F         -27.5418    2.5842   30.0765 F       1  UNL1       -0.2089
     40 C         -28.4029    1.7077   29.3088 C.3     1  UNL1        0.2967
     41 O         -21.3131    1.2386   27.5419 O.3     1  UNL1       -0.4042
     42 N         -28.8834    2.7452   28.3557 N.3     1  UNL1       -0.0879
     43 C         -22.5256    1.6766   27.1719 C.2     1  UNL1        0.3601
     44 C         -25.4672    0.0714   28.9552 C.3     1  UNL1        0.2532
@<TRIPOS>BOND
     1     1    44    1
     2     2     7    1
     3     2     1    1
     4     3     2    2
     5     4     3    1
     6     4     5    2
     7     5     6    1
     8     6     7    2
     9     8     1    1
    10     8     9    1
    11     8    12    1
    12     9    10    1
    13    10    11    1
    14    12    11    1
    15    13    32    1
    16    14    13    1
    17    14    15    1
    18    15    18    2
    19    16    17    1
    20    16    15    1
    21    19    14    2
    22    20    21    2
    23    20    19    1
    24    21    26    1
    25    22    21    1
    26    23    22    1
    27    24    23    1
    28    24    25    1
    29    26    27    1
    30    26    13    1
    31    28    43    2
    32    30    34    2
    33    31    36    2
    34    31    29    1
    35    32    30    1
    36    32    44    1
    37    33    35    2
    38    34    29    1
    39    35    38    1
    40    35    40    1
    41    40    39    1
    42    40    37    1
    43    41    31    1
    44    42    40    1
    45    43    41    1
    46    43    30    1
    47    44    38    1
