@<TRIPOS>MOLECULE
outputs/IAG933/test6/raw/output_5476_IAG933_linker_design_.xyz
 45 49 0 0 0
SMALL
GASTEIGER

@<TRIPOS>ATOM
      1 C         -24.8550   -1.0120   30.1430 C.3     1  UNL1        0.1028
      2 C         -24.9730   -2.5050   29.7880 C.2     1  UNL1       -0.0062
      3 C         -23.9060   -3.1730   29.1460 C.2     1  UNL1       -0.0029
      4 C         -23.9890   -4.5490   28.8530 C.2     1  UNL1       -0.0003
      5 C         -25.1370   -5.2800   29.2050 C.2     1  UNL1       -0.0000
      6 C         -26.2320   -4.6110   29.7840 C.2     1  UNL1       -0.0003
      7 C         -26.1550   -3.2320   30.0650 C.2     1  UNL1       -0.0029
      8 C         -25.3870   -0.6790   31.5710 C.3     1  UNL1        0.0918
      9 C         -25.1890    0.7730   32.0280 C.3     1  UNL1        0.0206
     10 C         -25.3360    0.6840   33.5440 C.3     1  UNL1        0.0203
     11 C         -24.8290   -0.7150   33.9050 C.3     1  UNL1        0.0888
     12 N         -24.7580   -1.4810   32.6460 N.3     1  UNL1       -0.2177
     13 C         -25.6880    1.6140   26.4610 C.3     1  UNL1        0.1311
     14 C         -26.2500    2.9200   26.3950 C.2     1  UNL1        0.0697
     15 C         -25.6420    4.0930   27.1230 C.2     1  UNL1        0.2637
     16 N         -25.6140    5.2520   26.4490 N.am    1  UNL1       -0.2000
     17 C         -25.0260    6.4790   26.9630 C.3     1  UNL1        0.1388
     18 O         -25.1430    3.9660   28.2430 O.2     1  UNL1       -0.2686
     19 C         -27.4380    3.0910   25.6450 C.2     1  UNL1        0.1035
     20 N         -28.0750    2.0890   25.0030 N.2     1  UNL1       -0.2118
     21 C         -27.5430    0.8490   25.0790 C.2     1  UNL1        0.2355
     22 O         -28.1930   -0.2080   24.4770 O.2     1  UNL1       -0.4585
     23 C         -29.4600    0.0050   23.8660 C.3     1  UNL1        0.2423
     24 C         -30.0650   -1.3770   23.5730 C.3     1  UNL1        0.2292
     25 O         -30.7290   -1.8780   24.7210 O.3     1  UNL1       -0.2162
     26 C         -26.3540    0.5760   25.7770 C.3     1  UNL1        0.2547
     27 F         -25.8600   -0.6810   25.7950 F       1  UNL1       -0.2254
     28 F         -21.9828    2.1628   24.5043 F       1  UNL1       -0.1984
     29 N         -25.2152    1.0611   27.4380 N.3     1  UNL1       -0.2318
     30 C         -23.8722    1.3566   27.1544 C.3     1  UNL1        0.0829
     31 C         -22.9311    1.0632   28.0436 C.3     1  UNL1        0.1745
     32 C         -26.0027    0.1936   28.4418 C.3     1  UNL1        0.2480
     33 C         -28.3916   -0.2068   28.1184 C.3     1  UNL1        0.1772
     34 C         -23.6158    0.6207   29.2810 C.3     1  UNL1        0.2612
     35 O         -27.0702    0.0612   28.2529 O.3     1  UNL1       -0.3250
     36 F         -23.7467    0.9331   24.5732 F       1  UNL1       -0.1984
     37 C         -23.3373    2.3328   26.2958 C.3     1  UNL1        0.0891
     38 O         -21.0372    1.9431   26.8170 O.2     1  UNL1       -0.2498
     39 C         -23.0498    1.8073   25.1537 C.3     1  UNL1        0.3199
     40 N         -22.4863   -0.2647   29.8222 N.3     1  UNL1       -0.1329
     41 N         -24.7677    0.0400   29.1654 N.3     1  UNL1       -0.1956
     42 C         -21.4972    1.1058   27.7856 C.2     1  UNL1        0.3246
     43 C         -21.4012   -0.6061   29.0262 C.3     1  UNL1        0.3051
     44 O         -20.6859    0.2476   28.3523 O.3     1  UNL1       -0.4289
     45 F         -23.9130    1.7816   29.9416 F       1  UNL1       -0.2037
@<TRIPOS>BOND
     1     1     2    1
     2     2     7    1
     3     3     2    2
     4     4     3    1
     5     4     5    2
     6     5     6    1
     7     6     7    2
     8     8     1    1
     9     8     9    1
    10     8    12    1
    11     9    10    1
    12    10    11    1
    13    12    11    1
    14    13    14    1
    15    14    15    1
    16    15    18    2
    17    16    17    1
    18    16    15    1
    19    19    14    2
    20    20    21    2
    21    20    19    1
    22    21    26    1
    23    22    21    1
    24    23    22    1
    25    24    23    1
    26    24    25    1
    27    26    27    1
    28    26    13    1
    29    28    39    1
    30    29    13    1
    31    29    32    1
    32    30    37    1
    33    30    29    1
    34    30    31    1
    35    31    42    1
    36    31    34    1
    37    32    35    1
    38    32    41    1
    39    33    35    1
    40    34    40    1
    41    34    45    1
    42    36    39    1
    43    38    42    2
    44    39    37    1
    45    41    34    1
    46    41     1    1
    47    42    44    1
    48    43    40    1
    49    44    43    1
