@<TRIPOS>MOLECULE
outputs/IAG933/test6/raw/output_5477_IAG933_linker_design_.xyz
 42 47 0 0 0
SMALL
GASTEIGER

@<TRIPOS>ATOM
      1 C         -24.8550   -1.0120   30.1430 C.3     1  UNL1        0.0580
      2 C         -24.9730   -2.5050   29.7880 C.2     1  UNL1       -0.0195
      3 C         -23.9060   -3.1730   29.1460 C.2     1  UNL1       -0.0042
      4 C         -23.9890   -4.5490   28.8530 C.2     1  UNL1       -0.0003
      5 C         -25.1370   -5.2800   29.2050 C.2     1  UNL1       -0.0000
      6 C         -26.2320   -4.6110   29.7840 C.2     1  UNL1       -0.0003
      7 C         -26.1550   -3.2320   30.0650 C.2     1  UNL1       -0.0042
      8 C         -25.3870   -0.6790   31.5710 C.3     1  UNL1        0.0798
      9 C         -25.1890    0.7730   32.0280 C.3     1  UNL1        0.0341
     10 C         -25.3360    0.6840   33.5440 C.3     1  UNL1        0.0216
     11 C         -24.8290   -0.7150   33.9050 C.3     1  UNL1        0.0887
     12 N         -24.7580   -1.4810   32.6460 N.3     1  UNL1       -0.2190
     13 C         -25.6880    1.6140   26.4610 C.2     1  UNL1        0.0756
     14 C         -26.2500    2.9200   26.3950 C.2     1  UNL1        0.0777
     15 C         -25.6420    4.0930   27.1230 C.2     1  UNL1        0.2663
     16 N         -25.6140    5.2520   26.4490 N.am    1  UNL1       -0.1997
     17 C         -25.0260    6.4790   26.9630 C.3     1  UNL1        0.1388
     18 O         -25.1430    3.9660   28.2430 O.2     1  UNL1       -0.2683
     19 C         -27.4380    3.0910   25.6450 C.2     1  UNL1        0.1066
     20 N         -28.0750    2.0890   25.0030 N.2     1  UNL1       -0.2081
     21 C         -27.5430    0.8490   25.0790 C.2     1  UNL1        0.2531
     22 O         -28.1930   -0.2080   24.4770 O.2     1  UNL1       -0.4558
     23 C         -29.4600    0.0050   23.8660 C.3     1  UNL1        0.2426
     24 C         -30.0650   -1.3770   23.5730 C.3     1  UNL1        0.2292
     25 O         -30.7290   -1.8780   24.7210 O.3     1  UNL1       -0.2162
     26 C         -26.3540    0.5760   25.7770 C.2     1  UNL1        0.1942
     27 F         -25.8600   -0.6810   25.7950 F       1  UNL1       -0.1994
     28 O         -22.2694    0.2011   29.4347 O.2     1  UNL1       -0.2627
     29 C         -22.3461    1.5460   27.3685 C.2     1  UNL1        0.3973
     30 C         -25.1922    3.7011   32.7649 C.3     1  UNL1        0.0721
     31 C         -24.5245    1.4266   27.1564 C.3     1  UNL1        0.2766
     32 C         -26.7212    3.7547   30.9303 C.3     1  UNL1        0.0721
     33 N         -25.6031    3.1557   31.4393 N.3     1  UNL1       -0.2724
     34 C         -25.1810    1.5697   30.7116 C.3     1  UNL1        0.0775
     35 C         -27.9239    3.6116   31.6833 C.3     1  UNL1        0.0174
     36 O         -21.0900    1.9491   27.1141 O.2     1  UNL1       -0.2397
     37 C         -22.9155    0.8558   28.5049 C.2     1  UNL1        0.3278
     38 N         -24.1167    0.9952   28.3876 N.am    1  UNL1       -0.2344
     39 C         -26.3824    4.4399   33.4018 C.3     1  UNL1        0.0174
     40 O         -23.3840    1.7766   26.5378 O.3     1  UNL1       -0.4223
     41 C         -27.7295    3.7467   33.1826 C.3     1  UNL1        0.0029
     42 C         -25.0500    0.3781   29.6122 C.3     1  UNL1        0.0992
@<TRIPOS>BOND
     1     1     2    1
     2     1     8    1
     3     2     7    1
     4     3     2    2
     5     4     3    1
     6     4     5    2
     7     5     6    1
     8     6     7    2
     9     8     9    1
    10     8    12    1
    11     9    10    1
    12    10    11    1
    13    12    11    1
    14    14    13    1
    15    14    15    1
    16    15    18    2
    17    16    17    1
    18    16    15    1
    19    19    14    2
    20    20    21    2
    21    20    19    1
    22    21    26    1
    23    22    21    1
    24    23    22    1
    25    24    23    1
    26    24    25    1
    27    26    27    1
    28    26    13    2
    29    29    37    1
    30    30    39    1
    31    31    13    1
    32    31    38    1
    33    32    33    1
    34    32    35    1
    35    33    30    1
    36    34    33    1
    37    34     9    1
    38    35    41    1
    39    36    29    2
    40    37    28    2
    41    38    37   am
    42    40    31    1
    43    40    29    1
    44    41    39    1
    45    42    38    1
    46    42     1    1
    47    42    34    1
