@<TRIPOS>MOLECULE
outputs/IAG933/test6/raw/output_5480_IAG933_linker_design_.xyz
 48 53 0 0 0
SMALL
GASTEIGER

@<TRIPOS>ATOM
      1 C         -24.8550   -1.0120   30.1430 C.3     1  UNL1        0.0696
      2 C         -24.9730   -2.5050   29.7880 C.2     1  UNL1       -0.0184
      3 C         -23.9060   -3.1730   29.1460 C.2     1  UNL1       -0.0041
      4 C         -23.9890   -4.5490   28.8530 C.2     1  UNL1       -0.0003
      5 C         -25.1370   -5.2800   29.2050 C.2     1  UNL1       -0.0000
      6 C         -26.2320   -4.6110   29.7840 C.2     1  UNL1       -0.0003
      7 C         -26.1550   -3.2320   30.0650 C.2     1  UNL1       -0.0041
      8 C         -25.3870   -0.6790   31.5710 C.3     1  UNL1        0.0795
      9 C         -25.1890    0.7730   32.0280 C.3     1  UNL1        0.0193
     10 C         -25.3360    0.6840   33.5440 C.3     1  UNL1        0.0202
     11 C         -24.8290   -0.7150   33.9050 C.3     1  UNL1        0.0887
     12 N         -24.7580   -1.4810   32.6460 N.3     1  UNL1       -0.2190
     13 C         -25.6880    1.6140   26.4610 C.2     1  UNL1        0.0303
     14 C         -26.2500    2.9200   26.3950 C.2     1  UNL1        0.0738
     15 C         -25.6420    4.0930   27.1230 C.2     1  UNL1        0.2662
     16 N         -25.6140    5.2520   26.4490 N.am    1  UNL1       -0.1997
     17 C         -25.0260    6.4790   26.9630 C.3     1  UNL1        0.1388
     18 O         -25.1430    3.9660   28.2430 O.2     1  UNL1       -0.2683
     19 C         -27.4380    3.0910   25.6450 C.2     1  UNL1        0.1065
     20 N         -28.0750    2.0890   25.0030 N.2     1  UNL1       -0.2081
     21 C         -27.5430    0.8490   25.0790 C.2     1  UNL1        0.2530
     22 O         -28.1930   -0.2080   24.4770 O.2     1  UNL1       -0.4558
     23 C         -29.4600    0.0050   23.8660 C.3     1  UNL1        0.2426
     24 C         -30.0650   -1.3770   23.5730 C.3     1  UNL1        0.2292
     25 O         -30.7290   -1.8780   24.7210 O.3     1  UNL1       -0.2162
     26 C         -26.3540    0.5760   25.7770 C.2     1  UNL1        0.1904
     27 F         -25.8600   -0.6810   25.7950 F       1  UNL1       -0.1995
     28 C         -28.5574   -0.2828   29.3168 C.2     1  UNL1        0.2380
     29 C         -30.9058   -0.1155   29.3383 C.3     1  UNL1        0.2698
     30 N         -28.6148    0.2599   30.4999 N.2     1  UNL1       -0.1106
     31 C         -25.0322   -0.1047   28.9387 C.3     1  UNL1        0.1381
     32 C         -33.6354   -2.3143   27.5188 C.3     1  UNL1        0.1592
     33 N         -24.1782    0.8119   28.4044 N.3     1  UNL1       -0.2574
     34 C         -27.4782   -0.8717   28.9107 C.3     1  UNL1        0.1763
     35 C         -22.2257    1.4861   27.4786 C.3     1  UNL1        0.0191
     36 N         -26.3673   -0.3632   28.3711 N.3     1  UNL1       -0.1932
     37 C         -34.2905   -2.9782   28.8022 C.3     1  UNL1        0.0765
     38 O         -32.6110   -1.3711   26.9391 O.3     1  UNL1       -0.2229
     39 C         -22.8451    1.2205   28.7042 C.3     1  UNL1        0.0736
     40 O         -29.7612   -0.1822   28.5217 O.2     1  UNL1       -0.4529
     41 C         -23.2033    1.5585   26.4422 C.3     1  UNL1        0.0204
     42 C         -31.2130   -1.4345   29.8379 C.2     1  UNL1        0.1599
     43 C         -24.4151    1.3460   27.2029 C.3     1  UNL1        0.0837
     44 C         -30.2973   -2.2909   30.2016 C.2     1  UNL1        0.0391
     45 C         -34.0648   -1.6040   28.6781 C.3     1  UNL1        0.0765
     46 O         -32.0593   -2.3963   29.8039 O.2     1  UNL1       -0.4795
     47 C         -23.1847    1.6247   24.8052 C.3     1  UNL1        0.0018
     48 C         -33.4691   -2.4919   30.1024 C.3     1  UNL1        0.1707
@<TRIPOS>BOND
     1     1    31    1
     2     2     7    1
     3     2     1    1
     4     3     2    2
     5     4     3    1
     6     4     5    2
     7     5     6    1
     8     6     7    2
     9     8     1    1
    10     8     9    1
    11     8    12    1
    12     9    10    1
    13    10    11    1
    14    12    11    1
    15    13    43    1
    16    14    13    1
    17    14    15    1
    18    15    18    2
    19    16    17    1
    20    16    15    1
    21    19    14    2
    22    20    21    2
    23    20    19    1
    24    21    26    1
    25    22    21    1
    26    23    22    1
    27    24    23    1
    28    24    25    1
    29    26    27    1
    30    26    13    2
    31    28    30    2
    32    29    42    1
    33    31    36    1
    34    32    45    1
    35    32    37    1
    36    33    39    1
    37    33    31    1
    38    34    28    1
    39    35    39    1
    40    36    34    1
    41    37    48    1
    42    38    32    1
    43    40    28    1
    44    40    29    1
    45    41    43    1
    46    41    35    1
    47    42    44    2
    48    43    33    1
    49    45    37    1
    50    45    48    1
    51    46    42    1
    52    46    48    1
    53    47    41    1
