@<TRIPOS>MOLECULE
outputs/IAG933/test6/raw/output_5487_IAG933_linker_design_.xyz
 44 49 0 0 0
SMALL
GASTEIGER

@<TRIPOS>ATOM
      1 C         -24.8550   -1.0120   30.1430 C.3     1  UNL1        0.0961
      2 C         -24.9730   -2.5050   29.7880 C.2     1  UNL1       -0.0142
      3 C         -23.9060   -3.1730   29.1460 C.2     1  UNL1       -0.0038
      4 C         -23.9890   -4.5490   28.8530 C.2     1  UNL1       -0.0003
      5 C         -25.1370   -5.2800   29.2050 C.2     1  UNL1       -0.0000
      6 C         -26.2320   -4.6110   29.7840 C.2     1  UNL1       -0.0003
      7 C         -26.1550   -3.2320   30.0650 C.2     1  UNL1       -0.0038
      8 C         -25.3870   -0.6790   31.5710 C.3     1  UNL1        0.0838
      9 C         -25.1890    0.7730   32.0280 C.3     1  UNL1        0.0196
     10 C         -25.3360    0.6840   33.5440 C.3     1  UNL1        0.0203
     11 C         -24.8290   -0.7150   33.9050 C.3     1  UNL1        0.0887
     12 N         -24.7580   -1.4810   32.6460 N.3     1  UNL1       -0.2187
     13 C         -25.6880    1.6140   26.4610 C.2     1  UNL1        0.0387
     14 C         -26.2500    2.9200   26.3950 C.2     1  UNL1        0.0743
     15 C         -25.6420    4.0930   27.1230 C.2     1  UNL1        0.2218
     16 N         -25.6140    5.2520   26.4490 N.2     1  UNL1       -0.2357
     17 C         -25.0260    6.4790   26.9630 C.3     1  UNL1        0.1550
     18 O         -25.1430    3.9660   28.2430 O.2     1  UNL1       -0.4641
     19 C         -27.4380    3.0910   25.6450 C.2     1  UNL1        0.1068
     20 N         -28.0750    2.0890   25.0030 N.2     1  UNL1       -0.2081
     21 C         -27.5430    0.8490   25.0790 C.2     1  UNL1        0.2533
     22 O         -28.1930   -0.2080   24.4770 O.2     1  UNL1       -0.4558
     23 C         -29.4600    0.0050   23.8660 C.3     1  UNL1        0.2426
     24 C         -30.0650   -1.3770   23.5730 C.3     1  UNL1        0.2292
     25 O         -30.7290   -1.8780   24.7210 O.3     1  UNL1       -0.2162
     26 C         -26.3540    0.5760   25.7770 C.2     1  UNL1        0.1931
     27 F         -25.8600   -0.6810   25.7950 F       1  UNL1       -0.1992
     28 CL        -22.9640    2.3975   24.6589 Cl      1  UNL1       -0.0823
     29 C         -27.6988    3.3084   29.9055 C.3     1  UNL1        0.0364
     30 C         -24.1273    1.6395   28.4472 C.2     1  UNL1       -0.0145
     31 C         -25.7261    4.6556   30.9862 C.3     1  UNL1        0.0756
     32 C         -25.5165    4.0373   29.6056 C.3     1  UNL1        0.1707
     33 C         -28.1490    4.6013   29.2601 C.3     1  UNL1        0.1423
     34 C         -23.0502    1.9052   26.2801 C.2     1  UNL1        0.0574
     35 C         -26.8187    5.7052   31.0540 C.3     1  UNL1        0.1459
     36 C         -25.8416   -0.0753   29.4079 C.2     1  UNL1        0.1594
     37 C         -21.6778    1.7472   28.2321 C.2     1  UNL1        0.0006
     38 O         -27.8609    5.7728   30.0929 O.3     1  UNL1       -0.3536
     39 O         -26.8828   -0.3618   28.9549 O.2     1  UNL1       -0.2953
     40 C         -21.7894    1.8531   26.8621 C.2     1  UNL1        0.0114
     41 C         -22.8299    1.6654   28.9869 C.2     1  UNL1       -0.0038
     42 C         -24.2852    1.6763   27.0402 C.2     1  UNL1        0.0095
     43 C         -26.2425    2.6096   29.7117 C.3     1  UNL1        0.0537
     44 C         -25.2563    1.4388   29.4078 C.3     1  UNL1        0.0837
@<TRIPOS>BOND
     1     1    36    1
     2     2     7    1
     3     2     1    1
     4     3     2    2
     5     4     3    1
     6     4     5    2
     7     5     6    1
     8     6     7    2
     9     8     1    1
    10     8     9    1
    11     8    12    1
    12     9    10    1
    13    10    11    1
    14    12    11    1
    15    13    42    1
    16    14    13    1
    17    14    15    1
    18    15    18    1
    19    16    17    1
    20    16    15    2
    21    18    32    1
    22    19    14    2
    23    20    21    2
    24    20    19    1
    25    21    26    1
    26    22    21    1
    27    23    22    1
    28    24    23    1
    29    24    25    1
    30    26    27    1
    31    26    13    2
    32    28    34    1
    33    30    41    1
    34    30    44    1
    35    31    35    1
    36    32    43    1
    37    32    31    1
    38    33    29    1
    39    33    38    1
    40    34    40    2
    41    34    42    1
    42    37    41    2
    43    38    35    1
    44    39    36    2
    45    40    37    1
    46    42    30    2
    47    43    29    1
    48    44    36    1
    49    44    43    1
