@<TRIPOS>MOLECULE
No_549-gen_results/8p0m/2024-11-27-11-27-31/
 11 11 0 0 0
SMALL
GASTEIGER

@<TRIPOS>ATOM
      1 C         -28.0162   -0.8135   28.8779 C.ar    1  UNL1        0.0089
      2 C         -28.4690   -0.7850   29.8287 C.ar    1  UNL1        0.0536
      3 C         -26.5455   -0.8762   28.8500 C.ar    1  UNL1        0.0345
      4 C         -25.8041   -1.0324   30.0571 C.ar    1  UNL1        0.0067
      5 C         -27.9437   -0.9869   31.2075 C.ar    1  UNL1        0.0023
      6 C         -26.5825   -1.0386   31.2231 C.ar    1  UNL1        0.0004
      7 C         -30.0606   -0.7371   29.9024 C.3     1  UNL1        0.3500
      8 CL        -30.8384    0.3630   30.6035 Cl      1  UNL1       -0.0423
      9 F         -30.3912   -0.7088   28.5453 F       1  UNL1       -0.1825
     10 F         -30.4671   -1.9857   30.3183 F       1  UNL1       -0.1825
     11 BR        -25.4512   -0.7769   27.2996 Br      1  UNL1       -0.0490
@<TRIPOS>BOND
     1     2     7    1
     2     7     8    1
     3     7     9    1
     4     7    10    1
     5     3    11    1
     6     1     2   ar
     7     2     5   ar
     8     5     6   ar
     9     6     4   ar
    10     4     3   ar
    11     3     1   ar
