@<TRIPOS>MOLECULE
outputs/IAG933/test6/raw/output_5495_IAG933_linker_design_.xyz
 44 47 0 0 0
SMALL
GASTEIGER

@<TRIPOS>ATOM
      1 C         -24.8550   -1.0120   30.1430 C.3     1  UNL1        0.1419
      2 C         -24.9730   -2.5050   29.7880 C.2     1  UNL1       -0.0005
      3 C         -23.9060   -3.1730   29.1460 C.2     1  UNL1       -0.0026
      4 C         -23.9890   -4.5490   28.8530 C.2     1  UNL1       -0.0003
      5 C         -25.1370   -5.2800   29.2050 C.2     1  UNL1       -0.0000
      6 C         -26.2320   -4.6110   29.7840 C.2     1  UNL1       -0.0003
      7 C         -26.1550   -3.2320   30.0650 C.2     1  UNL1       -0.0026
      8 C         -25.3870   -0.6790   31.5710 C.3     1  UNL1        0.0976
      9 C         -25.1890    0.7730   32.0280 C.3     1  UNL1        0.0210
     10 C         -25.3360    0.6840   33.5440 C.3     1  UNL1        0.0203
     11 C         -24.8290   -0.7150   33.9050 C.3     1  UNL1        0.0888
     12 N         -24.7580   -1.4810   32.6460 N.3     1  UNL1       -0.2174
     13 C         -25.6880    1.6140   26.4610 C.3     1  UNL1        0.1306
     14 C         -26.2500    2.9200   26.3950 C.2     1  UNL1        0.0621
     15 C         -25.6420    4.0930   27.1230 C.2     1  UNL1        0.2629
     16 N         -25.6140    5.2520   26.4490 N.am    1  UNL1       -0.2000
     17 C         -25.0260    6.4790   26.9630 C.3     1  UNL1        0.1388
     18 O         -25.1430    3.9660   28.2430 O.2     1  UNL1       -0.2686
     19 C         -27.4380    3.0910   25.6450 C.2     1  UNL1        0.1026
     20 N         -28.0750    2.0890   25.0030 N.2     1  UNL1       -0.2118
     21 C         -27.5430    0.8490   25.0790 C.2     1  UNL1        0.2345
     22 O         -28.1930   -0.2080   24.4770 O.2     1  UNL1       -0.4585
     23 C         -29.4600    0.0050   23.8660 C.3     1  UNL1        0.2423
     24 C         -30.0650   -1.3770   23.5730 C.3     1  UNL1        0.2292
     25 O         -30.7290   -1.8780   24.7210 O.3     1  UNL1       -0.2162
     26 C         -26.3540    0.5760   25.7770 C.3     1  UNL1        0.2472
     27 F         -25.8600   -0.6810   25.7950 F       1  UNL1       -0.2264
     28 O         -28.4212    1.1998   30.2108 O.2     1  UNL1       -0.2933
     29 C         -29.1478   -1.1035   30.1798 C.3     1  UNL1        0.0673
     30 C         -23.4425    0.4517   28.9278 C.2     1  UNL1        0.2754
     31 O         -25.7488   -0.1574   28.2391 O.3     1  UNL1       -0.2545
     32 C         -21.9478    1.4130   27.3031 C.3     1  UNL1        0.3514
     33 N         -24.6903    0.0047   29.1335 N.am    1  UNL1       -0.1604
     34 C         -31.2542   -2.1702   29.1327 C.3     1  UNL1        0.0004
     35 F         -20.7992    1.1076   27.9090 F       1  UNL1       -0.1944
     36 O         -23.3564    2.3115   25.8326 O.2     1  UNL1       -0.3346
     37 C         -30.4019   -0.8752   29.2170 C.3     1  UNL1        0.0074
     38 C         -27.1868   -0.2354   28.7364 C.3     1  UNL1        0.2351
     39 C         -30.1042   -0.0311   27.9417 C.3     1  UNL1        0.0004
     40 O         -22.4859    0.3509   29.7517 O.2     1  UNL1       -0.2679
     41 O         -22.0671    2.1328   26.1076 O.3     1  UNL1       -0.1343
     42 C         -23.2632    1.0821   27.6928 C.2     1  UNL1        0.1317
     43 C         -28.2599    0.0963   29.8004 C.2     1  UNL1        0.1829
     44 C         -24.1645    1.6318   26.6996 C.2     1  UNL1        0.1729
@<TRIPOS>BOND
     1     1    33    1
     2     2     7    1
     3     2     1    1
     4     3     2    2
     5     4     3    1
     6     4     5    2
     7     5     6    1
     8     6     7    2
     9     8     1    1
    10     8     9    1
    11     8    12    1
    12     9    10    1
    13    10    11    1
    14    12    11    1
    15    13    44    1
    16    14    13    1
    17    14    15    1
    18    15    18    2
    19    16    17    1
    20    16    15    1
    21    19    14    2
    22    20    21    2
    23    20    19    1
    24    21    26    1
    25    22    21    1
    26    23    22    1
    27    24    23    1
    28    24    25    1
    29    26    27    1
    30    26    13    1
    31    30    33   am
    32    30    40    2
    33    31    38    1
    34    31    33    1
    35    32    42    1
    36    32    35    1
    37    34    37    1
    38    36    41    1
    39    36    44    1
    40    37    29    1
    41    38    43    1
    42    39    37    1
    43    41    32    1
    44    42    30    1
    45    43    29    1
    46    43    28    2
    47    44    42    2
