@<TRIPOS>MOLECULE
outputs/IAG933/test6/raw/output_5497_IAG933_linker_design_.xyz
 42 46 0 0 0
SMALL
GASTEIGER

@<TRIPOS>ATOM
      1 C         -24.8550   -1.0120   30.1430 C.3     1  UNL1        0.0968
      2 C         -24.9730   -2.5050   29.7880 C.2     1  UNL1       -0.0140
      3 C         -23.9060   -3.1730   29.1460 C.2     1  UNL1       -0.0038
      4 C         -23.9890   -4.5490   28.8530 C.2     1  UNL1       -0.0003
      5 C         -25.1370   -5.2800   29.2050 C.2     1  UNL1       -0.0000
      6 C         -26.2320   -4.6110   29.7840 C.2     1  UNL1       -0.0003
      7 C         -26.1550   -3.2320   30.0650 C.2     1  UNL1       -0.0038
      8 C         -25.3870   -0.6790   31.5710 C.3     1  UNL1        0.0856
      9 C         -25.1890    0.7730   32.0280 C.3     1  UNL1        0.0399
     10 C         -25.3360    0.6840   33.5440 C.3     1  UNL1        0.0220
     11 C         -24.8290   -0.7150   33.9050 C.3     1  UNL1        0.0888
     12 N         -24.7580   -1.4810   32.6460 N.3     1  UNL1       -0.2186
     13 C         -25.6880    1.6140   26.4610 C.2     1  UNL1        0.0556
     14 C         -26.2500    2.9200   26.3950 C.2     1  UNL1        0.0780
     15 C         -25.6420    4.0930   27.1230 C.2     1  UNL1        0.2665
     16 N         -25.6140    5.2520   26.4490 N.am    1  UNL1       -0.1997
     17 C         -25.0260    6.4790   26.9630 C.3     1  UNL1        0.1388
     18 O         -25.1430    3.9660   28.2430 O.2     1  UNL1       -0.2683
     19 C         -27.4380    3.0910   25.6450 C.2     1  UNL1        0.1068
     20 N         -28.0750    2.0890   25.0030 N.2     1  UNL1       -0.2081
     21 C         -27.5430    0.8490   25.0790 C.2     1  UNL1        0.2533
     22 O         -28.1930   -0.2080   24.4770 O.2     1  UNL1       -0.4558
     23 C         -29.4600    0.0050   23.8660 C.3     1  UNL1        0.2426
     24 C         -30.0650   -1.3770   23.5730 C.3     1  UNL1        0.2292
     25 O         -30.7290   -1.8780   24.7210 O.3     1  UNL1       -0.2162
     26 C         -26.3540    0.5760   25.7770 C.2     1  UNL1        0.1945
     27 F         -25.8600   -0.6810   25.7950 F       1  UNL1       -0.1992
     28 O         -20.3481    0.9519   28.3618 O.2     1  UNL1       -0.2432
     29 O         -21.4316    2.2012   26.7731 O.3     1  UNL1       -0.4393
     30 C         -24.7295    1.0701   27.2596 C.ar    1  UNL1        0.0863
     31 C         -26.5833    4.6422   33.0327 C.3     1  UNL1        0.0964
     32 N         -25.7049    3.0728   31.3116 N.am    1  UNL1       -0.2054
     33 N         -25.1403    0.0553   28.0179 N.ar    1  UNL1       -0.2304
     34 C         -22.7218    2.3691   26.3972 C.3     1  UNL1        0.2386
     35 C         -23.4803    1.5344   27.2027 C.ar    1  UNL1        0.0631
     36 C         -22.6534    0.9322   28.1312 C.ar    1  UNL1        0.1589
     37 N         -23.0675    0.1497   29.1155 N.ar    1  UNL1       -0.2240
     38 O         -24.3492    4.3610   32.6244 O.2     1  UNL1       -0.2733
     39 C         -24.3321   -0.2490   29.0289 C.ar    1  UNL1        0.1443
     40 C         -21.3712    1.2798   27.8003 C.2     1  UNL1        0.3594
     41 C         -25.4850    4.0123   32.3225 C.2     1  UNL1        0.2419
     42 C         -24.8122    1.8723   31.3318 C.3     1  UNL1        0.1165
@<TRIPOS>BOND
     1     1    39    1
     2     2     7    1
     3     2     1    1
     4     3     2    2
     5     4     3    1
     6     4     5    2
     7     5     6    1
     8     6     7    2
     9     8     1    1
    10     8     9    1
    11     8    12    1
    12     9    42    1
    13     9    10    1
    14    10    11    1
    15    12    11    1
    16    13    30    1
    17    14    13    1
    18    14    15    1
    19    15    18    2
    20    16    17    1
    21    16    15    1
    22    19    14    2
    23    20    21    2
    24    20    19    1
    25    21    26    1
    26    22    21    1
    27    23    22    1
    28    24    23    1
    29    24    25    1
    30    26    27    1
    31    26    13    2
    32    29    40    1
    33    30    33   ar
    34    32    42    1
    35    32    41    1
    36    33    39   ar
    37    34    29    1
    38    34    35    1
    39    35    30   ar
    40    35    36   ar
    41    36    37   ar
    42    39    37   ar
    43    40    36    1
    44    40    28    2
    45    41    38    2
    46    41    31    1
