@<TRIPOS>MOLECULE
No_55-gen_results/8p0m/2024-11-27-11-27-31/
 33 37 0 0 0
SMALL
GASTEIGER

@<TRIPOS>ATOM
      1 C         -28.0162   -0.8135   28.8779 C.ar    1  UNL1        0.0075
      2 C         -28.4690   -0.7850   29.8287 C.ar    1  UNL1        0.0574
      3 C         -27.0871    0.2903   28.6377 C.ar    1  UNL1       -0.0170
      4 C         -26.8317    1.2487   29.5869 C.ar    1  UNL1       -0.0039
      5 C         -28.3914    0.0801   31.0065 C.ar    1  UNL1        0.0114
      6 C         -27.4940    1.1521   30.7841 C.ar    1  UNL1        0.0006
      7 C         -26.3172    0.3994   27.3653 C.3     1  UNL1        0.0521
      8 C         -26.8815    0.9711   26.3721 C.3     1  UNL1        0.0521
      9 C         -25.0088   -0.0567   27.3826 C.2     1  UNL1       -0.0230
     10 C         -28.1703    1.4323   26.2851 C.ar    1  UNL1       -0.0178
     11 C         -28.8482    1.7560   27.1858 C.ar    1  UNL1       -0.0038
     12 C         -30.2203    2.3796   26.9554 C.ar    1  UNL1        0.0028
     13 C         -31.0753    2.7350   27.9941 C.ar    1  UNL1        0.0389
     14 C         -32.2952    3.1437   27.7768 C.ar    1  UNL1        0.0032
     15 C         -32.7141    3.3024   26.4319 C.ar    1  UNL1        0.0001
     16 C         -31.9160    3.0016   25.3921 C.ar    1  UNL1        0.0000
     17 C         -30.6776    2.5255   25.6545 C.ar    1  UNL1        0.0001
     18 C         -28.9602    1.0891   25.0374 C.ar    1  UNL1       -0.0039
     19 C         -29.9075    1.4154   24.8540 C.ar    1  UNL1       -0.0003
     20 C         -25.9895    1.3160   25.2129 C.2     1  UNL1       -0.0230
     21 C         -23.9497    0.8487   27.2891 C.2     1  UNL1        0.0087
     22 C         -23.6902    1.6633   26.0747 C.3     1  UNL1        0.2045
     23 C         -24.5150    1.9629   25.2449 C.2     1  UNL1        0.0087
     24 F         -22.5436    2.2295   26.0526 F       1  UNL1       -0.2276
     25 CL        -29.6443   -2.1340   30.2511 Cl      1  UNL1       -0.0823
     26 C         -30.6086    2.6287   29.4460 C.2     1  UNL1        0.1955
     27 C         -29.9620    3.7323   30.0792 C.ar    1  UNL1        0.0390
     28 C         -29.0679    4.4641   29.5176 C.ar    1  UNL1        0.0032
     29 C         -28.4382    5.5271   30.1806 C.ar    1  UNL1        0.0001
     30 C         -30.2236    3.9520   31.5061 C.ar    1  UNL1        0.0032
     31 C         -29.6162    4.9923   32.1896 C.ar    1  UNL1        0.0001
     32 C         -28.6966    5.7918   31.5382 C.ar    1  UNL1        0.0000
     33 O         -30.9882    1.5791   30.1127 O.2     1  UNL1       -0.2866
@<TRIPOS>BOND
     1     3     7    1
     2     7     8    1
     3     7     9    1
     4     8    10    1
     5     8    20    1
     6     9    21    2
     7    21    22    1
     8    20    23    2
     9    22    23    1
    10    22    24    1
    11     2    25    1
    12    13    26    1
    13    26    27    1
    14    26    33    2
    15    12    13   ar
    16    13    14   ar
    17    14    15   ar
    18    15    16   ar
    19    16    17   ar
    20    10    11   ar
    21    11    12   ar
    22    12    17   ar
    23    17    19   ar
    24    19    18   ar
    25    18    10   ar
    26     1     2   ar
    27     2     5   ar
    28     5     6   ar
    29     6     4   ar
    30     4     3   ar
    31     3     1   ar
    32    27    28   ar
    33    28    29   ar
    34    29    32   ar
    35    32    31   ar
    36    31    30   ar
    37    30    27   ar
