@<TRIPOS>MOLECULE
outputs/IAG933/test6/raw/output_5506_IAG933_linker_design_.xyz
 41 44 0 0 0
SMALL
GASTEIGER

@<TRIPOS>ATOM
      1 C         -24.8550   -1.0120   30.1430 C.3     1  UNL1        0.0622
      2 C         -24.9730   -2.5050   29.7880 C.2     1  UNL1       -0.0192
      3 C         -23.9060   -3.1730   29.1460 C.2     1  UNL1       -0.0042
      4 C         -23.9890   -4.5490   28.8530 C.2     1  UNL1       -0.0003
      5 C         -25.1370   -5.2800   29.2050 C.2     1  UNL1       -0.0000
      6 C         -26.2320   -4.6110   29.7840 C.2     1  UNL1       -0.0003
      7 C         -26.1550   -3.2320   30.0650 C.2     1  UNL1       -0.0042
      8 C         -25.3870   -0.6790   31.5710 C.3     1  UNL1        0.0788
      9 C         -25.1890    0.7730   32.0280 C.3     1  UNL1        0.0193
     10 C         -25.3360    0.6840   33.5440 C.3     1  UNL1        0.0202
     11 C         -24.8290   -0.7150   33.9050 C.3     1  UNL1        0.0887
     12 N         -24.7580   -1.4810   32.6460 N.3     1  UNL1       -0.2191
     13 C         -25.6880    1.6140   26.4610 C.2     1  UNL1        0.0384
     14 C         -26.2500    2.9200   26.3950 C.2     1  UNL1        0.0765
     15 C         -25.6420    4.0930   27.1230 C.2     1  UNL1        0.2664
     16 N         -25.6140    5.2520   26.4490 N.am    1  UNL1       -0.1997
     17 C         -25.0260    6.4790   26.9630 C.3     1  UNL1        0.1388
     18 O         -25.1430    3.9660   28.2430 O.2     1  UNL1       -0.2683
     19 C         -27.4380    3.0910   25.6450 C.2     1  UNL1        0.1067
     20 N         -28.0750    2.0890   25.0030 N.2     1  UNL1       -0.2081
     21 C         -27.5430    0.8490   25.0790 C.2     1  UNL1        0.2533
     22 O         -28.1930   -0.2080   24.4770 O.2     1  UNL1       -0.4558
     23 C         -29.4600    0.0050   23.8660 C.3     1  UNL1        0.2426
     24 C         -30.0650   -1.3770   23.5730 C.3     1  UNL1        0.2292
     25 O         -30.7290   -1.8780   24.7210 O.3     1  UNL1       -0.2162
     26 C         -26.3540    0.5760   25.7770 C.2     1  UNL1        0.1931
     27 F         -25.8600   -0.6810   25.7950 F       1  UNL1       -0.1992
     28 CL        -22.8053    2.5558   25.3227 Cl      1  UNL1       -0.0803
     29 C         -29.3615   -0.7242   31.3708 C.3     1  UNL1        0.0005
     30 C         -28.8134    0.6850   31.2829 C.3     1  UNL1        0.0096
     31 C         -24.2552    0.6835   28.3895 C.2     1  UNL1       -0.0166
     32 C         -27.8706    0.1522   28.8360 C.2     1  UNL1        0.2416
     33 C         -22.8751    0.8710   28.8278 C.3     1  UNL1        0.0811
     34 C         -25.2403   -0.0806   29.0264 C.3     1  UNL1        0.1193
     35 F         -21.0099    1.7517   27.5408 F       1  UNL1       -0.2076
     36 C         -23.1919    1.8062   26.7750 C.2     1  UNL1        0.0807
     37 N         -26.6014   -0.1037   28.6425 N.am    1  UNL1       -0.2026
     38 O         -28.6890   -0.3841   28.1836 O.2     1  UNL1       -0.2733
     39 C         -28.2689    1.0570   29.9290 C.3     1  UNL1        0.0868
     40 C         -24.4535    1.3600   27.1432 C.2     1  UNL1        0.0091
     41 C         -22.2830    1.4912   27.7753 C.2     1  UNL1        0.1322
@<TRIPOS>BOND
     1     1    34    1
     2     2     7    1
     3     2     1    1
     4     3     2    2
     5     4     3    1
     6     4     5    2
     7     5     6    1
     8     6     7    2
     9     8     1    1
    10     8     9    1
    11     8    12    1
    12     9    10    1
    13    10    11    1
    14    12    11    1
    15    13    40    1
    16    14    13    1
    17    14    15    1
    18    15    18    2
    19    16    17    1
    20    16    15    1
    21    19    14    2
    22    20    21    2
    23    20    19    1
    24    21    26    1
    25    22    21    1
    26    23    22    1
    27    24    23    1
    28    24    25    1
    29    26    27    1
    30    26    13    2
    31    28    36    1
    32    30    29    1
    33    31    33    1
    34    31    34    1
    35    32    39    1
    36    34    37    1
    37    35    41    1
    38    36    40    1
    39    36    41    2
    40    37    32    1
    41    38    32    2
    42    39    30    1
    43    40    31    2
    44    41    33    1
