@<TRIPOS>MOLECULE
outputs/IAG933/test6/raw/output_5507_IAG933_linker_design_.xyz
 44 48 0 0 0
SMALL
GASTEIGER

@<TRIPOS>ATOM
      1 C         -24.8550   -1.0120   30.1430 C.3     1  UNL1        0.0625
      2 C         -24.9730   -2.5050   29.7880 C.2     1  UNL1       -0.0191
      3 C         -23.9060   -3.1730   29.1460 C.2     1  UNL1       -0.0042
      4 C         -23.9890   -4.5490   28.8530 C.2     1  UNL1       -0.0003
      5 C         -25.1370   -5.2800   29.2050 C.2     1  UNL1       -0.0000
      6 C         -26.2320   -4.6110   29.7840 C.2     1  UNL1       -0.0003
      7 C         -26.1550   -3.2320   30.0650 C.2     1  UNL1       -0.0042
      8 C         -25.3870   -0.6790   31.5710 C.3     1  UNL1        0.0788
      9 C         -25.1890    0.7730   32.0280 C.3     1  UNL1        0.0193
     10 C         -25.3360    0.6840   33.5440 C.3     1  UNL1        0.0202
     11 C         -24.8290   -0.7150   33.9050 C.3     1  UNL1        0.0887
     12 N         -24.7580   -1.4810   32.6460 N.3     1  UNL1       -0.2191
     13 C         -25.6880    1.6140   26.4610 C.2     1  UNL1        0.0378
     14 C         -26.2500    2.9200   26.3950 C.2     1  UNL1        0.0765
     15 C         -25.6420    4.0930   27.1230 C.2     1  UNL1        0.2664
     16 N         -25.6140    5.2520   26.4490 N.am    1  UNL1       -0.1997
     17 C         -25.0260    6.4790   26.9630 C.3     1  UNL1        0.1388
     18 O         -25.1430    3.9660   28.2430 O.2     1  UNL1       -0.2683
     19 C         -27.4380    3.0910   25.6450 C.2     1  UNL1        0.1067
     20 N         -28.0750    2.0890   25.0030 N.2     1  UNL1       -0.2081
     21 C         -27.5430    0.8490   25.0790 C.2     1  UNL1        0.2533
     22 O         -28.1930   -0.2080   24.4770 O.2     1  UNL1       -0.4558
     23 C         -29.4600    0.0050   23.8660 C.3     1  UNL1        0.2426
     24 C         -30.0650   -1.3770   23.5730 C.3     1  UNL1        0.2292
     25 O         -30.7290   -1.8780   24.7210 O.3     1  UNL1       -0.2162
     26 C         -26.3540    0.5760   25.7770 C.2     1  UNL1        0.1930
     27 F         -25.8600   -0.6810   25.7950 F       1  UNL1       -0.1992
     28 C         -24.4339    1.3400   27.0585 C.2     1  UNL1        0.0002
     29 O         -31.4034   -2.1392   28.2219 O.3     1  UNL1       -0.2231
     30 C         -27.9007    0.3741   28.5837 C.2     1  UNL1        0.2417
     31 N         -26.5866   -0.4224   28.5206 N.am    1  UNL1       -0.2023
     32 C         -31.4186   -0.9233   28.9928 C.3     1  UNL1        0.1524
     33 C         -24.2770    0.4641   28.2217 C.2     1  UNL1       -0.0021
     34 C         -31.4353    0.9432   27.4243 C.3     1  UNL1        0.0031
     35 C         -29.1648   -0.1363   27.7872 C.3     1  UNL1        0.0893
     36 C         -32.8475   -0.3677   29.0025 C.3     1  UNL1        0.0329
     37 C         -21.8358    0.9229   28.0288 C.2     1  UNL1       -0.0003
     38 C         -22.0476    1.8582   26.9922 C.2     1  UNL1       -0.0000
     39 C         -32.8835    0.7036   27.8896 C.3     1  UNL1        0.0027
     40 C         -22.9107    0.2641   28.6196 C.2     1  UNL1       -0.0026
     41 O         -27.9843    1.3850   29.2472 O.2     1  UNL1       -0.2733
     42 C         -25.2906   -0.0310   29.0393 C.3     1  UNL1        0.1228
     43 C         -30.5268    0.2236   28.4381 C.3     1  UNL1        0.0396
     44 C         -23.3282    2.0803   26.4965 C.2     1  UNL1       -0.0002
@<TRIPOS>BOND
     1     1    42    1
     2     2     7    1
     3     2     1    1
     4     3     2    2
     5     4     3    1
     6     4     5    2
     7     5     6    1
     8     6     7    2
     9     8     1    1
    10     8     9    1
    11     8    12    1
    12     9    10    1
    13    10    11    1
    14    12    11    1
    15    13    28    1
    16    14    13    1
    17    14    15    1
    18    15    18    2
    19    16    17    1
    20    16    15    1
    21    19    14    2
    22    20    21    2
    23    20    19    1
    24    21    26    1
    25    22    21    1
    26    23    22    1
    27    24    23    1
    28    24    25    1
    29    26    27    1
    30    26    13    2
    31    28    33    1
    32    30    41    2
    33    31    30    1
    34    32    29    1
    35    32    36    1
    36    33    40    2
    37    33    42    1
    38    34    39    1
    39    34    43    1
    40    35    30    1
    41    37    40    1
    42    38    37    2
    43    39    36    1
    44    42    31    1
    45    43    35    1
    46    43    32    1
    47    44    38    1
    48    44    28    2
