@<TRIPOS>MOLECULE
outputs/IAG933/test6/raw/output_5508_IAG933_linker_design_.xyz
 45 49 0 0 0
SMALL
GASTEIGER

@<TRIPOS>ATOM
      1 C         -24.8550   -1.0120   30.1430 C.3     1  UNL1        0.0511
      2 C         -24.9730   -2.5050   29.7880 C.2     1  UNL1       -0.0204
      3 C         -23.9060   -3.1730   29.1460 C.2     1  UNL1       -0.0042
      4 C         -23.9890   -4.5490   28.8530 C.2     1  UNL1       -0.0003
      5 C         -25.1370   -5.2800   29.2050 C.2     1  UNL1       -0.0000
      6 C         -26.2320   -4.6110   29.7840 C.2     1  UNL1       -0.0003
      7 C         -26.1550   -3.2320   30.0650 C.2     1  UNL1       -0.0042
      8 C         -25.3870   -0.6790   31.5710 C.3     1  UNL1        0.0776
      9 C         -25.1890    0.7730   32.0280 C.3     1  UNL1        0.0192
     10 C         -25.3360    0.6840   33.5440 C.3     1  UNL1        0.0202
     11 C         -24.8290   -0.7150   33.9050 C.3     1  UNL1        0.0887
     12 N         -24.7580   -1.4810   32.6460 N.3     1  UNL1       -0.2191
     13 C         -25.6880    1.6140   26.4610 C.2     1  UNL1        0.0378
     14 C         -26.2500    2.9200   26.3950 C.2     1  UNL1        0.0765
     15 C         -25.6420    4.0930   27.1230 C.2     1  UNL1        0.2664
     16 N         -25.6140    5.2520   26.4490 N.am    1  UNL1       -0.1997
     17 C         -25.0260    6.4790   26.9630 C.3     1  UNL1        0.1388
     18 O         -25.1430    3.9660   28.2430 O.2     1  UNL1       -0.2683
     19 C         -27.4380    3.0910   25.6450 C.2     1  UNL1        0.1067
     20 N         -28.0750    2.0890   25.0030 N.2     1  UNL1       -0.2081
     21 C         -27.5430    0.8490   25.0790 C.2     1  UNL1        0.2533
     22 O         -28.1930   -0.2080   24.4770 O.2     1  UNL1       -0.4558
     23 C         -29.4600    0.0050   23.8660 C.3     1  UNL1        0.2426
     24 C         -30.0650   -1.3770   23.5730 C.3     1  UNL1        0.2292
     25 O         -30.7290   -1.8780   24.7210 O.3     1  UNL1       -0.2162
     26 C         -26.3540    0.5760   25.7770 C.2     1  UNL1        0.1930
     27 F         -25.8600   -0.6810   25.7950 F       1  UNL1       -0.1992
     28 C         -24.9107    0.0294   29.0500 C.3     1  UNL1        0.1061
     29 C         -29.0527    4.4786   31.5511 C.3     1  UNL1        0.0520
     30 C         -28.0806    3.3113   32.9280 C.2     1  UNL1        0.1735
     31 C         -26.3400    0.5361   29.2419 C.2     1  UNL1        0.2495
     32 C         -23.2867    1.8813   26.0868 C.2     1  UNL1       -0.0002
     33 N         -26.4454    1.5663   30.0763 N.am    1  UNL1       -0.1792
     34 C         -29.0433    4.1436   30.2073 C.3     1  UNL1        0.0312
     35 C         -24.3217    1.4532   26.9300 C.2     1  UNL1       -0.0010
     36 C         -21.6615    1.6324   27.8983 C.2     1  UNL1       -0.0003
     37 C         -29.3332    5.3456   32.6607 C.3     1  UNL1        0.2059
     38 C         -27.4296    2.5773   31.9296 C.2     1  UNL1        0.0563
     39 C         -21.9589    1.9597   26.5670 C.2     1  UNL1       -0.0000
     40 C         -27.3202    2.5198   30.4862 C.2     1  UNL1        0.0722
     41 O         -28.8922    4.2530   32.7957 O.2     1  UNL1       -0.4724
     42 C         -23.9878    0.9243   28.2321 C.2     1  UNL1       -0.0134
     43 C         -28.1576    3.2261   29.6016 C.2     1  UNL1       -0.0093
     44 C         -22.6926    1.1900   28.7258 C.2     1  UNL1       -0.0038
     45 O         -27.2640   -0.0703   28.7290 O.2     1  UNL1       -0.2726
@<TRIPOS>BOND
     1     1    28    1
     2     2     7    1
     3     2     1    1
     4     3     2    2
     5     4     3    1
     6     4     5    2
     7     5     6    1
     8     6     7    2
     9     8     1    1
    10     8     9    1
    11     8    12    1
    12     9    10    1
    13    10    11    1
    14    12    11    1
    15    13    35    1
    16    14    13    1
    17    14    15    1
    18    15    18    2
    19    16    17    1
    20    16    15    1
    21    19    14    2
    22    20    21    2
    23    20    19    1
    24    21    26    1
    25    22    21    1
    26    23    22    1
    27    24    23    1
    28    24    25    1
    29    26    27    1
    30    26    13    2
    31    28    31    1
    32    29    37    1
    33    31    33    1
    34    32    39    2
    35    32    35    1
    36    33    40    1
    37    34    29    1
    38    35    42    2
    39    36    44    2
    40    37    41    1
    41    38    30    2
    42    39    36    1
    43    40    38    1
    44    41    30    1
    45    42    44    1
    46    42    28    1
    47    43    34    1
    48    43    40    2
    49    45    31    2
