@<TRIPOS>MOLECULE
No_551-gen_results/8p0m/2024-11-27-11-27-31/
 20 22 0 0 0
SMALL
GASTEIGER

@<TRIPOS>ATOM
      1 O         -28.1229   -1.3353   28.4874 O.2     1  UNL1       -0.2745
      2 C         -27.4806   -0.4044   28.7094 C.2     1  UNL1        0.2292
      3 N         -26.4599   -0.1104   28.0051 N.am    1  UNL1       -0.2804
      4 C         -26.1475   -0.4948   26.8760 C.3     1  UNL1        0.0934
      5 C         -27.6421    0.4982   29.9779 C.3     1  UNL1        0.0995
      6 C         -27.2261    1.5801   30.0900 C.3     1  UNL1        0.0264
      7 C         -25.9958    1.8876   29.2202 C.3     1  UNL1        0.1223
      8 C         -25.6633    1.2063   28.1379 C.3     1  UNL1        0.0860
      9 C         -24.6620    1.5401   27.3001 C.3     1  UNL1        0.0204
     10 C         -24.3033    1.0665   26.1370 C.3     1  UNL1        0.0035
     11 C         -25.0723   -0.1254   25.8623 C.3     1  UNL1        0.0216
     12 C         -25.2432    3.1740   29.4729 C.2     1  UNL1        0.3660
     13 O         -25.7721    4.1005   29.3755 O.co2   1  UNL1       -0.2456
     14 O         -23.8984    2.9868   29.6862 O.co2   1  UNL1       -0.2456
     15 C         -28.7959    0.0031   30.8480 C.ar    1  UNL1       -0.0139
     16 C         -28.9506    0.5967   31.7730 C.ar    1  UNL1       -0.0038
     17 C         -29.9007    0.1624   32.8634 C.ar    1  UNL1       -0.0003
     18 C         -30.5788   -1.0420   32.5654 C.ar    1  UNL1       -0.0000
     19 C         -30.3071   -1.7688   31.4232 C.ar    1  UNL1       -0.0003
     20 C         -29.3396   -1.2978   30.5840 C.ar    1  UNL1       -0.0038
@<TRIPOS>BOND
     1     1     2    2
     2     2     3   am
     3     3     4    1
     4     2     5    1
     5     6     7    1
     6     3     8    1
     7     8     9    1
     8     4    11    1
     9    10    11    1
    10     7    12    1
    11    12    13   ar
    12    12    14   ar
    13     5    15    1
    14     5     6    1
    15     7     8    1
    16    10     9    1
    17    15    16   ar
    18    16    17   ar
    19    17    18   ar
    20    18    19   ar
    21    19    20   ar
    22    20    15   ar
