@<TRIPOS>MOLECULE
outputs/IAG933/test6/raw/output_5513_IAG933_linker_design_.xyz
 42 46 0 0 0
SMALL
GASTEIGER

@<TRIPOS>ATOM
      1 C         -24.8550   -1.0120   30.1430 C.3     1  UNL1        0.1985
      2 C         -24.9730   -2.5050   29.7880 C.2     1  UNL1        0.0213
      3 C         -23.9060   -3.1730   29.1460 C.2     1  UNL1       -0.0004
      4 C         -23.9890   -4.5490   28.8530 C.2     1  UNL1       -0.0002
      5 C         -25.1370   -5.2800   29.2050 C.2     1  UNL1       -0.0000
      6 C         -26.2320   -4.6110   29.7840 C.2     1  UNL1       -0.0002
      7 C         -26.1550   -3.2320   30.0650 C.2     1  UNL1       -0.0004
      8 C         -25.3870   -0.6790   31.5710 C.3     1  UNL1        0.1197
      9 C         -25.1890    0.7730   32.0280 C.3     1  UNL1        0.0233
     10 C         -25.3360    0.6840   33.5440 C.3     1  UNL1        0.0204
     11 C         -24.8290   -0.7150   33.9050 C.3     1  UNL1        0.0889
     12 N         -24.7580   -1.4810   32.6460 N.3     1  UNL1       -0.2150
     13 C         -25.6880    1.6140   26.4610 C.2     1  UNL1        0.0461
     14 C         -26.2500    2.9200   26.3950 C.2     1  UNL1        0.0768
     15 C         -25.6420    4.0930   27.1230 C.2     1  UNL1        0.2664
     16 N         -25.6140    5.2520   26.4490 N.am    1  UNL1       -0.1997
     17 C         -25.0260    6.4790   26.9630 C.3     1  UNL1        0.1388
     18 O         -25.1430    3.9660   28.2430 O.2     1  UNL1       -0.2683
     19 C         -27.4380    3.0910   25.6450 C.2     1  UNL1        0.1067
     20 N         -28.0750    2.0890   25.0030 N.2     1  UNL1       -0.2081
     21 C         -27.5430    0.8490   25.0790 C.2     1  UNL1        0.2533
     22 O         -28.1930   -0.2080   24.4770 O.2     1  UNL1       -0.4558
     23 C         -29.4600    0.0050   23.8660 C.3     1  UNL1        0.2426
     24 C         -30.0650   -1.3770   23.5730 C.3     1  UNL1        0.2292
     25 O         -30.7290   -1.8780   24.7210 O.3     1  UNL1       -0.2162
     26 C         -26.3540    0.5760   25.7770 C.2     1  UNL1        0.1933
     27 F         -25.8600   -0.6810   25.7950 F       1  UNL1       -0.1992
     28 C         -24.4200    0.5708   28.4645 C.2     1  UNL1        0.3253
     29 C         -30.1485    0.7638   28.5816 C.3     1  UNL1        0.1423
     30 C         -22.0604    1.5903   27.3962 C.2     1  UNL1        0.1973
     31 C         -28.1342   -0.6435   28.7945 C.3     1  UNL1        0.1618
     32 O         -29.0194    0.2037   27.9328 O.3     1  UNL1       -0.3520
     33 CL        -23.1269    2.4835   25.1226 Cl      1  UNL1       -0.0795
     34 C         -29.7458    0.7637   30.0352 C.3     1  UNL1        0.0347
     35 C         -24.4413    1.3085   27.2258 C.2     1  UNL1        0.0976
     36 N         -23.2452    0.4611   29.1048 N.2     1  UNL1       -0.0338
     37 C         -22.0545    0.9132   28.6121 C.2     1  UNL1        0.2659
     38 C         -23.2284    1.7139   26.6861 C.2     1  UNL1        0.0961
     39 C         -26.7530   -0.3760   28.7554 C.3     1  UNL1        0.2320
     40 C         -28.8260   -0.4779   30.1613 C.3     1  UNL1        0.0364
     41 F         -20.8646    2.0761   26.9237 F       1  UNL1       -0.1992
     42 N         -25.4057   -0.2131   29.0382 N.pl3   1  UNL1       -0.1867
@<TRIPOS>BOND
     1     1    42    1
     2     2     7    1
     3     2     1    1
     4     3     2    2
     5     4     3    1
     6     4     5    2
     7     5     6    1
     8     6     7    2
     9     8     1    1
    10     8     9    1
    11     8    12    1
    12     9    10    1
    13    10    11    1
    14    12    11    1
    15    13    35    1
    16    14    13    1
    17    14    15    1
    18    15    18    2
    19    16    17    1
    20    16    15    1
    21    19    14    2
    22    20    21    2
    23    20    19    1
    24    21    26    1
    25    22    21    1
    26    23    22    1
    27    24    23    1
    28    24    25    1
    29    26    27    1
    30    26    13    2
    31    28    42    1
    32    28    36    1
    33    29    34    1
    34    30    37    1
    35    31    39    1
    36    31    40    1
    37    32    29    1
    38    32    31    1
    39    33    38    1
    40    34    40    1
    41    35    28    2
    42    37    36    2
    43    38    35    1
    44    38    30    2
    45    39    42    1
    46    41    30    1
