@<TRIPOS>MOLECULE
outputs/IAG933/test6/raw/output_5516_IAG933_linker_design_.xyz
 41 45 0 0 0
SMALL
GASTEIGER

@<TRIPOS>ATOM
      1 C         -24.8550   -1.0120   30.1430 C.3     1  UNL1        0.1177
      2 C         -24.9730   -2.5050   29.7880 C.2     1  UNL1       -0.0028
      3 C         -23.9060   -3.1730   29.1460 C.2     1  UNL1       -0.0026
      4 C         -23.9890   -4.5490   28.8530 C.2     1  UNL1       -0.0003
      5 C         -25.1370   -5.2800   29.2050 C.2     1  UNL1       -0.0000
      6 C         -26.2320   -4.6110   29.7840 C.2     1  UNL1       -0.0003
      7 C         -26.1550   -3.2320   30.0650 C.2     1  UNL1       -0.0026
      8 C         -25.3870   -0.6790   31.5710 C.3     1  UNL1        0.0953
      9 C         -25.1890    0.7730   32.0280 C.3     1  UNL1        0.0209
     10 C         -25.3360    0.6840   33.5440 C.3     1  UNL1        0.0203
     11 C         -24.8290   -0.7150   33.9050 C.3     1  UNL1        0.0888
     12 N         -24.7580   -1.4810   32.6460 N.3     1  UNL1       -0.2174
     13 C         -25.6880    1.6140   26.4610 C.2     1  UNL1        0.0936
     14 C         -26.2500    2.9200   26.3950 C.2     1  UNL1        0.0903
     15 C         -25.6420    4.0930   27.1230 C.2     1  UNL1        0.2676
     16 N         -25.6140    5.2520   26.4490 N.am    1  UNL1       -0.1997
     17 C         -25.0260    6.4790   26.9630 C.3     1  UNL1        0.1388
     18 O         -25.1430    3.9660   28.2430 O.2     1  UNL1       -0.2683
     19 C         -27.4380    3.0910   25.6450 C.2     1  UNL1        0.1080
     20 N         -28.0750    2.0890   25.0030 N.2     1  UNL1       -0.2080
     21 C         -27.5430    0.8490   25.0790 C.2     1  UNL1        0.2546
     22 O         -28.1930   -0.2080   24.4770 O.2     1  UNL1       -0.4558
     23 C         -29.4600    0.0050   23.8660 C.3     1  UNL1        0.2426
     24 C         -30.0650   -1.3770   23.5730 C.3     1  UNL1        0.2292
     25 O         -30.7290   -1.8780   24.7210 O.3     1  UNL1       -0.2162
     26 C         -26.3540    0.5760   25.7770 C.2     1  UNL1        0.2067
     27 F         -25.8600   -0.6810   25.7950 F       1  UNL1       -0.1979
     28 O         -26.1841   -0.4588   28.5332 O.2     1  UNL1       -0.2519
     29 C         -23.4459    1.9031   27.1000 C.3     1  UNL1        0.1512
     30 F         -20.4098    1.2051   28.1459 F       1  UNL1       -0.1638
     31 C         -22.7336    1.7559   28.3204 C.2     1  UNL1        0.0752
     32 N         -24.3275   -0.2128   29.4094 N.am    1  UNL1       -0.2314
     33 C         -22.7814    2.6555   25.9720 C.3     1  UNL1        0.2322
     34 F         -22.1429   -0.6126   29.0655 F       1  UNL1       -0.2115
     35 O         -21.4930    2.1139   26.2019 O.2     1  UNL1       -0.4517
     36 C         -21.5701    1.7112   27.6177 C.2     1  UNL1        0.2793
     37 N         -24.6886    1.2276   27.3699 N.am    1  UNL1       -0.2346
     38 C         -25.0844    0.0552   28.1256 C.2     1  UNL1        0.3135
     39 C         -23.0835    1.5067   29.6607 C.3     1  UNL1        0.2291
     40 O         -23.7340    2.2812   30.5477 O.3     1  UNL1       -0.2135
     41 C         -23.0021    0.0371   29.9223 C.3     1  UNL1        0.2755
@<TRIPOS>BOND
     1     1     2    1
     2     2     7    1
     3     3     2    2
     4     4     3    1
     5     4     5    2
     6     5     6    1
     7     6     7    2
     8     8     1    1
     9     8     9    1
    10     8    12    1
    11     9    10    1
    12    10    11    1
    13    12    11    1
    14    13    37    1
    15    14    13    1
    16    14    15    1
    17    15    18    2
    18    16    17    1
    19    16    15    1
    20    19    14    2
    21    20    21    2
    22    20    19    1
    23    21    26    1
    24    22    21    1
    25    23    22    1
    26    24    23    1
    27    24    25    1
    28    26    27    1
    29    26    13    2
    30    29    33    1
    31    29    37    1
    32    29    31    1
    33    31    39    1
    34    32    41    1
    35    32     1    1
    36    33    35    1
    37    35    36    1
    38    36    30    1
    39    36    31    2
    40    37    38   am
    41    38    28    2
    42    38    32   am
    43    39    41    1
    44    39    40    1
    45    41    34    1
