@<TRIPOS>MOLECULE
outputs/IAG933/test6/raw/output_5521_IAG933_linker_design_.xyz
 42 44 0 0 0
SMALL
GASTEIGER

@<TRIPOS>ATOM
      1 C         -24.8550   -1.0120   30.1430 C.3     1  UNL1        0.0600
      2 C         -24.9730   -2.5050   29.7880 C.2     1  UNL1       -0.0194
      3 C         -23.9060   -3.1730   29.1460 C.2     1  UNL1       -0.0042
      4 C         -23.9890   -4.5490   28.8530 C.2     1  UNL1       -0.0003
      5 C         -25.1370   -5.2800   29.2050 C.2     1  UNL1       -0.0000
      6 C         -26.2320   -4.6110   29.7840 C.2     1  UNL1       -0.0003
      7 C         -26.1550   -3.2320   30.0650 C.2     1  UNL1       -0.0042
      8 C         -25.3870   -0.6790   31.5710 C.3     1  UNL1        0.0785
      9 C         -25.1890    0.7730   32.0280 C.3     1  UNL1        0.0192
     10 C         -25.3360    0.6840   33.5440 C.3     1  UNL1        0.0202
     11 C         -24.8290   -0.7150   33.9050 C.3     1  UNL1        0.0887
     12 N         -24.7580   -1.4810   32.6460 N.3     1  UNL1       -0.2191
     13 C         -25.6880    1.6140   26.4610 C.2     1  UNL1        0.0694
     14 C         -26.2500    2.9200   26.3950 C.2     1  UNL1        0.0695
     15 C         -25.6420    4.0930   27.1230 C.2     1  UNL1        0.2637
     16 N         -25.6140    5.2520   26.4490 N.am    1  UNL1       -0.2000
     17 C         -25.0260    6.4790   26.9630 C.3     1  UNL1        0.1388
     18 O         -25.1430    3.9660   28.2430 O.2     1  UNL1       -0.2686
     19 C         -27.4380    3.0910   25.6450 C.3     1  UNL1        0.1604
     20 N         -28.0750    2.0890   25.0030 N.2     1  UNL1       -0.2340
     21 C         -27.5430    0.8490   25.0790 C.2     1  UNL1        0.2355
     22 O         -28.1930   -0.2080   24.4770 O.2     1  UNL1       -0.4585
     23 C         -29.4600    0.0050   23.8660 C.3     1  UNL1        0.2423
     24 C         -30.0650   -1.3770   23.5730 C.3     1  UNL1        0.2292
     25 O         -30.7290   -1.8780   24.7210 O.3     1  UNL1       -0.2162
     26 C         -26.3540    0.5760   25.7770 C.3     1  UNL1        0.2707
     27 F         -25.8600   -0.6810   25.7950 F       1  UNL1       -0.2210
     28 C         -28.9666    1.1496   29.9522 C.3     1  UNL1        0.0868
     29 C         -30.1877    0.7376   27.8721 C.3     1  UNL1        0.0005
     30 C         -24.8064    0.1744   28.0529 C.3     1  UNL1        0.1130
     31 C         -31.4144    0.8152   30.1496 C.3     1  UNL1        0.0005
     32 C         -23.4290    1.6086   26.8527 C.3     1  UNL1        0.1804
     33 C         -30.6435    2.7641   28.9916 C.3     1  UNL1        0.0005
     34 C         -22.3369    1.1973   27.6075 C.2     1  UNL1        0.2809
     35 C         -28.0650    0.2108   29.5804 C.2     1  UNL1        0.2414
     36 O         -28.2941   -1.0120   29.4201 O.2     1  UNL1       -0.2733
     37 C         -30.2513    1.3718   29.2692 C.3     1  UNL1        0.0087
     38 N         -24.7671    1.4778   27.3792 N.pl3   1  UNL1       -0.2989
     39 C         -25.7725   -0.3036   29.1080 C.3     1  UNL1        0.1203
     40 N         -26.8635    0.6162   29.3077 N.am    1  UNL1       -0.2050
     41 N         -21.1334    1.7723   27.3441 N.am    1  UNL1       -0.0863
     42 O         -22.3233    0.3603   28.5854 O.2     1  UNL1       -0.2698
@<TRIPOS>BOND
     1     1    39    1
     2     2     7    1
     3     2     1    1
     4     3     2    2
     5     4     3    1
     6     4     5    2
     7     5     6    1
     8     6     7    2
     9     8     1    1
    10     8     9    1
    11     8    12    1
    12     9    10    1
    13    10    11    1
    14    12    11    1
    15    13    38    1
    16    14    13    2
    17    14    15    1
    18    15    18    2
    19    16    17    1
    20    16    15    1
    21    19    14    1
    22    20    21    2
    23    20    19    1
    24    21    26    1
    25    22    21    1
    26    23    22    1
    27    24    23    1
    28    24    25    1
    29    26    27    1
    30    26    13    1
    31    29    37    1
    32    32    38    1
    33    32    34    1
    34    33    37    1
    35    34    42    2
    36    35    28    1
    37    36    35    2
    38    37    28    1
    39    37    31    1
    40    38    30    1
    41    39    30    1
    42    39    40    1
    43    40    35    1
    44    41    34    1
