@<TRIPOS>MOLECULE
outputs/IAG933/test6/raw/output_5524_IAG933_linker_design_.xyz
 46 50 0 0 0
SMALL
GASTEIGER

@<TRIPOS>ATOM
      1 C         -24.8550   -1.0120   30.1430 C.3     1  UNL1        0.1112
      2 C         -24.9730   -2.5050   29.7880 C.2     1  UNL1       -0.0030
      3 C         -23.9060   -3.1730   29.1460 C.2     1  UNL1       -0.0026
      4 C         -23.9890   -4.5490   28.8530 C.2     1  UNL1       -0.0003
      5 C         -25.1370   -5.2800   29.2050 C.2     1  UNL1       -0.0000
      6 C         -26.2320   -4.6110   29.7840 C.2     1  UNL1       -0.0003
      7 C         -26.1550   -3.2320   30.0650 C.2     1  UNL1       -0.0026
      8 C         -25.3870   -0.6790   31.5710 C.3     1  UNL1        0.0950
      9 C         -25.1890    0.7730   32.0280 C.3     1  UNL1        0.0209
     10 C         -25.3360    0.6840   33.5440 C.3     1  UNL1        0.0203
     11 C         -24.8290   -0.7150   33.9050 C.3     1  UNL1        0.0888
     12 N         -24.7580   -1.4810   32.6460 N.3     1  UNL1       -0.2174
     13 C         -25.6880    1.6140   26.4610 C.2     1  UNL1        0.0423
     14 C         -26.2500    2.9200   26.3950 C.2     1  UNL1        0.0767
     15 C         -25.6420    4.0930   27.1230 C.2     1  UNL1        0.2664
     16 N         -25.6140    5.2520   26.4490 N.am    1  UNL1       -0.1997
     17 C         -25.0260    6.4790   26.9630 C.3     1  UNL1        0.1388
     18 O         -25.1430    3.9660   28.2430 O.2     1  UNL1       -0.2683
     19 C         -27.4380    3.0910   25.6450 C.2     1  UNL1        0.1067
     20 N         -28.0750    2.0890   25.0030 N.2     1  UNL1       -0.2081
     21 C         -27.5430    0.8490   25.0790 C.2     1  UNL1        0.2533
     22 O         -28.1930   -0.2080   24.4770 O.2     1  UNL1       -0.4558
     23 C         -29.4600    0.0050   23.8660 C.3     1  UNL1        0.2426
     24 C         -30.0650   -1.3770   23.5730 C.3     1  UNL1        0.2292
     25 O         -30.7290   -1.8780   24.7210 O.3     1  UNL1       -0.2162
     26 C         -26.3540    0.5760   25.7770 C.2     1  UNL1        0.1932
     27 F         -25.8600   -0.6810   25.7950 F       1  UNL1       -0.1992
     28 F         -21.0032    1.7299   26.1023 F       1  UNL1       -0.1800
     29 C         -21.9658    1.6949   26.9768 C.2     1  UNL1        0.2596
     30 C         -30.3379    1.8687   30.5972 C.3     1  UNL1        0.0721
     31 C         -22.9496    0.8757   29.0776 C.3     1  UNL1        0.2925
     32 N         -25.2110   -0.1511   29.0080 N.pl3   1  UNL1       -0.3038
     33 C         -31.7274    3.6906   29.5214 C.3     1  UNL1        0.0896
     34 C         -28.3341    1.2839   29.2537 C.3     1  UNL1        0.0045
     35 C         -28.8169    1.7058   30.6722 C.3     1  UNL1        0.0174
     36 O         -22.3931   -0.1722   30.0018 O.3     1  UNL1       -0.1895
     37 C         -23.2728    2.0949   26.4856 C.2     1  UNL1        0.2419
     38 N         -30.4398    2.9421   29.5284 N.3     1  UNL1       -0.2715
     39 N         -21.7405    1.2348   28.2490 N.2     1  UNL1       -0.2057
     40 C         -24.2339    0.6911   28.3486 C.2     1  UNL1        0.0827
     41 O         -23.4014    3.0066   25.6487 O.2     1  UNL1       -0.2824
     42 C         -30.2375    2.4089   28.1340 C.3     1  UNL1        0.0721
     43 C         -29.4123    1.1226   28.1548 C.3     1  UNL1        0.0174
     44 C         -26.5792   -0.3968   28.4336 C.3     1  UNL1        0.0909
     45 C         -24.4124    1.4457   27.1096 C.2     1  UNL1        0.0589
     46 C         -27.7053   -0.0827   29.4213 C.3     1  UNL1        0.0215
@<TRIPOS>BOND
     1     1    32    1
     2     2     7    1
     3     2     1    1
     4     3     2    2
     5     4     3    1
     6     4     5    2
     7     5     6    1
     8     6     7    2
     9     8     1    1
    10     8     9    1
    11     8    12    1
    12     9    10    1
    13    10    11    1
    14    12    11    1
    15    13    45    1
    16    14    13    1
    17    14    15    1
    18    15    18    2
    19    16    17    1
    20    16    15    1
    21    19    14    2
    22    20    21    2
    23    20    19    1
    24    21    26    1
    25    22    21    1
    26    23    22    1
    27    24    23    1
    28    24    25    1
    29    26    27    1
    30    26    13    2
    31    28    29    1
    32    29    39    2
    33    30    35    1
    34    31    36    1
    35    33    38    1
    36    34    46    1
    37    34    35    1
    38    37    29    1
    39    37    45    1
    40    38    30    1
    41    39    31    1
    42    40    32    1
    43    40    31    1
    44    41    37    2
    45    42    43    1
    46    42    38    1
    47    43    34    1
    48    44    32    1
    49    44    46    1
    50    45    40    2
