@<TRIPOS>MOLECULE
outputs/IAG933/test6/raw/output_5525_IAG933_linker_design_.xyz
 40 44 0 0 0
SMALL
GASTEIGER

@<TRIPOS>ATOM
      1 C         -24.8550   -1.0120   30.1430 C.3     1  UNL1        0.1159
      2 C         -24.9730   -2.5050   29.7880 C.2     1  UNL1       -0.0028
      3 C         -23.9060   -3.1730   29.1460 C.2     1  UNL1       -0.0026
      4 C         -23.9890   -4.5490   28.8530 C.2     1  UNL1       -0.0003
      5 C         -25.1370   -5.2800   29.2050 C.2     1  UNL1       -0.0000
      6 C         -26.2320   -4.6110   29.7840 C.2     1  UNL1       -0.0003
      7 C         -26.1550   -3.2320   30.0650 C.2     1  UNL1       -0.0026
      8 C         -25.3870   -0.6790   31.5710 C.3     1  UNL1        0.0952
      9 C         -25.1890    0.7730   32.0280 C.3     1  UNL1        0.0209
     10 C         -25.3360    0.6840   33.5440 C.3     1  UNL1        0.0203
     11 C         -24.8290   -0.7150   33.9050 C.3     1  UNL1        0.0888
     12 N         -24.7580   -1.4810   32.6460 N.3     1  UNL1       -0.2174
     13 C         -25.6880    1.6140   26.4610 C.2     1  UNL1        0.0203
     14 C         -26.2500    2.9200   26.3950 C.2     1  UNL1        0.0727
     15 C         -25.6420    4.0930   27.1230 C.2     1  UNL1        0.2661
     16 N         -25.6140    5.2520   26.4490 N.am    1  UNL1       -0.1997
     17 C         -25.0260    6.4790   26.9630 C.3     1  UNL1        0.1388
     18 O         -25.1430    3.9660   28.2430 O.2     1  UNL1       -0.2683
     19 C         -27.4380    3.0910   25.6450 C.2     1  UNL1        0.1064
     20 N         -28.0750    2.0890   25.0030 N.2     1  UNL1       -0.2081
     21 C         -27.5430    0.8490   25.0790 C.2     1  UNL1        0.2530
     22 O         -28.1930   -0.2080   24.4770 O.2     1  UNL1       -0.4558
     23 C         -29.4600    0.0050   23.8660 C.3     1  UNL1        0.2426
     24 C         -30.0650   -1.3770   23.5730 C.3     1  UNL1        0.2292
     25 O         -30.7290   -1.8780   24.7210 O.3     1  UNL1       -0.2162
     26 C         -26.3540    0.5760   25.7770 C.2     1  UNL1        0.1893
     27 F         -25.8600   -0.6810   25.7950 F       1  UNL1       -0.1996
     28 C         -24.5889    1.3505   27.4712 C.3     1  UNL1        0.0854
     29 C         -23.3323    1.0658   26.8928 C.3     1  UNL1        0.1507
     30 O         -23.0768    1.1570   24.3331 O.2     1  UNL1       -0.2468
     31 C         -22.6692    1.3640   25.5714 C.2     1  UNL1        0.3549
     32 C         -24.9005    1.3111   28.9482 C.3     1  UNL1        0.1991
     33 N         -24.2227    0.0638   29.3873 N.am    1  UNL1       -0.2517
     34 O         -21.0790    1.3285   27.3810 O.3     1  UNL1       -0.1623
     35 O         -24.7088    2.2057   30.1048 O.3     1  UNL1       -0.3346
     36 O         -22.0200    0.0790   30.0815 O.2     1  UNL1       -0.2720
     37 C         -22.8406    0.2129   29.1574 C.2     1  UNL1        0.2596
     38 O         -21.4635    1.8501   25.9609 O.3     1  UNL1       -0.2951
     39 C         -25.8689    2.9938   30.5830 C.3     1  UNL1        0.1761
     40 C         -22.3611    0.7336   27.8145 C.3     1  UNL1        0.2510
@<TRIPOS>BOND
     1     1     2    1
     2     2     7    1
     3     3     2    2
     4     4     3    1
     5     4     5    2
     6     5     6    1
     7     6     7    2
     8     8     1    1
     9     8     9    1
    10     8    12    1
    11     9    10    1
    12    10    11    1
    13    12    11    1
    14    14    13    1
    15    14    15    1
    16    15    18    2
    17    16    17    1
    18    16    15    1
    19    19    14    2
    20    20    21    2
    21    20    19    1
    22    21    26    1
    23    22    21    1
    24    23    22    1
    25    24    23    1
    26    24    25    1
    27    26    27    1
    28    26    13    2
    29    28    13    1
    30    28    32    1
    31    29    31    1
    32    29    28    1
    33    29    40    1
    34    30    31    2
    35    31    38    1
    36    32    33    1
    37    32    35    1
    38    33     1    1
    39    35    39    1
    40    37    33   am
    41    37    36    2
    42    38    34    1
    43    40    34    1
    44    40    37    1
