@<TRIPOS>MOLECULE
outputs/IAG933/test6/raw/output_5533_IAG933_linker_design_.xyz
 44 47 0 0 0
SMALL
GASTEIGER

@<TRIPOS>ATOM
      1 C         -24.8550   -1.0120   30.1430 C.3     1  UNL1        0.0511
      2 C         -24.9730   -2.5050   29.7880 C.2     1  UNL1       -0.0204
      3 C         -23.9060   -3.1730   29.1460 C.2     1  UNL1       -0.0042
      4 C         -23.9890   -4.5490   28.8530 C.2     1  UNL1       -0.0003
      5 C         -25.1370   -5.2800   29.2050 C.2     1  UNL1       -0.0000
      6 C         -26.2320   -4.6110   29.7840 C.2     1  UNL1       -0.0003
      7 C         -26.1550   -3.2320   30.0650 C.2     1  UNL1       -0.0042
      8 C         -25.3870   -0.6790   31.5710 C.3     1  UNL1        0.0776
      9 C         -25.1890    0.7730   32.0280 C.3     1  UNL1        0.0192
     10 C         -25.3360    0.6840   33.5440 C.3     1  UNL1        0.0202
     11 C         -24.8290   -0.7150   33.9050 C.3     1  UNL1        0.0887
     12 N         -24.7580   -1.4810   32.6460 N.3     1  UNL1       -0.2191
     13 C         -25.6880    1.6140   26.4610 C.2     1  UNL1        0.0387
     14 C         -26.2500    2.9200   26.3950 C.2     1  UNL1        0.0766
     15 C         -25.6420    4.0930   27.1230 C.2     1  UNL1        0.2664
     16 N         -25.6140    5.2520   26.4490 N.am    1  UNL1       -0.1997
     17 C         -25.0260    6.4790   26.9630 C.3     1  UNL1        0.1388
     18 O         -25.1430    3.9660   28.2430 O.2     1  UNL1       -0.2683
     19 C         -27.4380    3.0910   25.6450 C.2     1  UNL1        0.1067
     20 N         -28.0750    2.0890   25.0030 N.2     1  UNL1       -0.2081
     21 C         -27.5430    0.8490   25.0790 C.2     1  UNL1        0.2533
     22 O         -28.1930   -0.2080   24.4770 O.2     1  UNL1       -0.4558
     23 C         -29.4600    0.0050   23.8660 C.3     1  UNL1        0.2426
     24 C         -30.0650   -1.3770   23.5730 C.3     1  UNL1        0.2292
     25 O         -30.7290   -1.8780   24.7210 O.3     1  UNL1       -0.2162
     26 C         -26.3540    0.5760   25.7770 C.2     1  UNL1        0.1931
     27 F         -25.8600   -0.6810   25.7950 F       1  UNL1       -0.1992
     28 O         -26.6531    2.1988   29.5390 O.2     1  UNL1       -0.2730
     29 C         -24.4608    1.2818   27.1376 C.2     1  UNL1        0.0118
     30 CA        -29.2440    1.3904   29.0074 C.3     1  UNL1        0.1610
     31 N         -28.0961    0.6709   29.5054 N.am    1  UNL1       -0.2015
     32 C         -23.1985    0.3838   28.9054 C.2     1  UNL1       -0.0014
     33 O         -30.6616    3.0469   27.8628 O.3     1  UNL1       -0.2184
     34 C         -24.4388    0.5605   28.3146 C.2     1  UNL1       -0.0124
     35 C         -23.2345    1.7957   26.5372 C.2     1  UNL1        0.0848
     36 CB        -29.3559    2.7912   28.3907 C.3     1  UNL1        0.2063
     37 C         -22.0768    1.6606   27.2573 C.2     1  UNL1        0.1506
     38 C         -22.0215    0.9501   28.4601 C.2     1  UNL1        0.0302
     39 F         -20.9621    2.2671   26.6975 F       1  UNL1       -0.2033
     40 C         -25.6175   -0.0656   29.1193 C.3     1  UNL1        0.1058
     41 C         -26.8033    0.9948   29.4013 C.2     0  ACE0        0.2455
     42 CL        -23.1109    2.5146   25.0248 Cl      1  UNL1       -0.0799
     43 O         -29.9181   -0.8380   28.2784 O.3     1  UNL1       -0.2184
     44 C         -29.9086    0.4950   27.9428 C.3     1  UNL1        0.2063
@<TRIPOS>BOND
     1     1    40    1
     2     2     7    1
     3     2     1    1
     4     3     2    2
     5     4     3    1
     6     4     5    2
     7     5     6    1
     8     6     7    2
     9     8     1    1
    10     8     9    1
    11     8    12    1
    12     9    10    1
    13    10    11    1
    14    12    11    1
    15    13    29    1
    16    14    13    1
    17    14    15    1
    18    15    18    2
    19    16    17    1
    20    16    15    1
    21    19    14    2
    22    20    21    2
    23    20    19    1
    24    21    26    1
    25    22    21    1
    26    23    22    1
    27    24    23    1
    28    24    25    1
    29    26    27    1
    30    26    13    2
    31    29    34    1
    32    30    31    1
    33    33    36    1
    34    34    32    2
    35    34    40    1
    36    35    29    2
    37    35    37    1
    38    36    30    1
    39    37    38    2
    40    38    32    1
    41    39    37    1
    42    40    41    1
    43    41    31    1
    44    41    28    2
    45    42    35    1
    46    44    43    1
    47    44    30    1
