@<TRIPOS>MOLECULE
outputs/IAG933/test6/raw/output_554_IAG933_linker_design_.xyz
 41 44 0 0 0
SMALL
GASTEIGER

@<TRIPOS>ATOM
      1 C         -24.8550   -1.0120   30.1430 C.3     1  UNL1        0.1142
      2 C         -24.9730   -2.5050   29.7880 C.2     1  UNL1       -0.0029
      3 C         -23.9060   -3.1730   29.1460 C.2     1  UNL1       -0.0026
      4 C         -23.9890   -4.5490   28.8530 C.2     1  UNL1       -0.0003
      5 C         -25.1370   -5.2800   29.2050 C.2     1  UNL1       -0.0000
      6 C         -26.2320   -4.6110   29.7840 C.2     1  UNL1       -0.0003
      7 C         -26.1550   -3.2320   30.0650 C.2     1  UNL1       -0.0026
      8 C         -25.3870   -0.6790   31.5710 C.3     1  UNL1        0.0951
      9 C         -25.1890    0.7730   32.0280 C.3     1  UNL1        0.0209
     10 C         -25.3360    0.6840   33.5440 C.3     1  UNL1        0.0203
     11 C         -24.8290   -0.7150   33.9050 C.3     1  UNL1        0.0888
     12 N         -24.7580   -1.4810   32.6460 N.3     1  UNL1       -0.2174
     13 C         -25.6880    1.6140   26.4610 C.3     1  UNL1        0.0730
     14 C         -26.2500    2.9200   26.3950 C.2     1  UNL1        0.0549
     15 C         -25.6420    4.0930   27.1230 C.2     1  UNL1        0.2624
     16 N         -25.6140    5.2520   26.4490 N.am    1  UNL1       -0.2000
     17 C         -25.0260    6.4790   26.9630 C.3     1  UNL1        0.1388
     18 O         -25.1430    3.9660   28.2430 O.2     1  UNL1       -0.2687
     19 C         -27.4380    3.0910   25.6450 C.2     1  UNL1        0.1021
     20 N         -28.0750    2.0890   25.0030 N.2     1  UNL1       -0.2119
     21 C         -27.5430    0.8490   25.0790 C.2     1  UNL1        0.2341
     22 O         -28.1930   -0.2080   24.4770 O.2     1  UNL1       -0.4585
     23 C         -29.4600    0.0050   23.8660 C.3     1  UNL1        0.2423
     24 C         -30.0650   -1.3770   23.5730 C.3     1  UNL1        0.2292
     25 O         -30.7290   -1.8780   24.7210 O.3     1  UNL1       -0.2162
     26 C         -26.3540    0.5760   25.7770 C.3     1  UNL1        0.2401
     27 F         -25.8600   -0.6810   25.7950 F       1  UNL1       -0.2269
     28 O         -27.4884   -0.3069   28.2161 O.co2   1  UNL1       -0.2438
     29 O         -23.6020    2.5058   25.2800 O.2     1  UNL1       -0.2375
     30 C         -22.4047    2.5652   25.4670 C.2     1  UNL1        0.4202
     31 C         -23.2388    0.4235   28.9527 C.2     1  UNL1        0.2323
     32 C         -26.8012    0.6347   28.7345 C.2     1  UNL1        0.3825
     33 C         -23.0989    1.0937   27.7480 C.3     1  UNL1        0.1542
     34 F         -20.8317    1.7414   27.9676 F       1  UNL1       -0.1880
     35 N         -24.4899   -0.0323   29.2314 N.am    1  UNL1       -0.2676
     36 C         -25.3769    0.6556   28.5588 C.3     1  UNL1        0.1803
     37 O         -22.2485    0.3729   29.6611 O.2     1  UNL1       -0.2746
     38 C         -24.7537    1.1995   27.4720 C.3     1  UNL1        0.0518
     39 C         -21.8910    1.6161   27.2698 C.3     1  UNL1        0.3381
     40 O         -27.3033    1.5533   29.3980 O.co2   1  UNL1       -0.2438
     41 O         -21.4851    2.2192   26.0974 O.3     1  UNL1       -0.4120
@<TRIPOS>BOND
     1     1     2    1
     2     2     7    1
     3     3     2    2
     4     4     3    1
     5     4     5    2
     6     5     6    1
     7     6     7    2
     8     8     1    1
     9     8     9    1
    10     8    12    1
    11     9    10    1
    12    10    11    1
    13    12    11    1
    14    13    14    1
    15    14    15    1
    16    15    18    2
    17    16    17    1
    18    16    15    1
    19    19    14    2
    20    20    21    2
    21    20    19    1
    22    21    26    1
    23    22    21    1
    24    23    22    1
    25    24    23    1
    26    24    25    1
    27    26    27    1
    28    26    13    1
    29    28    32   ar
    30    29    30    2
    31    30    41    1
    32    31    35   am
    33    31    37    2
    34    32    40   ar
    35    33    39    1
    36    33    31    1
    37    35     1    1
    38    36    32    1
    39    36    35    1
    40    38    13    1
    41    38    33    1
    42    38    36    1
    43    39    34    1
    44    41    39    1
