@<TRIPOS>MOLECULE
outputs/IAG933/test6/raw/output_5540_IAG933_linker_design_.xyz
 45 49 0 0 0
SMALL
GASTEIGER

@<TRIPOS>ATOM
      1 C         -24.8550   -1.0120   30.1430 C.3     1  UNL1        0.0438
      2 C         -24.9730   -2.5050   29.7880 C.2     1  UNL1       -0.0208
      3 C         -23.9060   -3.1730   29.1460 C.2     1  UNL1       -0.0042
      4 C         -23.9890   -4.5490   28.8530 C.2     1  UNL1       -0.0003
      5 C         -25.1370   -5.2800   29.2050 C.2     1  UNL1       -0.0000
      6 C         -26.2320   -4.6110   29.7840 C.2     1  UNL1       -0.0003
      7 C         -26.1550   -3.2320   30.0650 C.2     1  UNL1       -0.0042
      8 C         -25.3870   -0.6790   31.5710 C.3     1  UNL1        0.0788
      9 C         -25.1890    0.7730   32.0280 C.3     1  UNL1        0.0396
     10 C         -25.3360    0.6840   33.5440 C.3     1  UNL1        0.0220
     11 C         -24.8290   -0.7150   33.9050 C.3     1  UNL1        0.0888
     12 N         -24.7580   -1.4810   32.6460 N.3     1  UNL1       -0.2191
     13 C         -25.6880    1.6140   26.4610 C.3     1  UNL1        0.1102
     14 C         -26.2500    2.9200   26.3950 C.2     1  UNL1        0.0604
     15 C         -25.6420    4.0930   27.1230 C.2     1  UNL1        0.2628
     16 N         -25.6140    5.2520   26.4490 N.am    1  UNL1       -0.2000
     17 C         -25.0260    6.4790   26.9630 C.3     1  UNL1        0.1388
     18 O         -25.1430    3.9660   28.2430 O.2     1  UNL1       -0.2686
     19 C         -27.4380    3.0910   25.6450 C.2     1  UNL1        0.1025
     20 N         -28.0750    2.0890   25.0030 N.2     1  UNL1       -0.2118
     21 C         -27.5430    0.8490   25.0790 C.2     1  UNL1        0.2345
     22 O         -28.1930   -0.2080   24.4770 O.2     1  UNL1       -0.4585
     23 C         -29.4600    0.0050   23.8660 C.3     1  UNL1        0.2423
     24 C         -30.0650   -1.3770   23.5730 C.3     1  UNL1        0.2292
     25 O         -30.7290   -1.8780   24.7210 O.3     1  UNL1       -0.2162
     26 C         -26.3540    0.5760   25.7770 C.3     1  UNL1        0.2455
     27 F         -25.8600   -0.6810   25.7950 F       1  UNL1       -0.2265
     28 C         -27.5504    3.0592   32.6691 C.2     1  UNL1       -0.0221
     29 C         -28.5348    3.8938   33.1523 C.3     1  UNL1        0.0518
     30 N         -24.5319    1.9225   29.7746 N.3     1  UNL1       -0.1246
     31 F         -24.1697    4.6367   32.6670 F       1  UNL1       -0.2045
     32 C         -23.2810    2.0322   25.8283 C.2     1  UNL1        0.0151
     33 C         -25.3265    2.3498   31.6301 C.3     1  UNL1        0.1172
     34 C         -24.2678    1.5724   26.6926 C.2     1  UNL1        0.0657
     35 C         -21.9411    2.1131   26.2242 C.2     1  UNL1        0.0025
     36 C         -25.5339    4.6564   32.6120 C.2     1  UNL1        0.1372
     37 C         -26.1617    5.8780   32.8016 C.2     1  UNL1        0.0290
     38 C         -27.5134    6.1990   33.1566 C.2     1  UNL1       -0.0019
     39 C         -23.2943    1.1869   29.6046 C.3     1  UNL1        0.1547
     40 C         -28.5801    5.2839   33.2673 C.2     1  UNL1       -0.0214
     41 N         -23.8169    1.2825   27.6490 N.2     1  UNL1       -0.2521
     42 C         -22.8454    1.3235   28.2460 C.2     1  UNL1        0.0778
     43 C         -21.7191    1.6712   27.5354 C.2     1  UNL1        0.0162
     44 N         -24.4421    2.7545   30.6413 N.3     1  UNL1       -0.1279
     45 C         -26.1833    3.3206   32.3475 C.2     1  UNL1        0.0187
@<TRIPOS>BOND
     1     2     7    1
     2     2     1    1
     3     3     2    2
     4     4     3    1
     5     4     5    2
     6     5     6    1
     7     6     7    2
     8     8     1    1
     9     8     9    1
    10     8    12    1
    11     9    33    1
    12     9    10    1
    13    10    11    1
    14    12    11    1
    15    13    34    1
    16    14    13    1
    17    14    15    1
    18    15    18    2
    19    16    17    1
    20    16    15    1
    21    19    14    2
    22    20    21    2
    23    20    19    1
    24    21    26    1
    25    22    21    1
    26    23    22    1
    27    24    23    1
    28    24    25    1
    29    26    27    1
    30    26    13    1
    31    28    29    1
    32    29    40    1
    33    30    44    1
    34    32    35    2
    35    32    34    1
    36    33    44    1
    37    33    45    1
    38    34    41    2
    39    35    43    1
    40    36    31    1
    41    36    37    2
    42    37    38    1
    43    38    40    2
    44    39    30    1
    45    41    42    1
    46    42    39    1
    47    43    42    2
    48    45    36    1
    49    45    28    2
