@<TRIPOS>MOLECULE
outputs/IAG933/test6/raw/output_5541_IAG933_linker_design_.xyz
 48 52 0 0 0
SMALL
GASTEIGER

@<TRIPOS>ATOM
      1 C         -24.8550   -1.0120   30.1430 C.3     1  UNL1        0.0437
      2 C         -24.9730   -2.5050   29.7880 C.2     1  UNL1       -0.0208
      3 C         -23.9060   -3.1730   29.1460 C.2     1  UNL1       -0.0042
      4 C         -23.9890   -4.5490   28.8530 C.2     1  UNL1       -0.0003
      5 C         -25.1370   -5.2800   29.2050 C.2     1  UNL1       -0.0000
      6 C         -26.2320   -4.6110   29.7840 C.2     1  UNL1       -0.0003
      7 C         -26.1550   -3.2320   30.0650 C.2     1  UNL1       -0.0042
      8 C         -25.3870   -0.6790   31.5710 C.3     1  UNL1        0.0772
      9 C         -25.1890    0.7730   32.0280 C.3     1  UNL1        0.0193
     10 C         -25.3360    0.6840   33.5440 C.3     1  UNL1        0.0202
     11 C         -24.8290   -0.7150   33.9050 C.3     1  UNL1        0.0887
     12 N         -24.7580   -1.4810   32.6460 N.3     1  UNL1       -0.2191
     13 C         -25.6880    1.6140   26.4610 C.3     1  UNL1        0.0915
     14 C         -26.2500    2.9200   26.3950 C.2     1  UNL1        0.0589
     15 C         -25.6420    4.0930   27.1230 C.2     1  UNL1        0.2628
     16 N         -25.6140    5.2520   26.4490 N.am    1  UNL1       -0.2000
     17 C         -25.0260    6.4790   26.9630 C.3     1  UNL1        0.1388
     18 O         -25.1430    3.9660   28.2430 O.2     1  UNL1       -0.2686
     19 C         -27.4380    3.0910   25.6450 C.2     1  UNL1        0.1025
     20 N         -28.0750    2.0890   25.0030 N.2     1  UNL1       -0.2118
     21 C         -27.5430    0.8490   25.0790 C.2     1  UNL1        0.2344
     22 O         -28.1930   -0.2080   24.4770 O.2     1  UNL1       -0.4585
     23 C         -29.4600    0.0050   23.8660 C.3     1  UNL1        0.2423
     24 C         -30.0650   -1.3770   23.5730 C.3     1  UNL1        0.2292
     25 O         -30.7290   -1.8780   24.7210 O.3     1  UNL1       -0.2162
     26 C         -26.3540    0.5760   25.7770 C.3     1  UNL1        0.2440
     27 F         -25.8600   -0.6810   25.7950 F       1  UNL1       -0.2265
     28 O         -27.7505    5.6419   30.4000 O.3     1  UNL1       -0.3553
     29 C         -23.3591    2.4084   24.9431 C.3     1  UNL1        0.0366
     30 O         -21.3025    1.7064   26.3499 O.3     1  UNL1       -0.3519
     31 C         -28.6393    7.6520   30.4084 C.3     1  UNL1        0.0302
     32 N         -25.5202    3.9757   31.5050 N.3     1  UNL1       -0.0242
     33 C         -23.6370    1.8540   30.6119 C.3     1  UNL1        0.0020
     34 C         -28.2999    6.9447   32.6475 C.3     1  UNL1        0.0413
     35 C         -28.4665    6.4827   31.2634 C.3     1  UNL1        0.1037
     36 C         -23.4391    1.6131   27.2642 C.2     1  UNL1       -0.0194
     37 C         -24.7239    1.9111   31.3600 C.3     1  UNL1        0.0226
     38 C         -24.7766    3.0544   32.2660 C.3     1  UNL1        0.1353
     39 C         -27.1240    4.8613   32.8595 C.2     1  UNL1        0.3387
     40 C         -28.9702    4.8311   29.9816 C.3     1  UNL1        0.1739
     41 O         -26.2530    5.1204   33.7280 O.2     1  UNL1       -0.2482
     42 O         -26.9638    4.1444   32.0795 O.3     1  UNL1       -0.3476
     43 C         -28.3879    5.5263   32.9091 C.3     1  UNL1        0.1279
     44 C         -22.7945    0.9288   29.6844 C.3     1  UNL1        0.0067
     45 C         -22.4908    1.3543   28.2529 C.3     1  UNL1        0.0499
     46 C         -22.6884    2.0082   26.1903 C.3     1  UNL1        0.1334
     47 C         -21.2116    1.3915   27.6649 C.3     1  UNL1        0.1465
     48 C         -24.8900    1.4469   27.4545 C.2     1  UNL1       -0.0247
@<TRIPOS>BOND
     1     2     7    1
     2     2     1    1
     3     3     2    2
     4     4     3    1
     5     4     5    2
     6     5     6    1
     7     6     7    2
     8     8     1    1
     9     8     9    1
    10     8    12    1
    11     9    37    1
    12     9    10    1
    13    10    11    1
    14    12    11    1
    15    13    48    1
    16    14    13    1
    17    14    15    1
    18    15    18    2
    19    16    17    1
    20    16    15    1
    21    19    14    2
    22    20    21    2
    23    20    19    1
    24    21    26    1
    25    22    21    1
    26    23    22    1
    27    24    23    1
    28    24    25    1
    29    26    27    1
    30    26    13    1
    31    28    35    1
    32    30    47    1
    33    32    42    1
    34    32    38    1
    35    34    43    1
    36    35    31    1
    37    35    34    1
    38    35    43    1
    39    36    48    2
    40    36    45    1
    41    37    33    1
    42    37    38    1
    43    39    41    2
    44    40    28    1
    45    42    39    1
    46    43    39    1
    47    44    33    1
    48    45    44    1
    49    46    29    1
    50    46    30    1
    51    46    36    1
    52    47    45    1
