@<TRIPOS>MOLECULE
outputs/IAG933/test6/raw/output_555_IAG933_linker_design_.xyz
 47 50 0 0 0
SMALL
GASTEIGER

@<TRIPOS>ATOM
      1 C         -24.8550   -1.0120   30.1430 C.3     1  UNL1        0.1333
      2 C         -24.9730   -2.5050   29.7880 C.2     1  UNL1       -0.0012
      3 C         -23.9060   -3.1730   29.1460 C.2     1  UNL1       -0.0026
      4 C         -23.9890   -4.5490   28.8530 C.2     1  UNL1       -0.0003
      5 C         -25.1370   -5.2800   29.2050 C.2     1  UNL1       -0.0000
      6 C         -26.2320   -4.6110   29.7840 C.2     1  UNL1       -0.0003
      7 C         -26.1550   -3.2320   30.0650 C.2     1  UNL1       -0.0026
      8 C         -25.3870   -0.6790   31.5710 C.3     1  UNL1        0.0969
      9 C         -25.1890    0.7730   32.0280 C.3     1  UNL1        0.0210
     10 C         -25.3360    0.6840   33.5440 C.3     1  UNL1        0.0203
     11 C         -24.8290   -0.7150   33.9050 C.3     1  UNL1        0.0888
     12 N         -24.7580   -1.4810   32.6460 N.3     1  UNL1       -0.2174
     13 C         -25.6880    1.6140   26.4610 C.3     1  UNL1        0.0707
     14 C         -26.2500    2.9200   26.3950 C.2     1  UNL1        0.0529
     15 C         -25.6420    4.0930   27.1230 C.2     1  UNL1        0.2264
     16 N         -25.6140    5.2520   26.4490 N.2     1  UNL1       -0.2357
     17 C         -25.0260    6.4790   26.9630 C.3     1  UNL1        0.1550
     18 O         -25.1430    3.9660   28.2430 O.2     1  UNL1       -0.3809
     19 C         -27.4380    3.0910   25.6450 C.2     1  UNL1        0.1022
     20 N         -28.0750    2.0890   25.0030 N.2     1  UNL1       -0.2119
     21 C         -27.5430    0.8490   25.0790 C.2     1  UNL1        0.2341
     22 O         -28.1930   -0.2080   24.4770 O.2     1  UNL1       -0.4585
     23 C         -29.4600    0.0050   23.8660 C.3     1  UNL1        0.2423
     24 C         -30.0650   -1.3770   23.5730 C.3     1  UNL1        0.2292
     25 O         -30.7290   -1.8780   24.7210 O.3     1  UNL1       -0.2162
     26 C         -26.3540    0.5760   25.7770 C.3     1  UNL1        0.2400
     27 F         -25.8600   -0.6810   25.7950 F       1  UNL1       -0.2269
     28 C         -29.9424    1.6707   29.9383 C.2     1  UNL1        0.1998
     29 C         -23.3847    0.4581   28.5026 C.2     1  UNL1        0.2412
     30 C         -31.2932    1.9115   30.2943 C.2     1  UNL1        0.0379
     31 N         -24.7314   -0.1720   28.8570 N.am    1  UNL1       -0.2013
     32 O         -24.8084    2.4316   29.6904 O.2     1  UNL1       -0.2103
     33 C         -28.9693    2.4291   30.7436 C.2     1  UNL1        0.0942
     34 C         -30.7363    3.1329   32.2722 C.2     1  UNL1       -0.0039
     35 C         -31.6118    2.9033   31.1965 C.2     1  UNL1       -0.0187
     36 N         -27.0488    3.0811   29.3370 N.am    1  UNL1       -0.0824
     37 C         -32.7174    3.9013   30.7843 C.3     1  UNL1        0.0311
     38 C         -29.3587    2.9456   32.0185 C.2     1  UNL1        0.0075
     39 C         -24.1926    1.5633   26.3171 C.3     1  UNL1        0.0169
     40 O         -25.5140    4.3269   30.5339 O.2     1  UNL1       -0.2103
     41 O         -29.5137    0.9334   28.8722 O.2     1  UNL1       -0.2864
     42 C         -23.2479    1.8109   27.5756 C.3     1  UNL1        0.0787
     43 O         -28.3660    4.6667   30.3320 O.2     1  UNL1       -0.2679
     44 C         -28.1424    3.4593   30.0575 C.2     1  UNL1        0.2766
     45 C         -21.7204    1.7591   27.1353 C.3     1  UNL1        0.0096
     46 C         -25.6770    3.5035   29.4079 C.3     1  UNL1        0.6024
     47 O         -22.3289    0.0716   29.0978 O.2     1  UNL1       -0.2733
@<TRIPOS>BOND
     1     1    31    1
     2     2     7    1
     3     2     1    1
     4     3     2    2
     5     4     3    1
     6     4     5    2
     7     5     6    1
     8     6     7    2
     9     8     1    1
    10     8     9    1
    11     8    12    1
    12     9    10    1
    13    10    11    1
    14    12    11    1
    15    13    39    1
    16    14    13    1
    17    14    15    1
    18    15    18    1
    19    16    17    1
    20    16    15    2
    21    18    46    1
    22    19    14    2
    23    20    21    2
    24    20    19    1
    25    21    26    1
    26    22    21    1
    27    23    22    1
    28    24    23    1
    29    24    25    1
    30    26    27    1
    31    26    13    1
    32    28    30    2
    33    28    33    1
    34    29    31    1
    35    29    47    2
    36    30    35    1
    37    33    38    2
    38    35    34    2
    39    36    46    1
    40    36    44    1
    41    37    35    1
    42    38    34    1
    43    39    42    1
    44    41    28    1
    45    42    45    1
    46    42    29    1
    47    44    43    2
    48    44    33    1
    49    46    32    1
    50    46    40    1
