@<TRIPOS>MOLECULE
outputs/IAG933/test6/raw/output_5550_IAG933_linker_design_.xyz
 45 48 0 0 0
SMALL
GASTEIGER

@<TRIPOS>ATOM
      1 C         -24.8550   -1.0120   30.1430 C.3     1  UNL1        0.0443
      2 C         -24.9730   -2.5050   29.7880 C.2     1  UNL1       -0.0208
      3 C         -23.9060   -3.1730   29.1460 C.2     1  UNL1       -0.0042
      4 C         -23.9890   -4.5490   28.8530 C.2     1  UNL1       -0.0003
      5 C         -25.1370   -5.2800   29.2050 C.2     1  UNL1       -0.0000
      6 C         -26.2320   -4.6110   29.7840 C.2     1  UNL1       -0.0003
      7 C         -26.1550   -3.2320   30.0650 C.2     1  UNL1       -0.0042
      8 C         -25.3870   -0.6790   31.5710 C.3     1  UNL1        0.0772
      9 C         -25.1890    0.7730   32.0280 C.3     1  UNL1        0.0192
     10 C         -25.3360    0.6840   33.5440 C.3     1  UNL1        0.0202
     11 C         -24.8290   -0.7150   33.9050 C.3     1  UNL1        0.0887
     12 N         -24.7580   -1.4810   32.6460 N.3     1  UNL1       -0.2191
     13 C         -25.6880    1.6140   26.4610 C.3     1  UNL1        0.0897
     14 C         -26.2500    2.9200   26.3950 C.2     1  UNL1        0.0586
     15 C         -25.6420    4.0930   27.1230 C.2     1  UNL1        0.2627
     16 N         -25.6140    5.2520   26.4490 N.am    1  UNL1       -0.2000
     17 C         -25.0260    6.4790   26.9630 C.3     1  UNL1        0.1388
     18 O         -25.1430    3.9660   28.2430 O.2     1  UNL1       -0.2686
     19 C         -27.4380    3.0910   25.6450 C.2     1  UNL1        0.1025
     20 N         -28.0750    2.0890   25.0030 N.2     1  UNL1       -0.2118
     21 C         -27.5430    0.8490   25.0790 C.2     1  UNL1        0.2344
     22 O         -28.1930   -0.2080   24.4770 O.2     1  UNL1       -0.4585
     23 C         -29.4600    0.0050   23.8660 C.3     1  UNL1        0.2423
     24 C         -30.0650   -1.3770   23.5730 C.3     1  UNL1        0.2292
     25 O         -30.7290   -1.8780   24.7210 O.3     1  UNL1       -0.2162
     26 C         -26.3540    0.5760   25.7770 C.3     1  UNL1        0.2437
     27 F         -25.8600   -0.6810   25.7950 F       1  UNL1       -0.2265
     28 C         -31.7744   -1.8618   29.8572 C.3     1  UNL1        0.1770
     29 N         -26.7026   -0.2230   28.5375 N.am    1  UNL1       -0.1660
     30 O         -31.0920   -0.6787   29.5425 O.3     1  UNL1       -0.3231
     31 C         -30.0350    0.2298   27.5981 C.3     1  UNL1        0.2294
     32 O         -28.9403   -0.4597   28.1408 O.3     1  UNL1       -0.4319
     33 C         -24.8616    1.2904   27.4307 C.2     1  UNL1       -0.0214
     34 O         -28.0841    0.9720   29.7670 O.2     1  UNL1       -0.2246
     35 C         -23.4149    1.6671   27.1504 C.2     1  UNL1       -0.0320
     36 C         -22.9867    2.4010   25.8904 C.3     1  UNL1        0.0301
     37 C         -31.3263   -0.4198   28.1338 C.3     1  UNL1        0.3095
     38 O         -31.4688   -1.5154   27.2373 O.3     1  UNL1       -0.1858
     39 C         -24.4067    0.1742   29.3245 C.3     1  UNL1        0.0510
     40 C         -25.5355    0.7087   28.6198 C.3     1  UNL1        0.1213
     41 C         -22.5055    1.1322   28.1393 C.2     1  UNL1       -0.0305
     42 C         -27.9417    0.1198   28.9069 C.2     1  UNL1        0.4214
     43 C         -30.1832    1.7365   27.6290 C.3     1  UNL1        0.0530
     44 C         -20.9891    1.2071   27.9353 C.3     1  UNL1        0.0303
     45 C         -23.0790    0.4237   29.2617 C.2     1  UNL1       -0.0286
@<TRIPOS>BOND
     1     1     2    1
     2     2     7    1
     3     3     2    2
     4     4     3    1
     5     4     5    2
     6     5     6    1
     7     6     7    2
     8     8     1    1
     9     8     9    1
    10     8    12    1
    11     9    10    1
    12    10    11    1
    13    12    11    1
    14    13    33    1
    15    14    13    1
    16    14    15    1
    17    15    18    2
    18    16    17    1
    19    16    15    1
    20    19    14    2
    21    20    21    2
    22    20    19    1
    23    21    26    1
    24    22    21    1
    25    23    22    1
    26    24    23    1
    27    24    25    1
    28    26    27    1
    29    26    13    1
    30    29    42    1
    31    30    28    1
    32    31    43    1
    33    31    37    1
    34    31    32    1
    35    32    42    1
    36    33    40    1
    37    35    33    2
    38    35    41    1
    39    36    35    1
    40    37    38    1
    41    37    30    1
    42    39     1    1
    43    40    29    1
    44    40    39    1
    45    41    45    2
    46    42    34    2
    47    44    41    1
    48    45    39    1
