@<TRIPOS>MOLECULE
outputs/IAG933/test6/raw/output_5557_IAG933_linker_design_.xyz
 38 41 0 0 0
SMALL
GASTEIGER

@<TRIPOS>ATOM
      1 C         -24.8550   -1.0120   30.1430 C.3     1  UNL1        0.2431
      2 C         -24.9730   -2.5050   29.7880 C.2     1  UNL1        0.0254
      3 C         -23.9060   -3.1730   29.1460 C.2     1  UNL1       -0.0003
      4 C         -23.9890   -4.5490   28.8530 C.2     1  UNL1       -0.0002
      5 C         -25.1370   -5.2800   29.2050 C.2     1  UNL1       -0.0000
      6 C         -26.2320   -4.6110   29.7840 C.2     1  UNL1       -0.0002
      7 C         -26.1550   -3.2320   30.0650 C.2     1  UNL1       -0.0003
      8 C         -25.3870   -0.6790   31.5710 C.3     1  UNL1        0.1239
      9 C         -25.1890    0.7730   32.0280 C.3     1  UNL1        0.0235
     10 C         -25.3360    0.6840   33.5440 C.3     1  UNL1        0.0204
     11 C         -24.8290   -0.7150   33.9050 C.3     1  UNL1        0.0889
     12 N         -24.7580   -1.4810   32.6460 N.3     1  UNL1       -0.2149
     13 C         -25.6880    1.6140   26.4610 C.3     1  UNL1        0.1575
     14 C         -26.2500    2.9200   26.3950 C.2     1  UNL1        0.0757
     15 C         -25.6420    4.0930   27.1230 C.2     1  UNL1        0.2642
     16 N         -25.6140    5.2520   26.4490 N.am    1  UNL1       -0.1999
     17 C         -25.0260    6.4790   26.9630 C.3     1  UNL1        0.1388
     18 O         -25.1430    3.9660   28.2430 O.2     1  UNL1       -0.2686
     19 C         -27.4380    3.0910   25.6450 C.2     1  UNL1        0.1040
     20 N         -28.0750    2.0890   25.0030 N.2     1  UNL1       -0.2117
     21 C         -27.5430    0.8490   25.0790 C.2     1  UNL1        0.2361
     22 O         -28.1930   -0.2080   24.4770 O.2     1  UNL1       -0.4585
     23 C         -29.4600    0.0050   23.8660 C.3     1  UNL1        0.2423
     24 C         -30.0650   -1.3770   23.5730 C.3     1  UNL1        0.2292
     25 O         -30.7290   -1.8780   24.7210 O.3     1  UNL1       -0.2162
     26 C         -26.3540    0.5760   25.7770 C.3     1  UNL1        0.2607
     27 F         -25.8600   -0.6810   25.7950 F       1  UNL1       -0.2248
     28 C         -23.1678    1.9962   26.4509 C.ar    1  UNL1        0.1482
     29 C         -24.1221    0.6661   27.8553 C.ar    1  UNL1        0.1619
     30 N         -24.3801    1.5073   26.8501 N.ar    1  UNL1       -0.2972
     31 N         -23.4285   -0.5060   30.1872 N.pl3   1  UNL1       -0.0257
     32 C         -22.5045    0.1622   29.3419 C.2     1  UNL1        0.4183
     33 C         -22.8241    0.8527   28.2643 C.ar    1  UNL1        0.1531
     34 N         -25.1894    0.0510   28.3519 N.pl3   1  UNL1       -0.1086
     35 C         -22.1701    1.6123   27.3437 C.ar    1  UNL1        0.1769
     36 CL        -22.9249    2.8297   25.0575 Cl      1  UNL1       -0.0607
     37 N         -21.2506    0.1197   29.6025 N.2     1  UNL1        0.1973
     38 F         -20.8942    1.9242   27.2671 F       1  UNL1       -0.2014
@<TRIPOS>BOND
     1     1    31    1
     2     2     7    1
     3     2     1    1
     4     3     2    2
     5     4     3    1
     6     4     5    2
     7     5     6    1
     8     6     7    2
     9     8     1    1
    10     8     9    1
    11     8    12    1
    12     9    10    1
    13    10    11    1
    14    12    11    1
    15    13    30    1
    16    14    13    1
    17    14    15    1
    18    15    18    2
    19    16    17    1
    20    16    15    1
    21    19    14    2
    22    20    21    2
    23    20    19    1
    24    21    26    1
    25    22    21    1
    26    23    22    1
    27    24    23    1
    28    24    25    1
    29    26    27    1
    30    26    13    1
    31    28    30   ar
    32    28    35   ar
    33    29    33   ar
    34    29    34    1
    35    30    29   ar
    36    32    37    2
    37    32    31    1
    38    33    32    1
    39    35    33   ar
    40    36    28    1
    41    38    35    1
