@<TRIPOS>MOLECULE
outputs/IAG933/test6/raw/output_5564_IAG933_linker_design_.xyz
 41 44 0 0 0
SMALL
GASTEIGER

@<TRIPOS>ATOM
      1 C         -24.8550   -1.0120   30.1430 C.3     1  UNL1        0.0588
      2 C         -24.9730   -2.5050   29.7880 C.2     1  UNL1       -0.0195
      3 C         -23.9060   -3.1730   29.1460 C.2     1  UNL1       -0.0042
      4 C         -23.9890   -4.5490   28.8530 C.2     1  UNL1       -0.0003
      5 C         -25.1370   -5.2800   29.2050 C.2     1  UNL1       -0.0000
      6 C         -26.2320   -4.6110   29.7840 C.2     1  UNL1       -0.0003
      7 C         -26.1550   -3.2320   30.0650 C.2     1  UNL1       -0.0042
      8 C         -25.3870   -0.6790   31.5710 C.3     1  UNL1        0.0785
      9 C         -25.1890    0.7730   32.0280 C.3     1  UNL1        0.0192
     10 C         -25.3360    0.6840   33.5440 C.3     1  UNL1        0.0202
     11 C         -24.8290   -0.7150   33.9050 C.3     1  UNL1        0.0887
     12 N         -24.7580   -1.4810   32.6460 N.3     1  UNL1       -0.2191
     13 C         -25.6880    1.6140   26.4610 C.3     1  UNL1        0.0936
     14 C         -26.2500    2.9200   26.3950 C.2     1  UNL1        0.0589
     15 C         -25.6420    4.0930   27.1230 C.2     1  UNL1        0.2628
     16 N         -25.6140    5.2520   26.4490 N.am    1  UNL1       -0.2000
     17 C         -25.0260    6.4790   26.9630 C.3     1  UNL1        0.1388
     18 O         -25.1430    3.9660   28.2430 O.2     1  UNL1       -0.2686
     19 C         -27.4380    3.0910   25.6450 C.2     1  UNL1        0.1025
     20 N         -28.0750    2.0890   25.0030 N.2     1  UNL1       -0.2118
     21 C         -27.5430    0.8490   25.0790 C.2     1  UNL1        0.2344
     22 O         -28.1930   -0.2080   24.4770 O.2     1  UNL1       -0.4585
     23 C         -29.4600    0.0050   23.8660 C.3     1  UNL1        0.2423
     24 C         -30.0650   -1.3770   23.5730 C.3     1  UNL1        0.2292
     25 O         -30.7290   -1.8780   24.7210 O.3     1  UNL1       -0.2162
     26 C         -26.3540    0.5760   25.7770 C.3     1  UNL1        0.2440
     27 F         -25.8600   -0.6810   25.7950 F       1  UNL1       -0.2265
     28 C         -25.6821   -0.1618   29.1580 C.3     1  UNL1        0.1090
     29 C         -28.1302   -0.4399   28.9813 C.2     1  UNL1        0.3666
     30 C         -22.5032    1.8445   24.9888 C.2     1  UNL1       -0.0217
     31 C         -24.1184    1.3323   27.9069 C.2     1  UNL1        0.0574
     32 C         -23.8470    1.6191   25.2603 C.2     1  UNL1       -0.0068
     33 N         -25.1311    1.2134   28.8666 N.pl3   1  UNL1       -0.2390
     34 O         -28.6113    0.7043   29.0176 O.co2   1  UNL1       -0.2456
     35 C         -24.4169    1.4978   26.5460 C.2     1  UNL1       -0.0008
     36 C         -26.8286   -0.6778   28.2557 C.3     1  UNL1        0.1359
     37 C         -22.3737    0.4425   29.5138 C.3     1  UNL1        0.0320
     38 C         -22.7640    1.1773   28.2858 C.2     1  UNL1       -0.0112
     39 C         -21.5654    1.7895   26.0426 C.3     1  UNL1        0.0517
     40 O         -28.8418   -1.6818   29.1954 O.co2   1  UNL1       -0.2456
     41 C         -21.7214    1.5464   27.4110 C.2     1  UNL1       -0.0244
@<TRIPOS>BOND
     1     1    28    1
     2     2     7    1
     3     2     1    1
     4     3     2    2
     5     4     3    1
     6     4     5    2
     7     5     6    1
     8     6     7    2
     9     8     1    1
    10     8     9    1
    11     8    12    1
    12     9    10    1
    13    10    11    1
    14    12    11    1
    15    13    35    1
    16    14    13    1
    17    14    15    1
    18    15    18    2
    19    16    17    1
    20    16    15    1
    21    19    14    2
    22    20    21    2
    23    20    19    1
    24    21    26    1
    25    22    21    1
    26    23    22    1
    27    24    23    1
    28    24    25    1
    29    26    27    1
    30    26    13    1
    31    28    36    1
    32    29    34   ar
    33    29    40   ar
    34    30    32    2
    35    30    39    1
    36    31    38    1
    37    31    33    1
    38    32    35    1
    39    33    28    1
    40    35    31    2
    41    36    29    1
    42    38    37    1
    43    39    41    1
    44    41    38    2
