@<TRIPOS>MOLECULE
outputs/IAG933/test6/raw/output_5569_IAG933_linker_design_.xyz
 47 51 0 0 0
SMALL
GASTEIGER

@<TRIPOS>ATOM
      1 C         -24.8550   -1.0120   30.1430 C.3     1  UNL1        0.0424
      2 C         -24.9730   -2.5050   29.7880 C.2     1  UNL1       -0.0208
      3 C         -23.9060   -3.1730   29.1460 C.2     1  UNL1       -0.0042
      4 C         -23.9890   -4.5490   28.8530 C.2     1  UNL1       -0.0003
      5 C         -25.1370   -5.2800   29.2050 C.2     1  UNL1       -0.0000
      6 C         -26.2320   -4.6110   29.7840 C.2     1  UNL1       -0.0003
      7 C         -26.1550   -3.2320   30.0650 C.2     1  UNL1       -0.0042
      8 C         -25.3870   -0.6790   31.5710 C.3     1  UNL1        0.0771
      9 C         -25.1890    0.7730   32.0280 C.3     1  UNL1        0.0192
     10 C         -25.3360    0.6840   33.5440 C.3     1  UNL1        0.0202
     11 C         -24.8290   -0.7150   33.9050 C.3     1  UNL1        0.0887
     12 N         -24.7580   -1.4810   32.6460 N.3     1  UNL1       -0.2191
     13 C         -25.6880    1.6140   26.4610 C.2     1  UNL1        0.0379
     14 C         -26.2500    2.9200   26.3950 C.2     1  UNL1        0.0765
     15 C         -25.6420    4.0930   27.1230 C.2     1  UNL1        0.2664
     16 N         -25.6140    5.2520   26.4490 N.am    1  UNL1       -0.1997
     17 C         -25.0260    6.4790   26.9630 C.3     1  UNL1        0.1388
     18 O         -25.1430    3.9660   28.2430 O.2     1  UNL1       -0.2683
     19 C         -27.4380    3.0910   25.6450 C.2     1  UNL1        0.1067
     20 N         -28.0750    2.0890   25.0030 N.2     1  UNL1       -0.2081
     21 C         -27.5430    0.8490   25.0790 C.2     1  UNL1        0.2533
     22 O         -28.1930   -0.2080   24.4770 O.2     1  UNL1       -0.4558
     23 C         -29.4600    0.0050   23.8660 C.3     1  UNL1        0.2426
     24 C         -30.0650   -1.3770   23.5730 C.3     1  UNL1        0.2292
     25 O         -30.7290   -1.8780   24.7210 O.3     1  UNL1       -0.2162
     26 C         -26.3540    0.5760   25.7770 C.2     1  UNL1        0.1930
     27 F         -25.8600   -0.6810   25.7950 F       1  UNL1       -0.1992
     28 C         -24.0844    0.6227   28.3024 C.2     1  UNL1        0.0129
     29 O         -22.3972   -0.3774   29.6855 O.2     1  UNL1       -0.2913
     30 C         -27.3011    1.6768   29.4405 C.3     1  UNL1        0.0029
     31 C         -29.6708    2.2604   30.2729 C.3     1  UNL1        0.1846
     32 C         -30.9712    4.7101   30.1203 C.3     1  UNL1        0.1848
     33 C         -29.1358    0.2405   29.1049 C.3     1  UNL1        0.0026
     34 O         -30.5402    6.0659   30.0903 O.3     1  UNL1       -0.2203
     35 C         -21.8970    1.9090   26.9375 C.2     1  UNL1       -0.0180
     36 C         -23.1829    1.9477   26.3762 C.2     1  UNL1       -0.0043
     37 C         -24.3484    1.3748   27.0348 C.2     1  UNL1        0.0010
     38 O         -28.7727    4.2077   29.2192 O.3     1  UNL1       -0.2177
     39 C         -25.3415   -0.0797   28.9661 C.3     1  UNL1        0.0305
     40 C         -21.6270    1.1903   28.1396 C.3     1  UNL1        0.0948
     41 C         -29.9297    3.6864   29.7284 C.3     1  UNL1        0.2121
     42 C         -27.8666   -0.4489   28.6292 C.3     1  UNL1        0.0004
     43 C         -22.6992    0.4094   28.7612 C.2     1  UNL1        0.1735
     44 C         -28.7117    1.5132   29.5813 C.3     1  UNL1        0.0331
     45 C         -26.7807    0.5530   28.6112 C.3     1  UNL1        0.0046
     46 C         -31.6757    4.4625   31.4851 C.3     1  UNL1        0.0383
     47 O         -30.2165    1.7403   31.3627 O.3     1  UNL1       -0.2203
@<TRIPOS>BOND
     1     1    39    1
     2     2     7    1
     3     2     1    1
     4     3     2    2
     5     4     3    1
     6     4     5    2
     7     5     6    1
     8     6     7    2
     9     8     1    1
    10     8     9    1
    11     8    12    1
    12     9    10    1
    13    10    11    1
    14    12    11    1
    15    13    37    1
    16    14    13    1
    17    14    15    1
    18    15    18    2
    19    16    17    1
    20    16    15    1
    21    19    14    2
    22    20    21    2
    23    20    19    1
    24    21    26    1
    25    22    21    1
    26    23    22    1
    27    24    23    1
    28    24    25    1
    29    26    27    1
    30    26    13    2
    31    28    43    1
    32    30    44    1
    33    31    47    1
    34    32    46    1
    35    33    44    1
    36    34    32    1
    37    35    40    1
    38    36    35    2
    39    36    37    1
    40    37    28    2
    41    39    28    1
    42    40    43    1
    43    41    38    1
    44    41    32    1
    45    41    31    1
    46    42    33    1
    47    43    29    2
    48    44    31    1
    49    45    42    1
    50    45    39    1
    51    45    30    1
