@<TRIPOS>MOLECULE
No_557-gen_results/8p0m/2024-11-27-11-27-31/
 18 20 0 0 0
SMALL
GASTEIGER

@<TRIPOS>ATOM
      1 C         -28.0162   -0.8135   28.8779 C.ar    1  UNL1        0.0001
      2 C         -28.4690   -0.7850   29.8287 C.ar    1  UNL1        0.0013
      3 C         -28.1816    0.4277   28.1134 C.ar    1  UNL1        0.0012
      4 C         -27.4498    0.6435   26.8500 C.ar    1  UNL1        0.0000
      5 C         -27.8596    1.4573   25.9076 C.ar    1  UNL1        0.0000
      6 C         -29.4263    0.1097   30.4178 C.ar    1  UNL1        0.0145
      7 C         -29.6233    1.2198   29.7351 C.ar    1  UNL1        0.0478
      8 C         -28.9609    1.4529   28.5513 C.ar    1  UNL1        0.0145
      9 C         -27.1733    1.5743   24.7028 C.ar    1  UNL1        0.0000
     10 C         -26.0892    0.7468   24.4126 C.ar    1  UNL1        0.0000
     11 C         -25.6364   -0.1191   25.3972 C.ar    1  UNL1        0.0000
     12 C         -26.2807   -0.2063   26.5817 C.ar    1  UNL1        0.0000
     13 N         -30.4955    2.2465   30.2332 N.pl3   1  UNL1       -0.3075
     14 C         -30.7128    2.4922   31.3963 C.3     1  UNL1        0.0908
     15 C         -31.6869    3.5651   31.6863 C.3     1  UNL1        0.0215
     16 C         -31.1418    3.0089   29.1836 C.3     1  UNL1        0.0908
     17 C         -32.1108    3.9379   29.5181 C.3     1  UNL1        0.0215
     18 C         -32.3282    4.2721   30.8070 C.3     1  UNL1        0.0035
@<TRIPOS>BOND
     1     3     4    1
     2     7    13    1
     3    13    14    1
     4    13    16    1
     5    15    18    1
     6    17    18    1
     7    14    15    1
     8    17    16    1
     9     4     5   ar
    10     5     9   ar
    11     9    10   ar
    12    10    11   ar
    13    11    12   ar
    14    12     4   ar
    15     1     2   ar
    16     2     6   ar
    17     6     7   ar
    18     7     8   ar
    19     8     3   ar
    20     3     1   ar
