@<TRIPOS>MOLECULE
outputs/IAG933/test6/raw/output_5572_IAG933_linker_design_.xyz
 49 55 0 0 0
SMALL
GASTEIGER

@<TRIPOS>ATOM
      1 C         -24.8550   -1.0120   30.1430 C.3     1  UNL1        0.0618
      2 C         -24.9730   -2.5050   29.7880 C.2     1  UNL1       -0.0170
      3 C         -23.9060   -3.1730   29.1460 C.2     1  UNL1       -0.0039
      4 C         -23.9890   -4.5490   28.8530 C.2     1  UNL1       -0.0003
      5 C         -25.1370   -5.2800   29.2050 C.2     1  UNL1       -0.0000
      6 C         -26.2320   -4.6110   29.7840 C.2     1  UNL1       -0.0003
      7 C         -26.1550   -3.2320   30.0650 C.2     1  UNL1       -0.0039
      8 C         -25.3870   -0.6790   31.5710 C.3     1  UNL1        0.0809
      9 C         -25.1890    0.7730   32.0280 C.3     1  UNL1        0.0195
     10 C         -25.3360    0.6840   33.5440 C.3     1  UNL1        0.0203
     11 C         -24.8290   -0.7150   33.9050 C.3     1  UNL1        0.0887
     12 N         -24.7580   -1.4810   32.6460 N.3     1  UNL1       -0.2188
     13 C         -25.6880    1.6140   26.4610 C.3     1  UNL1        0.1579
     14 C         -26.2500    2.9200   26.3950 C.2     1  UNL1        0.0757
     15 C         -25.6420    4.0930   27.1230 C.2     1  UNL1        0.2642
     16 N         -25.6140    5.2520   26.4490 N.am    1  UNL1       -0.1999
     17 C         -25.0260    6.4790   26.9630 C.3     1  UNL1        0.1388
     18 O         -25.1430    3.9660   28.2430 O.2     1  UNL1       -0.2686
     19 C         -27.4380    3.0910   25.6450 C.2     1  UNL1        0.1040
     20 N         -28.0750    2.0890   25.0030 N.2     1  UNL1       -0.2117
     21 C         -27.5430    0.8490   25.0790 C.2     1  UNL1        0.2361
     22 O         -28.1930   -0.2080   24.4770 O.2     1  UNL1       -0.4585
     23 C         -29.4600    0.0050   23.8660 C.3     1  UNL1        0.2423
     24 C         -30.0650   -1.3770   23.5730 C.3     1  UNL1        0.2292
     25 O         -30.7290   -1.8780   24.7210 O.3     1  UNL1       -0.2162
     26 C         -26.3540    0.5760   25.7770 C.3     1  UNL1        0.2607
     27 F         -25.8600   -0.6810   25.7950 F       1  UNL1       -0.2248
     28 C         -23.3288    0.4841   28.5855 C.ar    1  UNL1        0.0525
     29 C         -21.2921    1.4230   27.6238 C.2     1  UNL1        0.1815
     30 C         -32.9510    0.0782   27.4192 C.3     1  UNL1        0.0322
     31 O         -22.4337    1.9134   26.8218 O.3     1  UNL1       -0.4347
     32 C         -30.9851    2.9730   28.0254 C.3     1  UNL1        0.0024
     33 C         -30.5110    3.3593   29.3489 C.3     1  UNL1        0.0002
     34 C         -23.5818    1.2664   27.5116 C.ar    1  UNL1        0.2111
     35 C         -26.7831    1.0902   29.2124 C.3     1  UNL1        0.0437
     36 C         -31.1687    1.5372   27.7317 C.3     1  UNL1        0.0276
     37 O         -30.6948   -0.6037   27.2101 O.3     1  UNL1       -0.3560
     38 N         -24.9234    1.3375   27.4608 N.ar    1  UNL1       -0.2974
     39 C         -32.6144    1.2730   28.1960 C.3     1  UNL1        0.0050
     40 C         -29.1843    1.2996   28.8851 C.3     1  UNL1        0.0279
     41 C         -27.8807    1.0228   28.1598 C.3     1  UNL1        0.0086
     42 C         -30.3386    0.3057   28.4057 C.3     1  UNL1        0.1231
     43 C         -29.2089    2.6667   29.5998 C.3     1  UNL1        0.0024
     44 C         -24.4848    0.0049   29.1797 C.ar    1  UNL1       -0.0008
     45 C         -21.8477    0.6209   28.8502 C.2     1  UNL1        0.0450
     46 C         -29.5130   -1.0623   29.1974 C.3     1  UNL1        0.2089
     47 C         -32.0232   -1.1070   27.5170 C.3     1  UNL1        0.1421
     48 O         -29.4560   -0.8541   30.5630 O.3     1  UNL1       -0.2178
     49 C         -25.4643    0.7414   28.5894 C.ar    1  UNL1        0.0366
@<TRIPOS>BOND
     1     1    44    1
     2     2     7    1
     3     2     1    1
     4     3     2    2
     5     4     3    1
     6     4     5    2
     7     5     6    1
     8     6     7    2
     9     8     1    1
    10     8     9    1
    11     8    12    1
    12     9    10    1
    13    10    11    1
    14    12    11    1
    15    13    38    1
    16    14    13    1
    17    14    15    1
    18    15    18    2
    19    16    17    1
    20    16    15    1
    21    19    14    2
    22    20    21    2
    23    20    19    1
    24    21    26    1
    25    22    21    1
    26    23    22    1
    27    24    23    1
    28    24    25    1
    29    26    27    1
    30    26    13    1
    31    28    45    1
    32    28    44   ar
    33    29    45    2
    34    30    47    1
    35    30    39    1
    36    31    34    1
    37    31    29    1
    38    32    33    1
    39    33    43    1
    40    34    28   ar
    41    36    32    1
    42    36    39    1
    43    36    42    1
    44    37    47    1
    45    37    42    1
    46    38    34   ar
    47    38    49   ar
    48    40    41    1
    49    40    43    1
    50    41    35    1
    51    42    40    1
    52    42    46    1
    53    46    48    1
    54    49    44   ar
    55    49    35    1
