@<TRIPOS>MOLECULE
outputs/IAG933/test6/raw/output_5575_IAG933_linker_design_.xyz
 68 76 0 0 0
SMALL
GASTEIGER

@<TRIPOS>ATOM
      1 C         -24.8550   -1.0120   30.1430 C.3     1  UNL1        0.0437
      2 C         -24.9730   -2.5050   29.7880 C.2     1  UNL1       -0.0208
      3 C         -23.9060   -3.1730   29.1460 C.2     1  UNL1       -0.0042
      4 C         -23.9890   -4.5490   28.8530 C.2     1  UNL1       -0.0003
      5 C         -25.1370   -5.2800   29.2050 C.2     1  UNL1       -0.0000
      6 C         -26.2320   -4.6110   29.7840 C.2     1  UNL1       -0.0003
      7 C         -26.1550   -3.2320   30.0650 C.2     1  UNL1       -0.0042
      8 C         -25.3870   -0.6790   31.5710 C.3     1  UNL1        0.0775
      9 C         -25.1890    0.7730   32.0280 C.3     1  UNL1        0.0228
     10 C         -25.3360    0.6840   33.5440 C.3     1  UNL1        0.0206
     11 C         -24.8290   -0.7150   33.9050 C.3     1  UNL1        0.0887
     12 N         -24.7580   -1.4810   32.6460 N.3     1  UNL1       -0.2191
     13 C         -25.6880    1.6140   26.4610 C.2     1  UNL1        0.0406
     14 C         -26.2500    2.9200   26.3950 C.2     1  UNL1        0.0766
     15 C         -25.6420    4.0930   27.1230 C.2     1  UNL1        0.2664
     16 N         -25.6140    5.2520   26.4490 N.am    1  UNL1       -0.1990
     17 C         -25.0260    6.4790   26.9630 C.3     1  UNL1        0.1448
     18 O         -25.1430    3.9660   28.2430 O.2     1  UNL1       -0.2683
     19 C         -27.4380    3.0910   25.6450 C.2     1  UNL1        0.1067
     20 N         -28.0750    2.0890   25.0030 N.2     1  UNL1       -0.2081
     21 C         -27.5430    0.8490   25.0790 C.2     1  UNL1        0.2533
     22 O         -28.1930   -0.2080   24.4770 O.2     1  UNL1       -0.4558
     23 C         -29.4600    0.0050   23.8660 C.3     1  UNL1        0.2426
     24 C         -30.0650   -1.3770   23.5730 C.3     1  UNL1        0.2292
     25 O         -30.7290   -1.8780   24.7210 O.3     1  UNL1       -0.2162
     26 C         -26.3540    0.5760   25.7770 C.2     1  UNL1        0.1931
     27 F         -25.8600   -0.6810   25.7950 F       1  UNL1       -0.1992
     28 C         -28.1853    7.7041   25.8498 C.3     1  UNL1        0.0025
     29 C         -32.3346    8.6497   24.6116 C.3     1  UNL1        0.0000
     30 C         -25.6622    1.8347   31.0468 C.3     1  UNL1        0.0376
     31 C         -30.3114    4.1238   29.9870 C.3     1  UNL1        0.0508
     32 C         -26.4608    7.8958   29.6969 C.3     1  UNL1        0.1194
     33 C         -32.4864    8.3450   26.7148 C.3     1  UNL1        0.0051
     34 C         -24.5569    4.2785   32.0755 C.2     1  UNL1        0.0087
     35 O         -25.9784    8.1597   28.3961 O.3     1  UNL1       -0.3568
     36 O         -27.5651    3.4821   30.5641 O.3     1  UNL1       -0.3554
     37 C         -26.3382    5.9923   31.5384 C.3     1  UNL1        0.0864
     38 O         -31.0586    7.3738   29.8623 O.3     1  UNL1       -0.0323
     39 O         -31.7863    4.9867   28.2395 O.3     1  UNL1       -0.3151
     40 C         -24.1819    7.8596   30.8654 C.3     1  UNL1        0.2074
     41 C         -32.1384    7.2608   24.8710 C.3     1  UNL1        0.0000
     42 C         -32.3052    9.0070   25.5452 C.3     1  UNL1        0.0002
     43 C         -26.9711    8.4873   26.3125 C.3     1  UNL1        0.0290
     44 C         -25.7528    3.2771   31.9124 C.3     1  UNL1        0.0570
     45 O         -23.9550    6.5903   31.5236 O.2     1  UNL1       -0.4799
     46 C         -22.4866    1.1106   27.8395 C.2     1  UNL1        0.0152
     47 C         -26.7828    6.4889   30.2041 C.3     1  UNL1        0.0396
     48 C         -25.5765    8.5400   30.7607 C.3     1  UNL1        0.0768
     49 C         -29.4506    3.0987   29.8802 C.3     1  UNL1        0.0495
     50 C         -27.5928    9.7101   27.0264 C.3     1  UNL1        0.0025
     51 C         -24.9069    2.2254   29.7120 C.2     1  UNL1        0.0149
     52 C         -31.8898    6.3959   28.1902 C.3     1  UNL1        0.2728
     53 C         -31.5137    7.4988   27.4255 C.3     1  UNL1        0.0596
     54 C         -32.1959    2.0920   28.1759 C.3     1  UNL1        0.0916
     55 C         -26.8955    4.2645   31.6325 C.3     1  UNL1        0.1266
     56 C         -29.1378    7.9398   26.8652 C.3     1  UNL1        0.0002
     57 C         -28.2896    2.7700   30.3413 C.3     1  UNL1        0.1435
     58 C         -23.7539    1.5205   28.7473 C.1     1  UNL1       -0.1098
     59 C         -30.9308    6.4237   25.3734 C.3     1  UNL1        0.0002
     60 C         -24.8359    5.8062   31.6795 C.2     1  UNL1        0.1139
     61 O         -32.1156    6.8711   29.4013 O.3     1  UNL1       -0.1608
     62 C         -21.0758    1.4635   28.3002 C.3     1  UNL1        0.0397
     63 C         -26.1916    7.4248   27.2144 C.3     1  UNL1        0.1366
     64 N         -31.0057    2.8400   28.4272 N.3     1  UNL1       -0.2493
     65 C         -29.1008    9.4332   27.0187 C.3     1  UNL1        0.0001
     66 C         -30.4394    7.1658   26.4718 C.3     1  UNL1        0.0050
     67 C         -29.8331    2.3253   28.7295 C.3     1  UNL1        0.0769
     68 C         -31.0763    4.0295   28.9169 C.3     1  UNL1        0.1790
@<TRIPOS>BOND
     1     2     7    1
     2     2     1    1
     3     3     2    2
     4     4     3    1
     5     4     5    2
     6     5     6    1
     7     6     7    2
     8     8     1    1
     9     8     9    1
    10     8    12    1
    11     9    30    1
    12     9    10    1
    13    10    11    1
    14    12    11    1
    15    14    13    1
    16    14    15    1
    17    15    18    2
    18    16    17    1
    19    16    15    1
    20    19    14    2
    21    20    21    2
    22    20    19    1
    23    21    26    1
    24    22    21    1
    25    23    22    1
    26    24    23    1
    27    24    25    1
    28    26    27    1
    29    26    13    2
    30    29    41    1
    31    29    42    1
    32    30    51    1
    33    32    47    1
    34    32    48    1
    35    35    32    1
    36    37    47    1
    37    37    55    1
    38    37    60    1
    39    39    68    1
    40    40    45    1
    41    41    59    1
    42    42    33    1
    43    43    28    1
    44    43    50    1
    45    43    63    1
    46    44    30    1
    47    44    34    1
    48    45    60    1
    49    46    62    1
    50    46    58    2
    51    48    40    1
    52    49    67    1
    53    49    31    1
    54    49    57    1
    55    52    39    1
    56    52    61    1
    57    53    33    1
    58    53    52    1
    59    54    64    1
    60    55    36    1
    61    55    44    1
    62    56    28    1
    63    56    65    1
    64    57    36    1
    65    58    51    2
    66    60    34    2
    67    61    38    1
    68    63    17    1
    69    63    35    1
    70    64    67    1
    71    64    68    1
    72    65    50    1
    73    66    59    1
    74    66    56    1
    75    66    53    1
    76    68    31    1
