@<TRIPOS>MOLECULE
No_558-gen_results/8p0m/2024-11-27-11-27-31/
 25 27 0 0 0
SMALL
GASTEIGER

@<TRIPOS>ATOM
      1 C         -28.0162   -0.8135   28.8779 C.ar    1  UNL1       -0.0039
      2 C         -28.4690   -0.7850   29.8287 C.ar    1  UNL1       -0.0003
      3 C         -28.1960    0.3478   28.0550 C.ar    1  UNL1       -0.0167
      4 C         -29.0191    1.3501   28.3782 C.ar    1  UNL1       -0.0039
      5 C         -29.6249    1.2683   29.6012 C.ar    1  UNL1       -0.0003
      6 C         -29.3821    0.1816   30.4004 C.ar    1  UNL1       -0.0000
      7 C         -27.4497    0.3750   26.7070 C.3     1  UNL1        0.0644
      8 C         -27.8820    0.6874   25.6698 C.ar    1  UNL1       -0.0167
      9 C         -25.9804    0.0706   26.7955 C.3     1  UNL1        0.0994
     10 C         -25.0929    1.0432   27.3637 C.2     1  UNL1       -0.0277
     11 C         -23.9666    0.6917   28.0492 C.2     1  UNL1       -0.0074
     12 C         -23.8837   -0.4676   28.7855 C.2     1  UNL1       -0.0037
     13 C         -24.7464   -1.5191   28.4098 C.2     1  UNL1       -0.0074
     14 N         -25.4167   -0.8937   26.0870 N.3     1  UNL1       -0.2100
     15 C         -25.1676   -1.8779   27.1543 C.3     1  UNL1        0.1150
     16 C         -25.2734    2.4993   27.0468 C.3     1  UNL1        0.0280
     17 C         -27.4815    1.7616   24.8684 C.ar    1  UNL1       -0.0039
     18 C         -29.0495   -0.0427   25.1317 C.ar    1  UNL1       -0.0039
     19 C         -29.6041    0.1514   23.9128 C.ar    1  UNL1       -0.0003
     20 C         -28.0731    2.0166   23.5966 C.ar    1  UNL1       -0.0003
     21 C         -29.1269    1.2736   23.2470 C.ar    1  UNL1       -0.0000
     22 C         -25.4913    3.3451   28.2754 C.3     1  UNL1        0.0301
     23 C         -26.4265    4.2045   28.1832 C.2     1  UNL1       -0.0304
     24 C         -26.8740    4.8205   27.1490 C.2     1  UNL1       -0.0303
     25 C         -27.9754    5.6708   27.1782 C.3     1  UNL1        0.0303
@<TRIPOS>BOND
     1     3     7    1
     2     7     8    1
     3     7     9    1
     4     9    10    1
     5    10    11    2
     6    11    12    1
     7    12    13    2
     8     9    14    1
     9    13    15    1
    10    14    15    1
    11    10    16    1
    12    16    22    1
    13    22    23    1
    14    23    24    2
    15    24    25    1
    16     1     2   ar
    17     2     6   ar
    18     6     5   ar
    19     5     4   ar
    20     4     3   ar
    21     3     1   ar
    22     8    17   ar
    23    17    20   ar
    24    20    21   ar
    25    21    19   ar
    26    19    18   ar
    27    18     8   ar
