@<TRIPOS>MOLECULE
outputs/IAG933/test6/raw/output_5580_IAG933_linker_design_.xyz
 48 52 0 0 0
SMALL
GASTEIGER

@<TRIPOS>ATOM
      1 C         -24.8550   -1.0120   30.1430 C.3     1  UNL1        0.1140
      2 C         -24.9730   -2.5050   29.7880 C.2     1  UNL1       -0.0029
      3 C         -23.9060   -3.1730   29.1460 C.2     1  UNL1       -0.0026
      4 C         -23.9890   -4.5490   28.8530 C.2     1  UNL1       -0.0003
      5 C         -25.1370   -5.2800   29.2050 C.2     1  UNL1       -0.0000
      6 C         -26.2320   -4.6110   29.7840 C.2     1  UNL1       -0.0003
      7 C         -26.1550   -3.2320   30.0650 C.2     1  UNL1       -0.0026
      8 C         -25.3870   -0.6790   31.5710 C.3     1  UNL1        0.0951
      9 C         -25.1890    0.7730   32.0280 C.3     1  UNL1        0.0209
     10 C         -25.3360    0.6840   33.5440 C.3     1  UNL1        0.0203
     11 C         -24.8290   -0.7150   33.9050 C.3     1  UNL1        0.0888
     12 N         -24.7580   -1.4810   32.6460 N.3     1  UNL1       -0.2174
     13 C         -25.6880    1.6140   26.4610 C.3     1  UNL1        0.0761
     14 C         -26.2500    2.9200   26.3950 C.2     1  UNL1        0.0552
     15 C         -25.6420    4.0930   27.1230 C.2     1  UNL1        0.2625
     16 N         -25.6140    5.2520   26.4490 N.am    1  UNL1       -0.2000
     17 C         -25.0260    6.4790   26.9630 C.3     1  UNL1        0.1388
     18 O         -25.1430    3.9660   28.2430 O.2     1  UNL1       -0.2687
     19 C         -27.4380    3.0910   25.6450 C.2     1  UNL1        0.1021
     20 N         -28.0750    2.0890   25.0030 N.2     1  UNL1       -0.2119
     21 C         -27.5430    0.8490   25.0790 C.2     1  UNL1        0.2341
     22 O         -28.1930   -0.2080   24.4770 O.2     1  UNL1       -0.4585
     23 C         -29.4600    0.0050   23.8660 C.3     1  UNL1        0.2423
     24 C         -30.0650   -1.3770   23.5730 C.3     1  UNL1        0.2292
     25 O         -30.7290   -1.8780   24.7210 O.3     1  UNL1       -0.2162
     26 C         -26.3540    0.5760   25.7770 C.3     1  UNL1        0.2404
     27 F         -25.8600   -0.6810   25.7950 F       1  UNL1       -0.2269
     28 C         -21.2579    1.3856   27.8425 C.2     1  UNL1        0.2115
     29 C         -31.9022   -3.9802   29.6887 C.3     1  UNL1        0.2525
     30 C         -24.6800    1.2089   27.4694 C.3     1  UNL1        0.0573
     31 F         -23.1827    2.4177   25.1403 F       1  UNL1       -0.1631
     32 C         -26.8700    0.4666   29.0765 C.2     1  UNL1        0.2492
     33 O         -31.8791   -2.5334   29.3698 O.2     1  UNL1       -0.4717
     34 C         -24.8126    0.9286   28.7753 C.3     1  UNL1        0.0990
     35 N         -25.6874   -0.1776   29.1563 N.am    1  UNL1       -0.2722
     36 C         -28.4384   -1.2144   30.1896 C.2     1  UNL1        0.0032
     37 C         -30.5190   -0.7976   28.3504 C.2     1  UNL1        0.0367
     38 C         -29.2645   -0.1310   28.2108 C.2     1  UNL1        0.0076
     39 C         -23.4301    1.3687   27.4035 C.2     1  UNL1        0.0738
     40 O         -21.3748    2.0120   26.5956 O.2     1  UNL1       -0.4238
     41 C         -22.6967    2.0084   26.3222 C.2     1  UNL1        0.2861
     42 C         -30.0097   -2.5258   31.7331 C.3     1  UNL1        0.0342
     43 C         -22.4303    0.9553   28.2667 C.2     1  UNL1        0.1789
     44 O         -27.0324    1.6863   29.1625 O.2     1  UNL1       -0.2699
     45 C         -28.2532   -0.3282   29.1458 C.2     1  UNL1        0.0535
     46 C         -29.6712   -1.8340   30.3496 C.2     1  UNL1        0.0123
     47 C         -30.6910   -1.7526   29.3590 C.2     1  UNL1        0.1347
     48 F         -22.4043    0.1272   29.3619 F       1  UNL1       -0.2010
@<TRIPOS>BOND
     1     1    35    1
     2     2     7    1
     3     2     1    1
     4     3     2    2
     5     4     3    1
     6     4     5    2
     7     5     6    1
     8     6     7    2
     9     8     1    1
    10     8     9    1
    11     8    12    1
    12     9    10    1
    13    10    11    1
    14    12    11    1
    15    13    30    1
    16    14    13    1
    17    14    15    1
    18    15    18    2
    19    16    17    1
    20    16    15    1
    21    19    14    2
    22    20    21    2
    23    20    19    1
    24    21    26    1
    25    22    21    1
    26    23    22    1
    27    24    23    1
    28    24    25    1
    29    26    27    1
    30    26    13    1
    31    28    43    2
    32    30    34    1
    33    31    41    1
    34    32    45    1
    35    32    35   am
    36    32    44    2
    37    33    29    1
    38    34    35    1
    39    36    46    1
    40    37    47    1
    41    38    37    2
    42    38    45    1
    43    39    30    1
    44    39    43    1
    45    40    28    1
    46    41    40    1
    47    41    39    2
    48    43    48    1
    49    45    36    2
    50    46    42    1
    51    47    33    1
    52    47    46    2
