@<TRIPOS>MOLECULE
outputs/IAG933/test6/raw/output_5581_IAG933_linker_design_.xyz
 44 49 0 0 0
SMALL
GASTEIGER

@<TRIPOS>ATOM
      1 C         -24.8550   -1.0120   30.1430 C.3     1  UNL1        0.0818
      2 C         -24.9730   -2.5050   29.7880 C.2     1  UNL1       -0.0174
      3 C         -23.9060   -3.1730   29.1460 C.2     1  UNL1       -0.0041
      4 C         -23.9890   -4.5490   28.8530 C.2     1  UNL1       -0.0003
      5 C         -25.1370   -5.2800   29.2050 C.2     1  UNL1       -0.0000
      6 C         -26.2320   -4.6110   29.7840 C.2     1  UNL1       -0.0003
      7 C         -26.1550   -3.2320   30.0650 C.2     1  UNL1       -0.0041
      8 C         -25.3870   -0.6790   31.5710 C.3     1  UNL1        0.0824
      9 C         -25.1890    0.7730   32.0280 C.3     1  UNL1        0.0450
     10 C         -25.3360    0.6840   33.5440 C.3     1  UNL1        0.0222
     11 C         -24.8290   -0.7150   33.9050 C.3     1  UNL1        0.0888
     12 N         -24.7580   -1.4810   32.6460 N.3     1  UNL1       -0.2189
     13 C         -25.6880    1.6140   26.4610 C.3     1  UNL1        0.1427
     14 C         -26.2500    2.9200   26.3950 C.2     1  UNL1        0.0709
     15 C         -25.6420    4.0930   27.1230 C.2     1  UNL1        0.2638
     16 N         -25.6140    5.2520   26.4490 N.am    1  UNL1       -0.2000
     17 C         -25.0260    6.4790   26.9630 C.3     1  UNL1        0.1388
     18 O         -25.1430    3.9660   28.2430 O.2     1  UNL1       -0.2686
     19 C         -27.4380    3.0910   25.6450 C.2     1  UNL1        0.1035
     20 N         -28.0750    2.0890   25.0030 N.2     1  UNL1       -0.2118
     21 C         -27.5430    0.8490   25.0790 C.2     1  UNL1        0.2356
     22 O         -28.1930   -0.2080   24.4770 O.2     1  UNL1       -0.4585
     23 C         -29.4600    0.0050   23.8660 C.3     1  UNL1        0.2423
     24 C         -30.0650   -1.3770   23.5730 C.3     1  UNL1        0.2292
     25 O         -30.7290   -1.8780   24.7210 O.3     1  UNL1       -0.2162
     26 C         -26.3540    0.5760   25.7770 C.3     1  UNL1        0.2559
     27 F         -25.8600   -0.6810   25.7950 F       1  UNL1       -0.2253
     28 N         -24.3857    1.4335   26.6389 N.3     1  UNL1       -0.2060
     29 C         -24.8183    0.3712   29.4729 C.3     1  UNL1        0.1924
     30 OXT       -25.0139    3.7229   33.0170 O.co2   1  UNL1       -0.2441
     31 C         -22.1713    1.3289   27.1422 C.3     1  UNL1        0.2515
     32 O         -22.1993    1.9218   24.5945 O.3     1  UNL1       -0.1801
     33 C         -21.6745    1.9648   25.9484 C.3     1  UNL1        0.3504
     34 O         -25.6928    4.3106   30.9022 O.co2   1  UNL1       -0.2441
     35 O         -21.5034    0.8696   28.0842 O.3     1  UNL1       -0.4433
     36 O         -25.0312   -0.1064   28.0675 O.3     1  UNL1       -0.3293
     37 C         -23.5618    1.3730   27.3804 C.3     1  UNL1        0.1576
     38 C         -22.4988    0.1619   28.8500 C.2     1  UNL1        0.3470
     39 CA        -25.6364    2.0366   31.2857 C.3     1  UNL1        0.1792
     40 F         -21.0243    2.1687   26.3551 F       1  UNL1       -0.1969
     41 C         -23.8588    0.5039   28.4030 C.3     1  UNL1        0.2376
     42 N         -25.3722    1.7197   29.8325 N.3     1  UNL1       -0.1822
     43 C         -25.3626    3.3990   31.8579 C.2     1  UNL1        0.3804
     44 O         -22.2699   -0.4987   29.9644 O.2     1  UNL1       -0.2473
@<TRIPOS>BOND
     1     1     2    1
     2     1     8    1
     3     2     7    1
     4     3     2    2
     5     4     3    1
     6     4     5    2
     7     5     6    1
     8     6     7    2
     9     8     9    1
    10     8    12    1
    11     9    10    1
    12    10    11    1
    13    12    11    1
    14    13    28    1
    15    14    13    1
    16    14    15    1
    17    15    18    2
    18    16    17    1
    19    16    15    1
    20    19    14    2
    21    20    21    2
    22    20    19    1
    23    21    26    1
    24    22    21    1
    25    23    22    1
    26    24    23    1
    27    24    25    1
    28    26    27    1
    29    26    13    1
    30    29    36    1
    31    29    42    1
    32    29     1    1
    33    31    33    1
    34    31    37    1
    35    31    35    1
    36    33    32    1
    37    33    40    1
    38    34    43   ar
    39    35    38    1
    40    37    28    1
    41    37    41    1
    42    38    44    2
    43    39    43    1
    44    39     9    1
    45    41    36    1
    46    41    38    1
    47    41    29    1
    48    42    39    1
    49    43    30   ar
