@<TRIPOS>MOLECULE
outputs/IAG933/test6/raw/output_5583_IAG933_linker_design_.xyz
 42 45 0 0 0
SMALL
GASTEIGER

@<TRIPOS>ATOM
      1 C         -24.8550   -1.0120   30.1430 C.3     1  UNL1        0.1305
      2 C         -24.9730   -2.5050   29.7880 C.2     1  UNL1       -0.0013
      3 C         -23.9060   -3.1730   29.1460 C.2     1  UNL1       -0.0026
      4 C         -23.9890   -4.5490   28.8530 C.2     1  UNL1       -0.0003
      5 C         -25.1370   -5.2800   29.2050 C.2     1  UNL1       -0.0000
      6 C         -26.2320   -4.6110   29.7840 C.2     1  UNL1       -0.0003
      7 C         -26.1550   -3.2320   30.0650 C.2     1  UNL1       -0.0026
      8 C         -25.3870   -0.6790   31.5710 C.3     1  UNL1        0.0968
      9 C         -25.1890    0.7730   32.0280 C.3     1  UNL1        0.0210
     10 C         -25.3360    0.6840   33.5440 C.3     1  UNL1        0.0203
     11 C         -24.8290   -0.7150   33.9050 C.3     1  UNL1        0.0888
     12 N         -24.7580   -1.4810   32.6460 N.3     1  UNL1       -0.2174
     13 C         -25.6880    1.6140   26.4610 C.2     1  UNL1        0.0407
     14 C         -26.2500    2.9200   26.3950 C.2     1  UNL1        0.0749
     15 C         -25.6420    4.0930   27.1230 C.2     1  UNL1        0.2289
     16 N         -25.6140    5.2520   26.4490 N.2     1  UNL1       -0.2353
     17 C         -25.0260    6.4790   26.9630 C.3     1  UNL1        0.1550
     18 O         -25.1430    3.9660   28.2430 O.2     1  UNL1       -0.4150
     19 C         -27.4380    3.0910   25.6450 C.2     1  UNL1        0.1068
     20 N         -28.0750    2.0890   25.0030 N.2     1  UNL1       -0.2081
     21 C         -27.5430    0.8490   25.0790 C.2     1  UNL1        0.2533
     22 O         -28.1930   -0.2080   24.4770 O.2     1  UNL1       -0.4558
     23 C         -29.4600    0.0050   23.8660 C.3     1  UNL1        0.2426
     24 C         -30.0650   -1.3770   23.5730 C.3     1  UNL1        0.2292
     25 O         -30.7290   -1.8780   24.7210 O.3     1  UNL1       -0.2162
     26 C         -26.3540    0.5760   25.7770 C.2     1  UNL1        0.1931
     27 F         -25.8600   -0.6810   25.7950 F       1  UNL1       -0.1992
     28 C         -23.0211    2.6090   27.7014 C.2     1  UNL1        0.0205
     29 C         -25.6041    4.3034   31.9781 C.2     1  UNL1        0.3062
     30 BR        -25.4505    4.6175   33.7655 Br      1  UNL1        0.0166
     31 C         -26.7423    4.1096   30.0156 C.2     1  UNL1        0.3259
     32 C         -21.3044    1.0207   28.2203 C.2     1  UNL1        0.0014
     33 O         -24.5034    4.1303   31.5218 O.2     1  UNL1       -0.2603
     34 N         -26.8005    4.2819   31.4426 N.am    1  UNL1       -0.1273
     35 C         -23.5636    0.6106   28.9796 C.2     1  UNL1        0.0833
     36 C         -22.2267    0.2811   28.9865 C.2     1  UNL1        0.0176
     37 C         -21.7189    2.1687   27.4948 C.2     1  UNL1        0.0016
     38 O         -27.6704    4.5976   29.3759 O.2     1  UNL1       -0.2627
     39 C         -25.7191    3.5135   29.4170 C.2     1  UNL1        0.2881
     40 C         -23.8320    1.9199   28.6420 C.2     1  UNL1        0.0993
     41 N         -24.5692   -0.1907   29.1746 N.pl3   1  UNL1       -0.2320
     42 N         -24.9472    2.3386   29.5314 N.2     1  UNL1       -0.2061
@<TRIPOS>BOND
     1     1    41    1
     2     2     7    1
     3     2     1    1
     4     3     2    2
     5     4     3    1
     6     4     5    2
     7     5     6    1
     8     6     7    2
     9     8     1    1
    10     8     9    1
    11     8    12    1
    12     9    10    1
    13    10    11    1
    14    12    11    1
    15    14    13    1
    16    14    15    1
    17    15    18    1
    18    16    17    1
    19    16    15    2
    20    18    39    1
    21    19    14    2
    22    20    21    2
    23    20    19    1
    24    21    26    1
    25    22    21    1
    26    23    22    1
    27    24    23    1
    28    24    25    1
    29    26    27    1
    30    26    13    2
    31    28    40    1
    32    29    30    1
    33    31    34    1
    34    32    36    2
    35    33    29    2
    36    34    29    1
    37    35    36    1
    38    35    41    1
    39    37    28    2
    40    37    32    1
    41    38    31    2
    42    39    42    2
    43    39    31    1
    44    40    35    2
    45    40    42    1
