@<TRIPOS>MOLECULE
outputs/IAG933/test6/raw/output_5585_IAG933_linker_design_.xyz
 43 47 0 0 0
SMALL
GASTEIGER

@<TRIPOS>ATOM
      1 C         -24.8550   -1.0120   30.1430 C.3     1  UNL1        0.0780
      2 C         -24.9730   -2.5050   29.7880 C.2     1  UNL1       -0.0156
      3 C         -23.9060   -3.1730   29.1460 C.2     1  UNL1       -0.0039
      4 C         -23.9890   -4.5490   28.8530 C.2     1  UNL1       -0.0003
      5 C         -25.1370   -5.2800   29.2050 C.2     1  UNL1       -0.0000
      6 C         -26.2320   -4.6110   29.7840 C.2     1  UNL1       -0.0003
      7 C         -26.1550   -3.2320   30.0650 C.2     1  UNL1       -0.0039
      8 C         -25.3870   -0.6790   31.5710 C.3     1  UNL1        0.0824
      9 C         -25.1890    0.7730   32.0280 C.3     1  UNL1        0.0196
     10 C         -25.3360    0.6840   33.5440 C.3     1  UNL1        0.0203
     11 C         -24.8290   -0.7150   33.9050 C.3     1  UNL1        0.0887
     12 N         -24.7580   -1.4810   32.6460 N.3     1  UNL1       -0.2187
     13 C         -25.6880    1.6140   26.4610 C.3     1  UNL1        0.1319
     14 C         -26.2500    2.9200   26.3950 C.2     1  UNL1        0.0622
     15 C         -25.6420    4.0930   27.1230 C.2     1  UNL1        0.2629
     16 N         -25.6140    5.2520   26.4490 N.am    1  UNL1       -0.2000
     17 C         -25.0260    6.4790   26.9630 C.3     1  UNL1        0.1388
     18 O         -25.1430    3.9660   28.2430 O.2     1  UNL1       -0.2686
     19 C         -27.4380    3.0910   25.6450 C.2     1  UNL1        0.1026
     20 N         -28.0750    2.0890   25.0030 N.2     1  UNL1       -0.2118
     21 C         -27.5430    0.8490   25.0790 C.2     1  UNL1        0.2345
     22 O         -28.1930   -0.2080   24.4770 O.2     1  UNL1       -0.4585
     23 C         -29.4600    0.0050   23.8660 C.3     1  UNL1        0.2423
     24 C         -30.0650   -1.3770   23.5730 C.3     1  UNL1        0.2292
     25 O         -30.7290   -1.8780   24.7210 O.3     1  UNL1       -0.2162
     26 C         -26.3540    0.5760   25.7770 C.3     1  UNL1        0.2473
     27 F         -25.8600   -0.6810   25.7950 F       1  UNL1       -0.2264
     28 N         -30.8724    3.2426   30.4776 N.3     1  UNL1       -0.0957
     29 N         -26.1813   -0.0192   28.5330 N.2     1  UNL1       -0.2743
     30 C         -24.2947    1.6782   26.5073 C.2     1  UNL1        0.1832
     31 C         -27.4153   -0.5635   29.0983 C.3     1  UNL1        0.1277
     32 C         -24.8874   -0.0927   29.0592 C.2     1  UNL1        0.0589
     33 C         -29.4586    0.5868   29.4162 C.3     1  UNL1        0.1460
     34 O         -22.1545    2.3192   25.8777 O.2     1  UNL1       -0.2868
     35 O         -23.4798    2.4070   25.4789 O.2     1  UNL1       -0.2905
     36 C         -21.4701    1.0212   28.0408 C.2     1  UNL1        0.0422
     37 C         -23.5050    1.1888   27.4226 C.2     1  UNL1        0.0751
     38 O         -28.9972    1.8729   29.8165 O.3     1  UNL1       -0.3354
     39 C         -29.8894    2.9143   29.4721 C.3     1  UNL1        0.2524
     40 C         -23.6106    0.4626   28.5764 C.2     1  UNL1        0.0195
     41 C         -22.2760    0.3221   28.9785 C.2     1  UNL1        0.0046
     42 C         -22.2951    1.5437   27.0593 C.2     1  UNL1        0.1984
     43 C         -28.6280   -0.0768   28.2868 C.3     1  UNL1        0.0584
@<TRIPOS>BOND
     1     1    32    1
     2     2     7    1
     3     2     1    1
     4     3     2    2
     5     4     3    1
     6     4     5    2
     7     5     6    1
     8     6     7    2
     9     8     1    1
    10     8     9    1
    11     8    12    1
    12     9    10    1
    13    10    11    1
    14    12    11    1
    15    13    30    1
    16    14    13    1
    17    14    15    1
    18    15    18    2
    19    16    17    1
    20    16    15    1
    21    19    14    2
    22    20    21    2
    23    20    19    1
    24    21    26    1
    25    22    21    1
    26    23    22    1
    27    24    23    1
    28    24    25    1
    29    26    27    1
    30    26    13    1
    31    29    32    2
    32    29    31    1
    33    30    37    2
    34    33    38    1
    35    34    42    1
    36    35    34    1
    37    35    30    1
    38    36    41    1
    39    37    40    1
    40    39    38    1
    41    39    28    1
    42    40    41    2
    43    40    32    1
    44    42    37    1
    45    42    36    2
    46    43    31    1
    47    43    33    1
