@<TRIPOS>MOLECULE
No_559-gen_results/8p0m/2024-11-27-11-27-31/
 21 24 0 0 0
SMALL
GASTEIGER

@<TRIPOS>ATOM
      1 C         -28.0162   -0.8135   28.8779 C.ar    1  UNL1        0.0160
      2 C         -28.4690   -0.7850   29.8287 C.ar    1  UNL1        0.0014
      3 C         -26.5042   -0.7777   28.8766 C.ar    1  UNL1        0.0057
      4 C         -25.7623   -0.0022   27.9705 C.ar    1  UNL1        0.0526
      5 C         -24.3914    0.1198   28.1381 C.ar    1  UNL1       -0.0059
      6 C         -23.7115   -0.7200   29.0863 C.ar    1  UNL1        0.0868
      7 C         -24.4207   -1.5358   29.9161 C.ar    1  UNL1        0.0073
      8 C         -25.8017   -1.5837   29.8123 C.ar    1  UNL1        0.0004
      9 C         -29.9399   -0.6147   29.9523 C.ar    1  UNL1        0.0001
     10 C         -30.5535   -0.3493   28.7375 C.ar    1  UNL1        0.0015
     11 C         -29.8307   -0.1348   27.6333 C.ar    1  UNL1        0.0173
     12 C         -28.5010   -0.1617   27.6990 C.ar    1  UNL1        0.0625
     13 N         -27.4599    0.0381   26.7918 N.ar    1  UNL1       -0.2935
     14 C         -26.3645    0.4856   26.8750 C.ar    1  UNL1        0.2606
     15 C         -28.0600    0.0051   25.3261 C.3     1  UNL1        0.1335
     16 O         -25.7630    1.2714   26.1417 O.2     1  UNL1       -0.2670
     17 C         -22.2329   -0.5733   29.1722 C.2     1  UNL1        0.4127
     18 N         -21.4537   -1.2699   29.6936 N.2     1  UNL1        0.1971
     19 N         -21.6739    0.3957   28.2437 N.pl3   1  UNL1       -0.0272
     20 C         -22.3159    1.4380   27.7249 C.3     1  UNL1        0.2560
     21 C         -23.7415    1.2992   27.5541 C.3     1  UNL1        0.0821
@<TRIPOS>BOND
     1     1     3   ar
     2    12    13   ar
     3     4    14   ar
     4    13    14   ar
     5    13    15    1
     6    14    16    2
     7     6    17    1
     8    17    18    2
     9    17    19    1
    10    19    20    1
    11     5    21    1
    12    20    21    1
    13     1     2   ar
    14     2     9   ar
    15     9    10   ar
    16    10    11   ar
    17    11    12   ar
    18    12     1   ar
    19     3     4   ar
    20     4     5   ar
    21     5     6   ar
    22     6     7   ar
    23     7     8   ar
    24     8     3   ar
