@<TRIPOS>MOLECULE
outputs/IAG933/test6/raw/output_5590_IAG933_linker_design_.xyz
 43 46 0 0 0
SMALL
GASTEIGER

@<TRIPOS>ATOM
      1 C         -24.8550   -1.0120   30.1430 C.3     1  UNL1        0.0993
      2 C         -24.9730   -2.5050   29.7880 C.2     1  UNL1       -0.0063
      3 C         -23.9060   -3.1730   29.1460 C.2     1  UNL1       -0.0029
      4 C         -23.9890   -4.5490   28.8530 C.2     1  UNL1       -0.0003
      5 C         -25.1370   -5.2800   29.2050 C.2     1  UNL1       -0.0000
      6 C         -26.2320   -4.6110   29.7840 C.2     1  UNL1       -0.0003
      7 C         -26.1550   -3.2320   30.0650 C.2     1  UNL1       -0.0029
      8 C         -25.3870   -0.6790   31.5710 C.3     1  UNL1        0.0917
      9 C         -25.1890    0.7730   32.0280 C.3     1  UNL1        0.0206
     10 C         -25.3360    0.6840   33.5440 C.3     1  UNL1        0.0203
     11 C         -24.8290   -0.7150   33.9050 C.3     1  UNL1        0.0888
     12 N         -24.7580   -1.4810   32.6460 N.3     1  UNL1       -0.2178
     13 C         -25.6880    1.6140   26.4610 C.3     1  UNL1        0.1439
     14 C         -26.2500    2.9200   26.3950 C.2     1  UNL1        0.0710
     15 C         -25.6420    4.0930   27.1230 C.2     1  UNL1        0.2638
     16 N         -25.6140    5.2520   26.4490 N.am    1  UNL1       -0.2000
     17 C         -25.0260    6.4790   26.9630 C.3     1  UNL1        0.1388
     18 O         -25.1430    3.9660   28.2430 O.2     1  UNL1       -0.2686
     19 C         -27.4380    3.0910   25.6450 C.2     1  UNL1        0.1035
     20 N         -28.0750    2.0890   25.0030 N.2     1  UNL1       -0.2118
     21 C         -27.5430    0.8490   25.0790 C.2     1  UNL1        0.2356
     22 O         -28.1930   -0.2080   24.4770 O.2     1  UNL1       -0.4585
     23 C         -29.4600    0.0050   23.8660 C.3     1  UNL1        0.2423
     24 C         -30.0650   -1.3770   23.5730 C.3     1  UNL1        0.2292
     25 O         -30.7290   -1.8780   24.7210 O.3     1  UNL1       -0.2162
     26 C         -26.3540    0.5760   25.7770 C.3     1  UNL1        0.2559
     27 F         -25.8600   -0.6810   25.7950 F       1  UNL1       -0.2253
     28 C         -24.6361    0.4737   28.3360 C.3     1  UNL1        0.1344
     29 C         -29.4907    0.1804   28.0193 C.3     1  UNL1        0.0890
     30 O         -31.1393    1.1995   29.5359 O.3     1  UNL1       -0.3266
     31 C         -22.7490    1.9531   26.7263 C.3     1  UNL1        0.0001
     32 C         -22.3396    1.4458   28.0544 C.3     1  UNL1        0.0028
     33 C         -30.2038   -1.0783   28.6011 C.3     1  UNL1        0.1499
     34 C         -20.8631    1.3010   27.9684 C.3     1  UNL1        0.0001
     35 C         -31.9485    0.5298   28.6395 C.3     1  UNL1        0.2940
     36 N         -25.5157   -0.2061   29.1186 N.3     1  UNL1       -0.2309
     37 C         -23.0915    0.2268   28.5399 C.3     1  UNL1        0.0341
     38 N         -25.1301    1.3316   27.6620 N.3     1  UNL1       -0.1969
     39 C         -28.0035   -0.4010   28.3215 C.3     1  UNL1        0.1489
     40 C         -27.0226    0.2357   29.4673 C.3     1  UNL1        0.2212
     41 O         -31.6035   -0.8309   28.4604 O.3     1  UNL1       -0.3266
     42 C         -29.8437    1.3288   28.9744 C.3     1  UNL1        0.1499
     43 O         -27.7211   -0.9171   29.0843 O.3     1  UNL1       -0.3371
@<TRIPOS>BOND
     1     1    36    1
     2     2     7    1
     3     2     1    1
     4     3     2    2
     5     4     3    1
     6     4     5    2
     7     5     6    1
     8     6     7    2
     9     8     1    1
    10     8     9    1
    11     8    12    1
    12     9    10    1
    13    10    11    1
    14    12    11    1
    15    13    38    1
    16    14    13    1
    17    14    15    1
    18    15    18    2
    19    16    17    1
    20    16    15    1
    21    19    14    2
    22    20    21    2
    23    20    19    1
    24    21    26    1
    25    22    21    1
    26    23    22    1
    27    24    23    1
    28    24    25    1
    29    26    27    1
    30    26    13    1
    31    28    37    1
    32    28    36    1
    33    29    39    1
    34    29    33    1
    35    29    42    1
    36    31    32    1
    37    32    37    1
    38    34    32    1
    39    35    30    1
    40    36    40    1
    41    38    28    1
    42    39    43    1
    43    41    33    1
    44    41    35    1
    45    42    30    1
    46    43    40    1
