@<TRIPOS>MOLECULE
outputs/IAG933/test6/raw/output_5593_IAG933_linker_design_.xyz
 40 43 0 0 0
SMALL
GASTEIGER

@<TRIPOS>ATOM
      1 C         -24.8550   -1.0120   30.1430 C.3     1  UNL1        0.1214
      2 C         -24.9730   -2.5050   29.7880 C.2     1  UNL1       -0.0025
      3 C         -23.9060   -3.1730   29.1460 C.2     1  UNL1       -0.0026
      4 C         -23.9890   -4.5490   28.8530 C.2     1  UNL1       -0.0003
      5 C         -25.1370   -5.2800   29.2050 C.2     1  UNL1       -0.0000
      6 C         -26.2320   -4.6110   29.7840 C.2     1  UNL1       -0.0003
      7 C         -26.1550   -3.2320   30.0650 C.2     1  UNL1       -0.0026
      8 C         -25.3870   -0.6790   31.5710 C.3     1  UNL1        0.0956
      9 C         -25.1890    0.7730   32.0280 C.3     1  UNL1        0.0209
     10 C         -25.3360    0.6840   33.5440 C.3     1  UNL1        0.0203
     11 C         -24.8290   -0.7150   33.9050 C.3     1  UNL1        0.0888
     12 N         -24.7580   -1.4810   32.6460 N.3     1  UNL1       -0.2174
     13 C         -25.6880    1.6140   26.4610 C.2     1  UNL1        0.0446
     14 C         -26.2500    2.9200   26.3950 C.2     1  UNL1        0.0768
     15 C         -25.6420    4.0930   27.1230 C.2     1  UNL1        0.2664
     16 N         -25.6140    5.2520   26.4490 N.am    1  UNL1       -0.1997
     17 C         -25.0260    6.4790   26.9630 C.3     1  UNL1        0.1388
     18 O         -25.1430    3.9660   28.2430 O.2     1  UNL1       -0.2683
     19 C         -27.4380    3.0910   25.6450 C.2     1  UNL1        0.1067
     20 N         -28.0750    2.0890   25.0030 N.2     1  UNL1       -0.2081
     21 C         -27.5430    0.8490   25.0790 C.2     1  UNL1        0.2533
     22 O         -28.1930   -0.2080   24.4770 O.2     1  UNL1       -0.4558
     23 C         -29.4600    0.0050   23.8660 C.3     1  UNL1        0.2426
     24 C         -30.0650   -1.3770   23.5730 C.3     1  UNL1        0.2292
     25 O         -30.7290   -1.8780   24.7210 O.3     1  UNL1       -0.2162
     26 C         -26.3540    0.5760   25.7770 C.2     1  UNL1        0.1933
     27 F         -25.8600   -0.6810   25.7950 F       1  UNL1       -0.1992
     28 N         -25.3848   -0.0825   29.1581 N.am    1  UNL1       -0.2183
     29 C         -21.3962    1.3660   27.5585 C.2     1  UNL1        0.2895
     30 O         -27.3786   -0.5982   28.5020 O.co2   1  UNL1       -0.2220
     31 C         -24.3592    0.4674   28.2837 C.2     1  UNL1        0.0629
     32 C         -23.2789    1.6794   26.2036 C.2     1  UNL1        0.2906
     33 O         -27.0961    1.2850   29.4798 O.co2   1  UNL1       -0.2220
     34 C         -26.6842    0.2019   29.0518 C.2     1  UNL1        0.4511
     35 C         -23.1348    0.2741   28.8841 C.2     1  UNL1        0.0208
     36 O         -21.9794    1.7243   26.4641 O.2     1  UNL1       -0.4029
     37 F         -20.1723    1.6438   27.7624 F       1  UNL1       -0.1628
     38 C         -24.3504    1.2324   27.0456 C.2     1  UNL1        0.0801
     39 F         -23.5506    2.1125   25.0045 F       1  UNL1       -0.1628
     40 C         -21.9189    0.6768   28.6109 C.2     1  UNL1        0.0703
@<TRIPOS>BOND
     1     1    28    1
     2     2     7    1
     3     2     1    1
     4     3     2    2
     5     4     3    1
     6     4     5    2
     7     5     6    1
     8     6     7    2
     9     8     1    1
    10     8     9    1
    11     8    12    1
    12     9    10    1
    13    10    11    1
    14    12    11    1
    15    13    38    1
    16    14    13    1
    17    14    15    1
    18    15    18    2
    19    16    17    1
    20    16    15    1
    21    19    14    2
    22    20    21    2
    23    20    19    1
    24    21    26    1
    25    22    21    1
    26    23    22    1
    27    24    23    1
    28    24    25    1
    29    26    27    1
    30    26    13    2
    31    29    37    1
    32    29    40    2
    33    30    34   ar
    34    31    35    2
    35    31    28    1
    36    32    36    1
    37    32    38    2
    38    34    28   am
    39    34    33   ar
    40    36    29    1
    41    38    31    1
    42    39    32    1
    43    40    35    1
