@<TRIPOS>MOLECULE
outputs/IAG933/test6/raw/output_5596_IAG933_linker_design_.xyz
 36 39 0 0 0
SMALL
GASTEIGER

@<TRIPOS>ATOM
      1 C         -24.8550   -1.0120   30.1430 C.3     1  UNL1        0.1798
      2 C         -24.9730   -2.5050   29.7880 C.2     1  UNL1        0.0133
      3 C         -23.9060   -3.1730   29.1460 C.2     1  UNL1       -0.0012
      4 C         -23.9890   -4.5490   28.8530 C.2     1  UNL1       -0.0002
      5 C         -25.1370   -5.2800   29.2050 C.2     1  UNL1       -0.0000
      6 C         -26.2320   -4.6110   29.7840 C.2     1  UNL1       -0.0002
      7 C         -26.1550   -3.2320   30.0650 C.2     1  UNL1       -0.0012
      8 C         -25.3870   -0.6790   31.5710 C.3     1  UNL1        0.1116
      9 C         -25.1890    0.7730   32.0280 C.3     1  UNL1        0.0225
     10 C         -25.3360    0.6840   33.5440 C.3     1  UNL1        0.0204
     11 C         -24.8290   -0.7150   33.9050 C.3     1  UNL1        0.0888
     12 N         -24.7580   -1.4810   32.6460 N.3     1  UNL1       -0.2159
     13 C         -25.6880    1.6140   26.4610 C.2     1  UNL1        0.0437
     14 C         -26.2500    2.9200   26.3950 C.2     1  UNL1        0.0767
     15 C         -25.6420    4.0930   27.1230 C.2     1  UNL1        0.2664
     16 N         -25.6140    5.2520   26.4490 N.am    1  UNL1       -0.1997
     17 C         -25.0260    6.4790   26.9630 C.3     1  UNL1        0.1388
     18 O         -25.1430    3.9660   28.2430 O.2     1  UNL1       -0.2683
     19 C         -27.4380    3.0910   25.6450 C.2     1  UNL1        0.1067
     20 N         -28.0750    2.0890   25.0030 N.2     1  UNL1       -0.2081
     21 C         -27.5430    0.8490   25.0790 C.2     1  UNL1        0.2533
     22 O         -28.1930   -0.2080   24.4770 O.2     1  UNL1       -0.4558
     23 C         -29.4600    0.0050   23.8660 C.3     1  UNL1        0.2426
     24 C         -30.0650   -1.3770   23.5730 C.3     1  UNL1        0.2292
     25 O         -30.7290   -1.8780   24.7210 O.3     1  UNL1       -0.2162
     26 C         -26.3540    0.5760   25.7770 C.2     1  UNL1        0.1932
     27 F         -25.8600   -0.6810   25.7950 F       1  UNL1       -0.1992
     28 C         -25.0281    0.1450   28.1304 C.2     1  UNL1        0.3109
     29 O         -25.9892   -0.5090   28.0612 O.2     1  UNL1       -0.2514
     30 C         -22.2268    1.6756   26.9729 C.3     1  UNL1        0.2336
     31 C         -22.7543    0.1495   28.9930 C.2     1  UNL1        0.4521
     32 N         -24.1796   -0.1748   29.1100 N.am    1  UNL1       -0.1373
     33 N         -22.0674    0.6043   27.9042 N.pl3   1  UNL1       -0.0579
     34 N         -21.9384    0.0477   29.8537 N.2     1  UNL1        0.1240
     35 C         -24.6739    1.2194   27.0294 C.2     1  UNL1        0.0714
     36 C         -23.4343    1.8369   26.3923 C.2     1  UNL1        0.0236
@<TRIPOS>BOND
     1     1     2    1
     2     2     7    1
     3     3     2    2
     4     4     3    1
     5     4     5    2
     6     5     6    1
     7     6     7    2
     8     8     1    1
     9     8     9    1
    10     8    12    1
    11     9    10    1
    12    10    11    1
    13    12    11    1
    14    13    35    1
    15    14    13    1
    16    14    15    1
    17    15    18    2
    18    16    17    1
    19    16    15    1
    20    19    14    2
    21    20    21    2
    22    20    19    1
    23    21    26    1
    24    22    21    1
    25    23    22    1
    26    24    23    1
    27    24    25    1
    28    26    27    1
    29    26    13    2
    30    28    32   am
    31    29    28    2
    32    30    33    1
    33    31    32    1
    34    31    34    2
    35    32     1    1
    36    33    31    1
    37    35    28    1
    38    36    30    1
    39    36    35    2
