@<TRIPOS>MOLECULE
outputs/IAG933/test6/raw/output_5598_IAG933_linker_design_.xyz
 42 44 0 0 0
SMALL
GASTEIGER

@<TRIPOS>ATOM
      1 C         -24.8550   -1.0120   30.1430 C.3     1  UNL1        0.1536
      2 C         -24.9730   -2.5050   29.7880 C.2     1  UNL1        0.0059
      3 C         -23.9060   -3.1730   29.1460 C.2     1  UNL1       -0.0019
      4 C         -23.9890   -4.5490   28.8530 C.2     1  UNL1       -0.0002
      5 C         -25.1370   -5.2800   29.2050 C.2     1  UNL1       -0.0000
      6 C         -26.2320   -4.6110   29.7840 C.2     1  UNL1       -0.0002
      7 C         -26.1550   -3.2320   30.0650 C.2     1  UNL1       -0.0019
      8 C         -25.3870   -0.6790   31.5710 C.3     1  UNL1        0.1041
      9 C         -25.1890    0.7730   32.0280 C.3     1  UNL1        0.0217
     10 C         -25.3360    0.6840   33.5440 C.3     1  UNL1        0.0203
     11 C         -24.8290   -0.7150   33.9050 C.3     1  UNL1        0.0888
     12 N         -24.7580   -1.4810   32.6460 N.3     1  UNL1       -0.2166
     13 C         -25.6880    1.6140   26.4610 C.3     1  UNL1        0.0729
     14 C         -26.2500    2.9200   26.3950 C.2     1  UNL1        0.0549
     15 C         -25.6420    4.0930   27.1230 C.2     1  UNL1        0.2624
     16 N         -25.6140    5.2520   26.4490 N.am    1  UNL1       -0.2000
     17 C         -25.0260    6.4790   26.9630 C.3     1  UNL1        0.1388
     18 O         -25.1430    3.9660   28.2430 O.2     1  UNL1       -0.2687
     19 C         -27.4380    3.0910   25.6450 C.2     1  UNL1        0.1021
     20 N         -28.0750    2.0890   25.0030 N.2     1  UNL1       -0.2119
     21 C         -27.5430    0.8490   25.0790 C.2     1  UNL1        0.2341
     22 O         -28.1930   -0.2080   24.4770 O.2     1  UNL1       -0.4585
     23 C         -29.4600    0.0050   23.8660 C.3     1  UNL1        0.2423
     24 C         -30.0650   -1.3770   23.5730 C.3     1  UNL1        0.2292
     25 O         -30.7290   -1.8780   24.7210 O.3     1  UNL1       -0.2162
     26 C         -26.3540    0.5760   25.7770 C.3     1  UNL1        0.2401
     27 F         -25.8600   -0.6810   25.7950 F       1  UNL1       -0.2269
     28 O         -25.7325   -0.2983   29.2357 O.3     1  UNL1       -0.3485
     29 C         -26.1107    0.9536   28.7924 C.3     1  UNL1        0.1379
     30 C         -28.4780    1.9630   29.4382 C.2     1  UNL1        0.0624
     31 C         -23.7041    0.2993   27.6087 C.3     1  UNL1        0.0222
     32 N         -30.1443    1.4046   27.7634 N.am    1  UNL1       -0.0839
     33 C         -21.7674    1.8721   27.4169 C.3     1  UNL1        0.0205
     34 O         -28.8805   -0.3016   28.5174 O.2     1  UNL1       -0.2669
     35 C         -24.8933    1.2642   27.7548 C.3     1  UNL1        0.0403
     36 C         -29.1646    0.9476   28.5608 C.2     1  UNL1        0.2823
     37 C         -22.3439    0.6822   28.1580 C.3     1  UNL1        0.0920
     38 O         -29.5023    3.9808   28.9947 O.3     1  UNL1       -0.2181
     39 C         -26.9547    2.0115   29.5216 C.2     1  UNL1        0.0056
     40 N         -22.2069    0.3899   29.5221 N.3     1  UNL1       -0.1329
     41 C         -29.2404    3.1162   31.4729 C.3     1  UNL1        0.0406
     42 C         -29.0995    3.0137   29.8815 C.3     1  UNL1        0.1785
@<TRIPOS>BOND
     1     1    28    1
     2     2     7    1
     3     2     1    1
     4     3     2    2
     5     4     3    1
     6     4     5    2
     7     5     6    1
     8     6     7    2
     9     8     1    1
    10     8     9    1
    11     8    12    1
    12     9    10    1
    13    10    11    1
    14    12    11    1
    15    13    35    1
    16    14    13    1
    17    14    15    1
    18    15    18    2
    19    16    17    1
    20    16    15    1
    21    19    14    2
    22    20    21    2
    23    20    19    1
    24    21    26    1
    25    22    21    1
    26    23    22    1
    27    24    23    1
    28    24    25    1
    29    26    27    1
    30    26    13    1
    31    29    28    1
    32    29    39    1
    33    30    39    2
    34    30    42    1
    35    31    37    1
    36    32    36    1
    37    34    36    2
    38    35    31    1
    39    35    29    1
    40    36    30    1
    41    37    33    1
    42    37    40    1
    43    38    42    1
    44    42    41    1
