@<TRIPOS>MOLECULE
No_56-gen_results/8p0m/2024-11-27-11-27-31/
 35 38 0 0 0
SMALL
GASTEIGER

@<TRIPOS>ATOM
      1 C         -28.0162   -0.8135   28.8779 C.ar    1  UNL1        0.0798
      2 C         -27.0636   -0.1190   28.6079 C.ar    1  UNL1        0.0063
      3 C         -26.9716    0.7139   27.5060 C.ar    1  UNL1       -0.0036
      4 C         -28.1053    0.7744   26.6421 C.ar    1  UNL1       -0.0218
      5 C         -29.2041    0.1179   27.0477 C.ar    1  UNL1       -0.0040
      6 C         -29.2127   -0.6088   28.1281 C.ar    1  UNL1        0.0063
      7 C         -25.7106    1.4518   27.1380 C.ar    1  UNL1        0.0041
      8 C         -25.2074    2.4128   27.9320 C.ar    1  UNL1        0.0550
      9 C         -23.9232    3.0327   27.5992 C.ar    1  UNL1        0.0046
     10 C         -23.2537    2.5225   26.4549 C.ar    1  UNL1        0.0001
     11 C         -24.8528    0.9891   26.0822 C.ar    1  UNL1        0.0001
     12 C         -23.7240    1.5578   25.7176 C.ar    1  UNL1        0.0000
     13 C         -25.9096    2.9945   29.0754 C.2     1  UNL1        0.2652
     14 O         -26.9089    2.5420   29.3407 O.2     1  UNL1       -0.2684
     15 N         -25.5077    4.2943   29.4696 N.am    1  UNL1       -0.1941
     16 C         -26.0831    4.9782   30.5908 C.3     1  UNL1        0.1716
     17 C         -28.0755    1.6875   25.4788 C.3     1  UNL1        0.0310
     18 C         -25.6720    6.2575   30.6722 C.2     1  UNL1        0.2457
     19 O         -25.3376    6.9340   29.6609 O.2     1  UNL1       -0.2730
     20 N         -25.4619    6.8713   31.9578 N.am    1  UNL1       -0.2760
     21 C         -25.7865    6.2145   33.1576 C.3     1  UNL1        0.0938
     22 C         -26.2117    4.9184   32.9676 C.3     1  UNL1        0.0238
     23 C         -26.1652    4.2331   31.7183 C.3     1  UNL1        0.0328
     24 C         -28.0542   -1.6925   30.1005 C.2     1  UNL1        0.3878
     25 O         -28.7043   -2.7515   30.1635 O.co2   1  UNL1       -0.2406
     26 O         -27.2186   -1.3910   31.0934 O.co2   1  UNL1       -0.2406
     27 C         -25.0716    8.3079   32.0260 C.3     1  UNL1        0.0979
     28 C         -23.8752    8.4012   32.2383 C.ar    1  UNL1       -0.0043
     29 C         -23.0793    7.7219   33.1422 C.ar    1  UNL1       -0.0027
     30 C         -21.6538    7.8763   33.4199 C.ar    1  UNL1       -0.0003
     31 C         -20.9889    8.8104   32.6870 C.ar    1  UNL1       -0.0000
     32 C         -21.6296    9.5541   31.6932 C.ar    1  UNL1       -0.0003
     33 C         -22.9954    9.3919   31.4863 C.ar    1  UNL1       -0.0027
     34 C         -25.6837    9.0110   30.8100 C.3     1  UNL1        0.0244
     35 C         -26.9106    9.3950   30.8060 C.3     1  UNL1        0.0021
@<TRIPOS>BOND
     1     3     7    1
     2     8    13    1
     3    13    14    2
     4    13    15   am
     5    15    16    1
     6     4    17    1
     7    16    18    1
     8    18    19    2
     9    18    20   am
    10    20    21    1
    11    16    23    1
    12    22    23    1
    13     1    24    1
    14    24    25   ar
    15    24    26   ar
    16    20    27    1
    17    27    28    1
    18    27    34    1
    19    34    35    1
    20    22    21    1
    21     7     8   ar
    22     8     9   ar
    23     9    10   ar
    24    10    12   ar
    25    12    11   ar
    26    11     7   ar
    27     1     2   ar
    28     2     3   ar
    29     3     4   ar
    30     4     5   ar
    31     5     6   ar
    32     6     1   ar
    33    28    29   ar
    34    29    30   ar
    35    30    31   ar
    36    31    32   ar
    37    32    33   ar
    38    33    28   ar
