@<TRIPOS>MOLECULE
outputs/IAG933/test6/raw/output_5600_IAG933_linker_design_.xyz
 41 44 0 0 0
SMALL
GASTEIGER

@<TRIPOS>ATOM
      1 C         -24.8550   -1.0120   30.1430 C.3     1  UNL1        0.0975
      2 C         -24.9730   -2.5050   29.7880 C.2     1  UNL1       -0.0064
      3 C         -23.9060   -3.1730   29.1460 C.2     1  UNL1       -0.0029
      4 C         -23.9890   -4.5490   28.8530 C.2     1  UNL1       -0.0003
      5 C         -25.1370   -5.2800   29.2050 C.2     1  UNL1       -0.0000
      6 C         -26.2320   -4.6110   29.7840 C.2     1  UNL1       -0.0003
      7 C         -26.1550   -3.2320   30.0650 C.2     1  UNL1       -0.0029
      8 C         -25.3870   -0.6790   31.5710 C.3     1  UNL1        0.0916
      9 C         -25.1890    0.7730   32.0280 C.3     1  UNL1        0.0206
     10 C         -25.3360    0.6840   33.5440 C.3     1  UNL1        0.0203
     11 C         -24.8290   -0.7150   33.9050 C.3     1  UNL1        0.0888
     12 N         -24.7580   -1.4810   32.6460 N.3     1  UNL1       -0.2178
     13 C         -25.6880    1.6140   26.4610 C.3     1  UNL1        0.0737
     14 C         -26.2500    2.9200   26.3950 C.2     1  UNL1        0.0549
     15 C         -25.6420    4.0930   27.1230 C.2     1  UNL1        0.2624
     16 N         -25.6140    5.2520   26.4490 N.am    1  UNL1       -0.2000
     17 C         -25.0260    6.4790   26.9630 C.3     1  UNL1        0.1388
     18 O         -25.1430    3.9660   28.2430 O.2     1  UNL1       -0.2687
     19 C         -27.4380    3.0910   25.6450 C.2     1  UNL1        0.1021
     20 N         -28.0750    2.0890   25.0030 N.2     1  UNL1       -0.2119
     21 C         -27.5430    0.8490   25.0790 C.2     1  UNL1        0.2341
     22 O         -28.1930   -0.2080   24.4770 O.2     1  UNL1       -0.4585
     23 C         -29.4600    0.0050   23.8660 C.3     1  UNL1        0.2423
     24 C         -30.0650   -1.3770   23.5730 C.3     1  UNL1        0.2292
     25 O         -30.7290   -1.8780   24.7210 O.3     1  UNL1       -0.2162
     26 C         -26.3540    0.5760   25.7770 C.3     1  UNL1        0.2401
     27 F         -25.8600   -0.6810   25.7950 F       1  UNL1       -0.2269
     28 C         -22.0824    1.7327   26.9200 C.2     1  UNL1        0.3116
     29 C         -28.7927    0.2281   28.4803 C.2     1  UNL1        0.2504
     30 C         -23.2690    1.0407   27.6391 C.3     1  UNL1        0.1106
     31 C         -27.6939    0.2502   29.4559 C.2     1  UNL1        0.3051
     32 O         -22.1617    2.2125   25.8270 O.2     1  UNL1       -0.2591
     33 O         -28.8918    1.5054   27.8729 O.2     1  UNL1       -0.2816
     34 C         -29.7680   -0.6928   28.4596 C.2     1  UNL1        0.0503
     35 C         -23.1431    0.1629   28.6399 C.3     1  UNL1        0.0841
     36 F         -20.9651    1.7355   27.5493 F       1  UNL1       -0.1636
     37 N         -24.3912   -0.0299   29.1775 N.3     1  UNL1       -0.2527
     38 N         -26.5856    1.1288   29.0160 N.am    1  UNL1       -0.1839
     39 C         -25.3345    0.7809   28.5808 C.3     1  UNL1        0.1562
     40 O         -27.7853   -0.5323   30.4373 O.2     1  UNL1       -0.2648
     41 C         -24.7073    1.2698   27.4485 C.3     1  UNL1        0.0539
@<TRIPOS>BOND
     1     1     2    1
     2     2     7    1
     3     3     2    2
     4     4     3    1
     5     4     5    2
     6     5     6    1
     7     6     7    2
     8     8     1    1
     9     8     9    1
    10     8    12    1
    11     9    10    1
    12    10    11    1
    13    12    11    1
    14    13    14    1
    15    14    15    1
    16    15    18    2
    17    16    17    1
    18    16    15    1
    19    19    14    2
    20    20    21    2
    21    20    19    1
    22    21    26    1
    23    22    21    1
    24    23    22    1
    25    24    23    1
    26    24    25    1
    27    26    27    1
    28    26    13    1
    29    28    36    1
    30    29    31    1
    31    30    28    1
    32    30    35    1
    33    31    40    2
    34    32    28    2
    35    33    29    1
    36    34    29    2
    37    35    37    1
    38    37     1    1
    39    38    31    1
    40    39    38    1
    41    39    37    1
    42    41    13    1
    43    41    30    1
    44    41    39    1
