@<TRIPOS>MOLECULE
outputs/IAG933/test6/raw/output_5602_IAG933_linker_design_.xyz
 44 47 0 0 0
SMALL
GASTEIGER

@<TRIPOS>ATOM
      1 C         -24.8550   -1.0120   30.1430 C.3     1  UNL1        0.0780
      2 C         -24.9730   -2.5050   29.7880 C.2     1  UNL1       -0.0156
      3 C         -23.9060   -3.1730   29.1460 C.2     1  UNL1       -0.0039
      4 C         -23.9890   -4.5490   28.8530 C.2     1  UNL1       -0.0003
      5 C         -25.1370   -5.2800   29.2050 C.2     1  UNL1       -0.0000
      6 C         -26.2320   -4.6110   29.7840 C.2     1  UNL1       -0.0003
      7 C         -26.1550   -3.2320   30.0650 C.2     1  UNL1       -0.0039
      8 C         -25.3870   -0.6790   31.5710 C.3     1  UNL1        0.0824
      9 C         -25.1890    0.7730   32.0280 C.3     1  UNL1        0.0196
     10 C         -25.3360    0.6840   33.5440 C.3     1  UNL1        0.0203
     11 C         -24.8290   -0.7150   33.9050 C.3     1  UNL1        0.0887
     12 N         -24.7580   -1.4810   32.6460 N.3     1  UNL1       -0.2187
     13 C         -25.6880    1.6140   26.4610 C.2     1  UNL1        0.0412
     14 C         -26.2500    2.9200   26.3950 C.2     1  UNL1        0.0766
     15 C         -25.6420    4.0930   27.1230 C.2     1  UNL1        0.2664
     16 N         -25.6140    5.2520   26.4490 N.am    1  UNL1       -0.1997
     17 C         -25.0260    6.4790   26.9630 C.3     1  UNL1        0.1388
     18 O         -25.1430    3.9660   28.2430 O.2     1  UNL1       -0.2683
     19 C         -27.4380    3.0910   25.6450 C.2     1  UNL1        0.1067
     20 N         -28.0750    2.0890   25.0030 N.2     1  UNL1       -0.2081
     21 C         -27.5430    0.8490   25.0790 C.2     1  UNL1        0.2533
     22 O         -28.1930   -0.2080   24.4770 O.2     1  UNL1       -0.4558
     23 C         -29.4600    0.0050   23.8660 C.3     1  UNL1        0.2426
     24 C         -30.0650   -1.3770   23.5730 C.3     1  UNL1        0.2292
     25 O         -30.7290   -1.8780   24.7210 O.3     1  UNL1       -0.2162
     26 C         -26.3540    0.5760   25.7770 C.2     1  UNL1        0.1931
     27 F         -25.8600   -0.6810   25.7950 F       1  UNL1       -0.1992
     28 C         -23.9480    0.5055   28.3600 C.2     1  UNL1        0.0180
     29 C         -23.2010    1.8847   26.6021 C.2     1  UNL1        0.1971
     30 C         -30.5730    2.0142   30.7703 C.3     1  UNL1        0.1741
     31 N         -26.2685    0.0160   28.4369 N.2     1  UNL1       -0.2743
     32 C         -21.8752    1.7395   27.0063 C.2     1  UNL1        0.0601
     33 O         -29.5493    1.0564   30.8223 O.3     1  UNL1       -0.3511
     34 C         -28.0280    2.0953   29.0558 C.3     1  UNL1        0.0321
     35 C         -22.6000    0.2919   28.6999 C.2     1  UNL1        0.0194
     36 C         -21.5698    0.9870   28.0501 C.2     1  UNL1        0.0923
     37 O         -23.3983    2.8001   25.6173 O.2     1  UNL1       -0.2865
     38 C         -24.2903    1.3521   27.1277 C.2     1  UNL1        0.0427
     39 C         -28.2883    1.6292   30.4910 C.3     1  UNL1        0.1423
     40 C         -24.9837    0.0773   29.0370 C.2     1  UNL1        0.0588
     41 C         -27.3453   -0.5446   28.7099 C.3     1  UNL1        0.1251
     42 C         -28.8842    1.2701   28.1199 C.3     1  UNL1        0.0046
     43 N         -20.2548    0.9623   28.5293 N.pl3   1  UNL1       -0.1280
     44 C         -28.6710   -0.1915   28.3500 C.3     1  UNL1        0.0264
@<TRIPOS>BOND
     1     1    40    1
     2     2     7    1
     3     2     1    1
     4     3     2    2
     5     4     3    1
     6     4     5    2
     7     5     6    1
     8     6     7    2
     9     8     1    1
    10     8     9    1
    11     8    12    1
    12     9    10    1
    13    10    11    1
    14    12    11    1
    15    13    38    1
    16    14    13    1
    17    14    15    1
    18    15    18    2
    19    16    17    1
    20    16    15    1
    21    19    14    2
    22    20    21    2
    23    20    19    1
    24    21    26    1
    25    22    21    1
    26    23    22    1
    27    24    23    1
    28    24    25    1
    29    26    27    1
    30    26    13    2
    31    28    35    1
    32    28    40    1
    33    29    32    2
    34    29    38    1
    35    30    33    1
    36    31    41    1
    37    31    40    2
    38    32    36    1
    39    34    39    1
    40    36    43    1
    41    36    35    2
    42    37    29    1
    43    38    28    2
    44    39    33    1
    45    42    44    1
    46    42    34    1
    47    44    41    1
